#    Name: 2a3i_C0R_1_ligand
#    Modification time : Mon Mar 24 18:26:39 2014

@<TRIPOS>MOLECULE
2a3i_C0R_1_ligand
   55    58     1     0     0
SMALL
NO_CHARGES


@<TRIPOS>ATOM
      1 C1         23.9540   72.0080   15.0720 C.3       1 C0R301      0.0000 
      2 C2         23.9180   70.6490   14.9210 C.3       1 C0R301      0.0000 
      3 C3         22.7570   70.0410   14.1200 C.2       1 C0R301      0.0000 
      4 C4         21.6850   70.9680   13.5300 C.2       1 C0R301      0.0000 
      5 C5         21.7730   72.3000   13.7040 C.2       1 C0R301      0.0000 
      6 C6         20.6600   73.1620   13.0740 C.3       1 C0R301      0.0000 
      7 C7         20.1530   74.1870   14.1130 C.3       1 C0R301      0.0000 
      8 C8         21.2620   75.0020   14.8500 C.3       1 C0R301      0.0000 
      9 C9         22.2820   74.0090   15.5460 C.3       1 C0R301      0.0000 
     10 C10        22.9190   73.0030   14.4890 C.3       1 C0R301      0.0000 
     11 C11        23.3930   74.7690   16.3940 C.3       1 C0R301      0.0000 
     12 C12        22.7800   75.8130   17.3680 C.3       1 C0R301      0.0000 
     13 C13        21.8060   76.8500   16.6200 C.3       1 C0R301      0.0000 
     14 C14        20.6780   76.0040   15.8950 C.3       1 C0R301      0.0000 
     15 C15        19.6460   77.0980   15.4420 C.3       1 C0R301      0.0000 
     16 C16        19.7800   78.2040   16.5190 C.3       1 C0R301      0.0000 
     17 C17        20.8800   77.7280   17.5060 C.3       1 C0R301      0.0000 
     18 C18        22.6750   77.7830   15.6390 C.3       1 C0R301      0.0000 
     19 C19        23.7520   73.6680   13.3210 C.3       1 C0R301      0.0000 
     20 C20        21.6520   78.9470   18.1290 C.2       1 C0R301      0.0000 
     21 C21        22.5500   78.7890   19.3710 C.3       1 C0R301      0.0000 
     22 O1         22.6890   68.8280   13.9600 O.2       1 C0R301      0.0000 
     23 O2         24.3580   75.4270   15.5940 O.3       1 C0R301      0.0000 
     24 O3         21.5680   80.0840   17.6150 O.2       1 C0R301      0.0000 
     25 O4         23.5580   79.7860   19.4620 O.3       1 C0R301      0.0000 
     26 H          24.9888   72.4381   14.7269 H         1 C0R301      0.0000 
     27 H          24.0225   72.2993   16.2057 H         1 C0R301      0.0000 
     28 H          23.9144   70.1070   15.9232 H         1 C0R301      0.0000 
     29 H          24.8672   70.2470   14.4357 H         1 C0R301      0.0000 
     30 H          20.9425   70.4957   13.0220 H         1 C0R301      0.0000 
     31 H          19.8414   72.5252   12.7747 H         1 C0R301      0.0000 
     32 H          21.0569   73.6890   12.2197 H         1 C0R301      0.0000 
     33 H          19.5509   73.6580   14.8721 H         1 C0R301      0.0000 
     34 H          19.4765   74.9001   13.6105 H         1 C0R301      0.0000 
     35 H          21.8210   75.5629   14.1101 H         1 C0R301      0.0000 
     36 H          21.7011   73.3959   16.2526 H         1 C0R301      0.0000 
     37 H          23.8738   74.0057   17.0285 H         1 C0R301      0.0000 
     38 H          23.5720   76.3860   17.8370 H         1 C0R301      0.0000 
     39 H          22.1978   75.3062   18.1295 H         1 C0R301      0.0000 
     40 H          20.1953   75.4401   16.7159 H         1 C0R301      0.0000 
     41 H          18.6762   76.6876   15.4681 H         1 C0R301      0.0000 
     42 H          19.9356   77.4756   14.5022 H         1 C0R301      0.0000 
     43 H          18.8566   78.3052   17.0413 H         1 C0R301      0.0000 
     44 H          20.0890   79.1137   16.0577 H         1 C0R301      0.0000 
     45 H          20.4448   77.1354   18.2495 H         1 C0R301      0.0000 
     46 H          22.9843   77.7681   19.3289 H         1 C0R301      0.0000 
     47 H          21.8814   78.7984   20.2573 H         1 C0R301      0.0000 
     48 H          23.3669   78.3042   16.1386 H         1 C0R301      0.0000 
     49 H          23.1561   77.2464   14.9458 H         1 C0R301      0.0000 
     50 H          22.1038   78.4446   15.1532 H         1 C0R301      0.0000 
     51 H          24.5083   74.2202   13.6719 H         1 C0R301      0.0000 
     52 H          24.1484   72.9823   12.7105 H         1 C0R301      0.0000 
     53 H          23.1863   74.2701   12.7575 H         1 C0R301      0.0000 
     54 H          24.8096   76.0715   16.2110 H         1 C0R301      0.0000 
     55 H          23.1868   80.5747   18.9720 H         1 C0R301      0.0000 
@<TRIPOS>BOND
     1    2    1 1    
     2   10    1 1    
     3   26    1 1    
     4   27    1 1    
     5    3    2 1    
     6   28    2 1    
     7   29    2 1    
     8    4    3 1    
     9   22    3 2    
    10    5    4 2    
    11   30    4 1    
    12    6    5 1    
    13   10    5 1    
    14    7    6 1    
    15   31    6 1    
    16   32    6 1    
    17    8    7 1    
    18   33    7 1    
    19   34    7 1    
    20    9    8 1    
    21   14    8 1    
    22   35    8 1    
    23   10    9 1    
    24   11    9 1    
    25   36    9 1    
    26   19   10 1    
    27   12   11 1    
    28   23   11 1    
    29   37   11 1    
    30   13   12 1    
    31   38   12 1    
    32   39   12 1    
    33   14   13 1    
    34   17   13 1    
    35   18   13 1    
    36   15   14 1    
    37   40   14 1    
    38   16   15 1    
    39   41   15 1    
    40   42   15 1    
    41   17   16 1    
    42   43   16 1    
    43   44   16 1    
    44   20   17 1    
    45   45   17 1    
    46   48   18 1    
    47   49   18 1    
    48   50   18 1    
    49   51   19 1    
    50   52   19 1    
    51   53   19 1    
    52   21   20 1    
    53   24   20 2    
    54   25   21 1    
    55   46   21 1    
    56   47   21 1    
    57   54   23 1    
    58   55   25 1    
@<TRIPOS>SUBSTRUCTURE
     1 C0R301      1 GROUP   
@<TRIPOS>SET

