#    Name: 1xng_DND_2_INTS_M
#    Modification time : Tue Mar 25 10:26:31 2014

@<TRIPOS>MOLECULE
1xng_DND_2_INTS_M
   87     0    12     0     0
SMALL
NO_CHARGES


@<TRIPOS>ATOM
      1 NZ        -26.3085   21.5845    0.3755 N.4       3 LYC4        0.0000 
      2 NZ        -25.8450   22.5170    1.2390 N.4      11 LYL4        0.0000 
      3 NZ        -26.7720   20.6520   -0.4880 N.4       7 LYP4        0.0000 
      4 N         -26.3085   21.5845    0.3755 N.am      2 SEC2        0.0000 
      5 N         -25.8450   22.5170    1.2390 N.am     10 SEL2        0.0000 
      6 N         -26.7720   20.6520   -0.4880 N.am      6 SEP2        0.0000 
      7 N         -22.2245   21.6280    2.4765 N.am      2 SEC2        0.0000 
      8 N         -23.3140   22.1990    1.4040 N.am     10 SEL2        0.0000 
      9 N         -21.1350   21.0570    3.5490 N.am      6 SEP2        0.0000 
     10 N         -22.8540   21.3405    3.4845 N.am      2 SEC2        0.0000 
     11 N         -24.5730   21.6240    3.4200 N.am     10 SEL2        0.0000 
     12 CA        -24.0865   21.3855    4.6900 C.3       4 GLC5        0.0000 
     13 CA        -25.0730   20.3070    3.1080 C.3      12 GLL5        0.0000 
     14 CA        -23.1000   22.4640    6.2720 C.3       8 GLP5        0.0000 
     15 CA        -24.3975   18.6550    1.8040 C.3       4 GLC5        0.0000 
     16 CA        -23.7220   17.0030    0.5000 C.3       8 GLP5        0.0000 
     17 CA        -24.9995   21.5020    5.6995 C.3       4 GLC5        0.0000 
     18 CA        -26.8990   20.5400    5.1270 C.3      12 GLL5        0.0000 
     19 CA        -28.8805   18.4900    4.8450 C.3       4 GLC5        0.0000 
     20 CA        -26.9170   18.3690    4.5850 C.3      12 GLL5        0.0000 
     21 CA        -30.8440   18.6110    5.1050 C.3       8 GLP5        0.0000 
     22 CA        -27.1405   17.2945    2.9335 C.3       4 GLC5        0.0000 
     23 CA        -27.3640   16.2200    1.2820 C.3       8 GLP5        0.0000 
     24 CA        -23.0185   14.4350    3.7790 C.3       4 GLC5        0.0000 
     25 CA        -25.0390   15.2250    4.2620 C.3      12 GLL5        0.0000 
     26 CA        -20.9980   13.6450    3.2960 C.3       8 GLP5        0.0000 
     27 CA        -29.1970   17.0285    3.4500 C.3       4 GLC5        0.0000 
     28 CA        -27.8100   16.0080    4.8740 C.3      12 GLL5        0.0000 
     29 CA        -30.5840   18.0490    2.0260 C.3       8 GLP5        0.0000 
     30 NZ        -20.5890   20.6640   -0.5080 N.4       3 LYC4        0.0000 
     31 NZ        -21.5060   21.5840   -0.0010 N.4      11 LYL4        0.0000 
     32 NZ        -18.7120   19.1170   -0.3420 N.4       7 LYP4        0.0000 
     33 N         -20.5890   20.6640   -0.5080 N.am      2 SEC2        0.0000 
     34 N         -21.5060   21.5840   -0.0010 N.am     10 SEL2        0.0000 
     35 N         -19.6720   19.7440   -1.0150 N.am      6 SEP2        0.0000 
     36 NZ        -25.2315   20.5040   -0.3985 N.4       3 LYC4        0.0000 
     37 NZ        -23.6910   20.3560   -0.3090 N.4      11 LYL4        0.0000 
     38 N         -23.4735   19.0945   -1.0305 N.am      2 SEC2        0.0000 
     39 N         -23.6910   20.3560   -0.3090 N.am     10 SEL2        0.0000 
     40 N         -23.2560   17.8330   -1.7520 N.am      6 SEP2        0.0000 
     41 O         -18.8070   25.9975   -1.2050 O.2       1 ALC1        0.0000 
     42 O         -20.1740   25.8620   -0.7840 O.2       9 ALL1        0.0000 
     43 O         -17.4400   26.1330   -1.6260 O.2       5 ALP1        0.0000 
     44 O         -18.4340   25.8890   -2.4640 O.2       1 ALC1        0.0000 
     45 O         -19.4280   25.6450   -3.3020 O.2       9 ALL1        0.0000 
     46 CA        -23.4570   24.3510   -4.5410 C.3       4 GLC5        0.0000 
     47 CA        -21.8770   25.3570   -3.9390 C.3      12 GLL5        0.0000 
     48 CA        -25.0370   23.3450   -5.1430 C.3       8 GLP5        0.0000 
     49 CA        -23.7755   27.8340   -8.9770 C.3       4 GLC5        0.0000 
     50 CA        -23.5880   25.9910   -8.0690 C.3      12 GLL5        0.0000 
     51 CA        -23.9630   29.6770   -9.8850 C.3       8 GLP5        0.0000 
     52 CA        -22.3590   27.4885   -7.0620 C.3       4 GLC5        0.0000 
     53 CA        -21.1300   28.9860   -6.0550 C.3       8 GLP5        0.0000 
     54 CA        -21.9060   25.9955   -8.5125 C.3       4 GLC5        0.0000 
     55 CA        -20.2240   26.0000   -8.9560 C.3       8 GLP5        0.0000 
     56 CA        -25.3210   25.1755   -8.1285 C.3       4 GLC5        0.0000 
     57 CA        -27.0540   24.3600   -8.1880 C.3       8 GLP5        0.0000 
     58 N         -24.4195   27.7115   -9.4255 N.am      2 SEC2        0.0000 
     59 N         -24.6330   26.8580   -8.0470 N.am     10 SEL2        0.0000 
     60 N         -24.2060   28.5650  -10.8040 N.am      6 SEP2        0.0000 
     61 CA        -24.5355   28.5715   -8.4070 C.3       4 GLC5        0.0000 
     62 CA        -25.1080   27.4660   -6.9290 C.3      12 GLL5        0.0000 
     63 CA        -26.0810   25.9130   -7.5585 C.3       4 GLC5        0.0000 
     64 CA        -28.6133   19.1800    5.9485 C.3       4 GLC5        0.0000 
     65 CA        -30.4560   18.4770    6.4460 C.3       8 GLP5        0.0000 
     66 CA        -26.3010   16.0587    2.7867 C.3       4 GLC5        0.0000 
     67 CA        -25.4370   16.5700    4.3210 C.3      12 GLL5        0.0000 
     68 CA        -23.8910   16.1638    2.8098 C.3       4 GLC5        0.0000 
     69 CA        -22.5440   16.4300    1.3280 C.3       8 GLP5        0.0000 
     70 CA        -24.5753   15.1444    5.9176 C.3       4 GLC5        0.0000 
     71 CA        -26.0210   14.2680    4.5090 C.3      12 GLL5        0.0000 
     72 CA        -23.5210   15.2060    7.4350 C.3       8 GLP5        0.0000 
     73 CA        -27.3077   15.7256    3.0240 C.3       4 GLC5        0.0000 
     74 CA        -27.0907   14.5516    6.5465 C.3       4 GLC5        0.0000 
     75 CA        -26.9300   13.8720    8.3270 C.3       8 GLP5        0.0000 
     76 CA        -24.0760   24.0697   -2.7575 C.3       4 GLC5        0.0000 
     77 CA        -22.9290   24.0650   -0.8740 C.3      12 GLL5        0.0000 
     78 CA        -25.7570   23.9530   -4.1220 C.3       8 GLP5        0.0000 
     79 CA        -20.0345   23.6790   -2.5500 C.3       4 GLC5        0.0000 
     80 CA        -21.8610   24.3080   -1.9120 C.3      12 GLL5        0.0000 
     81 CA        -18.5390   22.4030   -3.2900 C.3       8 GLP5        0.0000 
     82 CA        -20.1653   24.1268   -4.0568 C.3       4 GLC5        0.0000 
     83 CA        -20.7820   25.9700   -3.1160 C.3      12 GLL5        0.0000 
     84 CA        -19.0010   22.5900   -4.5860 C.3       8 GLP5        0.0000 
     85 CA        -21.2297   27.3248   -4.7912 C.3       4 GLC5        0.0000 
     86 CA        -22.8158   28.0334   -6.1920 C.3       4 GLC5        0.0000 
     87 CA        -23.3610   26.2540   -5.7290 C.3      12 GLL5        0.0000 
@<TRIPOS>BOND
@<TRIPOS>SUBSTRUCTURE
     1 ALC1       41 GROUP        1 X    ALC  0     ROOT ALC X 1
     2 SEC2        4 GROUP        1 X    SEC  0     **** SEC X 2
     3 LYC4        1 GROUP        1 X    LYC  0     **** LYC X 4
     4 GLC5       12 GROUP        1 X    GLC  0     **** GLC X 6
     5 ALP1       43 GROUP        1 Y    ALP  0     ROOT ALP Y 8
     6 SEP2        6 GROUP        1 Y    SEP  0     **** SEP Y 9
     7 LYP4        3 GROUP        1 Y    LYP  0     **** LYP Y 11
     8 GLP5       14 GROUP        1 Y    GLP  0     **** GLP Y 13
     9 ALL1       42 GROUP        1 Z    ALL  0     ROOT ALL Z 15
    10 SEL2        5 GROUP        1 Z    SEL  0     **** SEL Z 16
    11 LYL4        2 GROUP        1 Z    LYL  0     **** LYL Z 18
    12 GLL5       13 GROUP        1 Z    GLL  0     **** GLL Z 20
@<TRIPOS>SET

