#    Name: 1xng_DND_2_ligand
#    Modification time : Tue Mar 25 10:26:32 2014

@<TRIPOS>MOLECULE
1xng_DND_2_ligand
   68    72     1     0     0
SMALL
NO_CHARGES


@<TRIPOS>ATOM
      1 PN        -24.5950   22.6430    2.1400 P.3       1 DND302      0.0000 
      2 O11       -24.3830   24.0810    2.5030 O.co2     1 DND302      0.0000 
      3 O12       -25.8450   22.5170    1.2390 O.co2     1 DND302      0.0000 
      4 O3P       -23.3140   22.1990    1.4040 O.3       1 DND302      0.0000 
      5 O5D       -24.5730   21.6240    3.4200 O.3       1 DND302      0.0000 
      6 C5D       -25.0730   20.3070    3.1080 C.3       1 DND302      0.0000 
      7 C4D       -26.5230   20.3360    3.6460 C.3       1 DND302      0.0000 
      8 O4D       -27.2220   19.0790    3.3800 O.3       1 DND302      0.0000 
      9 C3D       -26.8990   20.5400    5.1270 C.3       1 DND302      0.0000 
     10 O3D       -28.2030   20.9450    5.6080 O.3       1 DND302      0.0000 
     11 C2D       -26.6420   19.2260    5.7750 C.3       1 DND302      0.0000 
     12 O2D       -26.9530   18.8370    7.1330 O.3       1 DND302      0.0000 
     13 C1D       -26.9170   18.3690    4.5850 C.3       1 DND302      0.0000 
     14 N1N       -26.7770   16.9360    4.6180 N.pl3     1 DND302      0.0000 
     15 C6N       -25.4370   16.5700    4.3210 C.ar      1 DND302      0.0000 
     16 C5N       -25.0390   15.2250    4.2620 C.ar      1 DND302      0.0000 
     17 C4N       -26.0210   14.2680    4.5090 C.ar      1 DND302      0.0000 
     18 C3N       -27.3650   14.6410    4.8070 C.ar      1 DND302      0.0000 
     19 C2N       -27.8100   16.0080    4.8740 C.ar      1 DND302      0.0000 
     20 C7N       -28.3120   13.4790    5.0590 C.2       1 DND302      0.0000 
     21 O7N       -29.5150   13.7760    5.3350 O.co2     1 DND302      0.0000 
     22 O8N       -27.7430   12.3480    4.9580 O.co2     1 DND302      0.0000 
     23 PA        -22.9870   21.6180   -0.0650 P.3       1 DND302      0.0000 
     24 O13       -21.5060   21.5840   -0.0010 O.co2     1 DND302      0.0000 
     25 O14       -23.6910   20.3560   -0.3090 O.co2     1 DND302      0.0000 
     26 O5B       -23.5130   22.7880   -1.0800 O.3       1 DND302      0.0000 
     27 C5B       -22.9290   24.0650   -0.8740 C.3       1 DND302      0.0000 
     28 C4B       -21.8610   24.3080   -1.9120 C.3       1 DND302      0.0000 
     29 O4B       -22.5470   24.3130   -3.2050 O.3       1 DND302      0.0000 
     30 C3B       -21.1990   25.6020   -1.7080 C.3       1 DND302      0.0000 
     31 O3B       -20.1740   25.8620   -0.7840 O.3       1 DND302      0.0000 
     32 C2B       -20.7820   25.9700   -3.1160 C.3       1 DND302      0.0000 
     33 O2B       -19.4280   25.6450   -3.3020 O.3       1 DND302      0.0000 
     34 C1B       -21.8770   25.3570   -3.9390 C.3       1 DND302      0.0000 
     35 N9A       -22.9740   26.1790   -4.4460 N.pl3     1 DND302      0.0000 
     36 C4A       -23.3610   26.2540   -5.7290 C.ar      1 DND302      0.0000 
     37 N3A       -22.9490   25.6860   -6.9100 N.ar      1 DND302      0.0000 
     38 C2A       -23.5880   25.9910   -8.0690 C.ar      1 DND302      0.0000 
     39 N1A       -24.6330   26.8580   -8.0470 N.ar      1 DND302      0.0000 
     40 C6A       -25.1080   27.4660   -6.9290 C.ar      1 DND302      0.0000 
     41 C5A       -24.4290   27.1370   -5.7290 C.ar      1 DND302      0.0000 
     42 N7A       -24.7120   27.6090   -4.4930 N.2       1 DND302      0.0000 
     43 C8A       -23.8070   27.0080   -3.7250 C.2       1 DND302      0.0000 
     44 N6A       -26.1370   28.2970   -6.9620 N.pl3     1 DND302      0.0000 
     45 H         -24.5434   19.5393    3.6272 H         1 DND302      0.0000 
     46 H         -25.1144   20.1282    2.0565 H         1 DND302      0.0000 
     47 H         -27.1031   21.1102    3.0759 H         1 DND302      0.0000 
     48 H         -26.1103   21.2077    5.5705 H         1 DND302      0.0000 
     49 H         -25.4072   19.2232    5.7009 H         1 DND302      0.0000 
     50 H         -28.2913   18.3043    4.9322 H         1 DND302      0.0000 
     51 H         -24.7451   17.3155    4.1456 H         1 DND302      0.0000 
     52 H         -24.0917   14.9704    4.0517 H         1 DND302      0.0000 
     53 H         -25.7850   13.2636    4.4790 H         1 DND302      0.0000 
     54 H         -28.7241   16.2511    5.0745 H         1 DND302      0.0000 
     55 H         -22.4641   24.1439    0.1184 H         1 DND302      0.0000 
     56 H         -23.6726   24.8697   -0.9552 H         1 DND302      0.0000 
     57 H         -21.1579   23.5056   -1.8790 H         1 DND302      0.0000 
     58 H         -22.0665   26.3547   -1.5364 H         1 DND302      0.0000 
     59 H         -20.9459   27.0785   -3.1479 H         1 DND302      0.0000 
     60 H         -21.4043   24.8480   -4.8225 H         1 DND302      0.0000 
     61 H         -23.2810   25.5661   -8.9618 H         1 DND302      0.0000 
     62 H         -23.7204   27.1253   -2.7463 H         1 DND302      0.0000 
     63 H         -26.5403   28.4624   -7.8620 H         1 DND302      0.0000 
     64 H         -26.4181   28.6843   -6.0840 H         1 DND302      0.0000 
     65 H         -28.3722   20.3724    6.4101 H         1 DND302      0.0000 
     66 H         -26.1089   18.9923    7.6463 H         1 DND302      0.0000 
     67 H         -19.3332   25.8680   -1.3252 H         1 DND302      0.0000 
     68 H         -18.9611   26.0116   -2.4973 H         1 DND302      0.0000 
@<TRIPOS>BOND
     1    2    1 ar   
     2    3    1 ar   
     3    4    1 1    
     4    5    1 1    
     5   23    4 1    
     6    6    5 1    
     7    7    6 1    
     8   45    6 1    
     9   46    6 1    
    10    8    7 1    
    11    9    7 1    
    12   47    7 1    
    13   13    8 1    
    14   10    9 1    
    15   11    9 1    
    16   48    9 1    
    17   65   10 1    
    18   12   11 1    
    19   13   11 1    
    20   49   11 1    
    21   66   12 1    
    22   14   13 1    
    23   50   13 1    
    24   15   14 ar   
    25   19   14 ar   
    26   16   15 ar   
    27   51   15 1    
    28   17   16 ar   
    29   52   16 1    
    30   18   17 ar   
    31   53   17 1    
    32   19   18 ar   
    33   20   18 1    
    34   54   19 1    
    35   21   20 ar   
    36   22   20 ar   
    37   24   23 ar   
    38   25   23 ar   
    39   26   23 1    
    40   27   26 1    
    41   28   27 1    
    42   55   27 1    
    43   56   27 1    
    44   29   28 1    
    45   30   28 1    
    46   57   28 1    
    47   34   29 1    
    48   31   30 1    
    49   32   30 1    
    50   58   30 1    
    51   67   31 1    
    52   33   32 1    
    53   34   32 1    
    54   59   32 1    
    55   68   33 1    
    56   35   34 1    
    57   60   34 1    
    58   36   35 1    
    59   43   35 1    
    60   37   36 ar   
    61   41   36 ar   
    62   38   37 ar   
    63   39   38 ar   
    64   61   38 1    
    65   40   39 ar   
    66   41   40 ar   
    67   44   40 1    
    68   42   41 1    
    69   43   42 2    
    70   62   43 1    
    71   63   44 1    
    72   64   44 1    
@<TRIPOS>SUBSTRUCTURE
     1 DND302      1 GROUP   
@<TRIPOS>SET

