#    Name: 4AR8_2_CAVITY_N1_6.mol2
#    Modification time : Tue Mar 11 17:59:00 2014

@<TRIPOS>MOLECULE
4AR8_2_CAVITY_N1_6.mol2
   80     0     6     0     0
SMALL
NO_CHARGES


@<TRIPOS>ATOM
      1 OG          0.1268  -14.2043  -18.6736 O.2       1 SER1        0.0000 
      2 N          -1.2564  -14.4502  -19.1992 N.2       2 ALA2        0.0000 
      3 DU         -0.7059  -14.5760  -20.5889 H         6 CUB7        0.0000 
      4 CA         -2.0891  -14.8219  -21.1146 C.3       5 GLY6        0.0000 
      5 N          -2.9218  -15.1936  -23.0299 N.2       2 ALA2        0.0000 
      6 OG          2.2435  -11.2613  -21.3397 O.2       1 SER1        0.0000 
      7 CZ          2.7940  -11.3871  -22.7293 C.ar      4 PHE5        0.0000 
      8 CA          0.3098  -11.3814  -20.4757 C.3       5 GLY6        0.0000 
      9 DU          0.8603  -11.5072  -21.8653 H         6 CUB7        0.0000 
     10 CZ          1.4108  -11.6330  -23.2550 C.ar      4 PHE5        0.0000 
     11 CZ          1.9613  -11.7587  -24.6446 C.ar      4 PHE5        0.0000 
     12 OG          2.5118  -11.8845  -26.0343 O.2       1 SER1        0.0000 
     13 O          -0.5229  -11.7531  -22.3910 O.2       2 ALA2        0.0000 
     14 DU          0.0276  -11.8788  -23.7807 H         6 CUB7        0.0000 
     15 CZ          0.5781  -12.0046  -25.1703 C.ar      4 PHE5        0.0000 
     16 CZ          1.1286  -12.1304  -26.5600 C.ar      4 PHE5        0.0000 
     17 O          -1.9061  -11.9990  -22.9167 O.2       2 ALA2        0.0000 
     18 CZ         -1.3556  -12.1247  -24.3063 C.ar      4 PHE5        0.0000 
     19 CZ         -3.2892  -12.2449  -23.4424 C.ar      4 PHE5        0.0000 
     20 OG          1.5093   -9.6611  -20.1562 O.2       1 SER1        0.0000 
     21 CZ          2.0598   -9.7869  -21.5459 C.ar      4 PHE5        0.0000 
     22 CA          0.1261   -9.9070  -20.6819 C.3       5 GLY6        0.0000 
     23 CZ          0.6766  -10.0328  -22.0716 C.ar      4 PHE5        0.0000 
     24 CZ          1.2271  -10.1586  -23.4612 C.ar      4 PHE5        0.0000 
     25 CZ          1.7776  -10.2844  -24.8509 C.ar      4 PHE5        0.0000 
     26 OG          2.3281  -10.4102  -26.2405 O.2       1 SER1        0.0000 
     27 O          -0.7066  -10.2787  -22.5972 O.2       2 ALA2        0.0000 
     28 DU         -0.1561  -10.4045  -23.9869 H         6 CUB7        0.0000 
     29 CZ          0.3944  -10.5303  -25.3765 C.ar      4 PHE5        0.0000 
     30 CZ          0.9449  -10.6561  -26.7662 C.ar      4 PHE5        0.0000 
     31 O          -2.0898  -10.5246  -23.1229 O.2       2 ALA2        0.0000 
     32 CZ         -1.5393  -10.6504  -24.5126 C.ar      4 PHE5        0.0000 
     33 CZ         -0.9888  -10.7762  -25.9022 C.ar      4 PHE5        0.0000 
     34 CZ         -3.4730  -10.7705  -23.6486 C.ar      4 PHE5        0.0000 
     35 CZ         -4.8562  -11.0164  -24.1743 C.ar      4 PHE5        0.0000 
     36 NZ         -0.7073   -5.9814  -24.6056 N.2       3 LYS4        0.0000 
     37 CA         -2.6410   -6.1016  -23.7416 C.3       5 GLY6        0.0000 
     38 O          -2.0905   -6.2273  -25.1312 O.2       2 ALA2        0.0000 
     39 CA          3.2599  -12.3640  -19.2181 C.3       5 GLY6        0.0000 
     40 OG          3.8104  -12.4897  -20.6078 O.2       1 SER1        0.0000 
     41 OG          1.8767  -12.6099  -19.7438 O.2       1 SER1        0.0000 
     42 DU          2.4272  -12.7356  -21.1334 H         6 CUB7        0.0000 
     43 OG          0.4936  -12.8557  -20.2695 O.2       1 SER1        0.0000 
     44 DU          1.0440  -12.9815  -21.6591 H         6 CUB7        0.0000 
     45 O          -0.8896  -13.1016  -20.7951 O.2       2 ALA2        0.0000 
     46 O          -0.3391  -13.2274  -22.1848 O.2       2 ALA2        0.0000 
     47 DU          0.2114  -13.3532  -23.5744 H         6 CUB7        0.0000 
     48 CA         -1.7223  -13.4733  -22.7105 C.3       5 GLY6        0.0000 
     49 CZ         -1.1718  -13.5991  -24.1001 C.ar      4 PHE5        0.0000 
     50 CZ         -0.6213  -13.7249  -25.4898 C.ar      4 PHE5        0.0000 
     51 CZ         -3.1055  -13.7192  -23.2361 C.ar      4 PHE5        0.0000 
     52 OG          1.1425  -11.0097  -18.5604 O.2       1 SER1        0.0000 
     53 OG          1.6930  -11.1355  -19.9500 O.2       1 SER1        0.0000 
     54 CZ          0.4929   -8.5585  -22.2778 C.ar      4 PHE5        0.0000 
     55 CA         -0.8903   -8.8044  -22.8035 C.3       5 GLY6        0.0000 
     56 CZ         -0.3398   -8.9301  -24.1931 C.ar      4 PHE5        0.0000 
     57 CZ          0.2107   -9.0559  -25.5828 C.ar      4 PHE5        0.0000 
     58 OG          0.7612   -9.1817  -26.9724 O.2       1 SER1        0.0000 
     59 CA         -2.8240   -8.9245  -21.9395 C.3       5 GLY6        0.0000 
     60 CA         -2.2735   -9.0503  -23.3291 C.3       5 GLY6        0.0000 
     61 CZ         -1.7230   -9.1760  -24.7188 C.ar      4 PHE5        0.0000 
     62 CZ         -1.1725   -9.3018  -26.1084 C.ar      4 PHE5        0.0000 
     63 CZ         -0.6220   -9.4276  -27.4981 C.ar      4 PHE5        0.0000 
     64 O          -4.2072   -9.1704  -22.4652 O.2       2 ALA2        0.0000 
     65 CZ         -3.6567   -9.2962  -23.8548 C.ar      4 PHE5        0.0000 
     66 CZ         -3.1062   -9.4219  -25.2445 C.ar      4 PHE5        0.0000 
     67 CZ         -2.5557   -9.5477  -26.6341 C.ar      4 PHE5        0.0000 
     68 CZ         -5.0399   -9.5420  -24.3805 C.ar      4 PHE5        0.0000 
     69 CZ         -4.4894   -9.6678  -25.7701 C.ar      4 PHE5        0.0000 
     70 CZ          0.8596   -7.2099  -23.8737 C.ar      4 PHE5        0.0000 
     71 CA         -0.5236   -7.4558  -24.3993 C.3       5 GLY6        0.0000 
     72 NZ          0.0269   -7.5816  -25.7890 N.2       3 LYS4        0.0000 
     73 CA         -2.4572   -7.5759  -23.5354 C.3       5 GLY6        0.0000 
     74 DU         -1.9067   -7.7017  -24.9250 H         6 CUB7        0.0000 
     75 NZ         -1.3562   -7.8275  -26.3147 N.2       3 LYS4        0.0000 
     76 NZ         -4.3909   -7.6960  -22.6714 N.2       3 LYS4        0.0000 
     77 NZ         -3.8404   -7.8218  -24.0610 N.2       3 LYS4        0.0000 
     78 N          -3.2899   -7.9476  -25.4507 N.2       2 ALA2        0.0000 
     79 NZ         -5.2236   -8.0677  -24.5867 N.2       3 LYS4        0.0000 
     80 CZ         -4.6731   -8.1935  -25.9764 C.ar      4 PHE5        0.0000 
@<TRIPOS>BOND
@<TRIPOS>SUBSTRUCTURE
     1 SER1        1 GROUP   
     2 ALA2        2 GROUP   
     3 LYS4       36 GROUP   
     4 PHE5        7 GROUP   
     5 GLY6        4 GROUP   
     6 CUB7        3 GROUP   
@<TRIPOS>SET

