#    Name: 4ar8_GLY_PRO_ALA_IP8_2_INTS_M
#    Modification time : Tue Mar 25 06:02:30 2014

@<TRIPOS>MOLECULE
4ar8_GLY_PRO_ALA_IP8_2_INTS_M
   61     0    12     0     0
SMALL
NO_CHARGES


@<TRIPOS>ATOM
      1 O          -6.2365   -8.8235  -22.5690 O.2       1 ALC1        0.0000 
      2 O          -5.5260   -8.5580  -23.9890 O.2       9 ALL1        0.0000 
      3 O          -6.9470   -9.0890  -21.1490 O.2       5 ALP1        0.0000 
      4 CA         -2.8865   -9.7685  -21.7135 C.3       4 GLC5        0.0000 
      5 CA         -3.1420   -9.2370  -23.8480 C.3      12 GLL5        0.0000 
      6 CA         -2.6310  -10.3000  -19.5790 C.3       8 GLP5        0.0000 
      7 CA         -2.3020   -7.8590  -22.4320 C.3       4 GLC5        0.0000 
      8 CA         -1.4620   -6.4810  -21.0160 C.3       8 GLP5        0.0000 
      9 CA         -4.4340   -6.2940  -24.7545 C.3       4 GLC5        0.0000 
     10 CA         -4.1920   -8.3950  -24.5340 C.3      12 GLL5        0.0000 
     11 CA         -4.6760   -4.1930  -24.9750 C.3       8 GLP5        0.0000 
     12 CA         -4.0220   -8.4235  -26.6270 C.3       4 GLC5        0.0000 
     13 CA         -3.8520   -8.4520  -28.7200 C.3       8 GLP5        0.0000 
     14 N          -3.3815  -10.7545  -21.8185 N.am      2 SEC2        0.0000 
     15 N          -3.5010  -10.2100  -23.1980 N.am     10 SEL2        0.0000 
     16 N          -3.2620  -11.2990  -20.4390 N.am      6 SEP2        0.0000 
     17 CA         -2.1625  -11.1160  -25.2190 C.3       4 GLC5        0.0000 
     18 CA         -0.9610  -10.1420  -24.0810 C.3      12 GLL5        0.0000 
     19 CA         -3.3640  -12.0900  -26.3570 C.3       8 GLP5        0.0000 
     20 CA         -1.1795  -11.1355  -26.2690 C.3       4 GLC5        0.0000 
     21 CA          0.0860   -9.8910  -25.1610 C.3      12 GLL5        0.0000 
     22 CA         -2.4450  -12.3800  -27.3770 C.3       8 GLP5        0.0000 
     23 CA         -1.3875   -8.2920  -27.4855 C.3       4 GLC5        0.0000 
     24 CA         -0.1230   -8.4690  -25.6520 C.3      12 GLL5        0.0000 
     25 CA         -2.6520   -8.1150  -29.3190 C.3       8 GLP5        0.0000 
     26 CA         -1.4570   -7.2480  -23.0425 C.3       4 GLC5        0.0000 
     27 CA         -1.4520   -8.0150  -25.0690 C.3      12 GLL5        0.0000 
     28 CA         -2.6520   -8.2335  -26.8945 C.3       4 GLC5        0.0000 
     29 CA         -0.9610  -11.2140  -20.4555 C.3       4 GLC5        0.0000 
     30 CA          0.7090  -12.1280  -21.3320 C.3      12 GLL5        0.0000 
     31 N           3.3095  -10.4310  -19.7695 N.am      2 SEC2        0.0000 
     32 N           2.7640  -11.4350  -20.3130 N.am     10 SEL2        0.0000 
     33 N           3.8550   -9.4270  -19.2260 N.am      6 SEP2        0.0000 
     34 Zn         -6.7335   -6.2620  -25.7040 Zn        3 ZIC7        0.0000 
     35 Zn         -7.0400   -6.5080  -24.6680 Zn       11 ZIL7        0.0000 
     36 Zn         -6.4270   -6.0160  -26.7400 Zn        7 ZIP7        0.0000 
     37 CA        -10.2720   -8.8895  -22.8290 C.3       4 GLC5        0.0000 
     38 CA         -9.4150   -8.1810  -24.2030 C.3      12 GLL5        0.0000 
     39 CA        -11.1290   -9.5980  -21.4550 C.3       8 GLP5        0.0000 
     40 Zn         -6.4610   -7.0230  -26.6220 Zn        3 ZIC7        0.0000 
     41 Zn         -6.4950   -8.0300  -26.5040 Zn       11 ZIL7        0.0000 
     42 N          -6.1280   -8.9475  -27.5460 N.am      2 SEC2        0.0000 
     43 N          -6.4950   -8.0300  -26.5040 N.am     10 SEL2        0.0000 
     44 N          -5.7610   -9.8650  -28.5880 N.am      6 SEP2        0.0000 
     45 CA        -11.4890   -5.4450  -23.6170 C.3       4 GLC5        0.0000 
     46 CA        -11.4090   -6.8560  -25.2080 C.3      12 GLL5        0.0000 
     47 CA        -11.5690   -4.0340  -22.0260 C.3       8 GLP5        0.0000 
     48 CA        -10.5550   -4.7050  -26.3460 C.3       4 GLC5        0.0000 
     49 CA        -11.7280   -6.2880  -26.5880 C.3      12 GLL5        0.0000 
     50 CA         -9.3820   -3.1220  -26.1040 C.3       8 GLP5        0.0000 
     51 CA        -12.9390   -6.8950  -27.9495 C.3       4 GLC5        0.0000 
     52 CA        -14.1500   -7.5020  -29.3110 C.3       8 GLP5        0.0000 
     53 CA        -11.6600   -8.8735  -23.2185 C.3       4 GLC5        0.0000 
     54 CA        -12.1910   -8.1490  -24.9820 C.3      12 GLL5        0.0000 
     55 CA        -13.5735   -8.6495  -26.3770 C.3       4 GLC5        0.0000 
     56 CA        -14.9560   -9.1500  -27.7720 C.3       8 GLP5        0.0000 
     57 CA         -3.5155  -10.4530  -25.2740 C.3       4 GLC5        0.0000 
     58 CA          1.6738   -8.8120  -24.7168 C.3       4 GLC5        0.0000 
     59 CA          3.3660   -8.4440  -24.0270 C.3       8 GLP5        0.0000 
     60 CA         -9.4876   -5.6306  -25.2836 C.3       4 GLC5        0.0000 
     61 CA         -8.4440   -4.0390  -25.6520 C.3       8 GLP5        0.0000 
@<TRIPOS>BOND
@<TRIPOS>SUBSTRUCTURE
     1 ALC1        1 GROUP        1 X    ALC  0     ROOT ALC X 1
     2 SEC2       14 GROUP        1 X    SEC  0     **** SEC X 2
     3 ZIC7       34 GROUP        1 X    ZIC  0     **** ZIC X 5
     4 GLC5        4 GROUP        1 X    GLC  0     **** GLC X 6
     5 ALP1        3 GROUP        1 Y    ALP  0     ROOT ALP Y 8
     6 SEP2       16 GROUP        1 Y    SEP  0     **** SEP Y 9
     7 ZIP7       36 GROUP        1 Y    ZIP  0     **** ZIP Y 12
     8 GLP5        6 GROUP        1 Y    GLP  0     **** GLP Y 13
     9 ALL1        2 GROUP        1 Z    ALL  0     ROOT ALL Z 15
    10 SEL2       15 GROUP        1 Z    SEL  0     **** SEL Z 16
    11 ZIL7       35 GROUP        1 Z    ZIL  0     **** ZIL Z 19
    12 GLL5        5 GROUP        1 Z    GLL  0     **** GLL Z 20
@<TRIPOS>SET

