#    Name: 4ar8_GLY_PRO_ALA_IP8_2_ligand
#    Modification time : Tue Mar 25 06:02:30 2014

@<TRIPOS>MOLECULE
4ar8_GLY_PRO_ALA_IP8_2_ligand
   49    49     4     0     0
SMALL
NO_CHARGES


@<TRIPOS>ATOM
      1 N          -5.5260   -8.5580  -23.9890 N.am      1 GLY1        0.0000
      2 CA         -3.1420   -9.2370  -23.8480 C.2       1 GLY1        0.0000
      3 C          -4.1920   -8.3950  -24.5340 C.3       1 GLY1        0.0000
      4 O          -3.5010  -10.2100  -23.1980 O.3       1 GLY1        0.0000
      5 HNCA       -5.8013   -8.9559  -23.1757 H         1 GLY1        0.0000
      6 H          -3.8744   -7.3301  -24.4724 H         1 GLY1        0.0000
      7 H          -4.1816   -8.6466  -25.6181 H         1 GLY1        0.0000
      8 H          -4.4166  -10.4247  -23.5379 H         1 GLY1        0.0000
      9 N          -1.7910   -8.9160  -23.9360 N.am      2 PRO2        0.0000
     10 CA         -0.9610  -10.1420  -24.0810 C.3       2 PRO2        0.0000
     11 C          -0.2850  -10.4750  -22.7800 C.2       2 PRO2        0.0000
     12 O          -0.0710   -9.5890  -21.9640 O.2       2 PRO2        0.0000
     13 CB          0.0860   -9.8910  -25.1610 C.3       2 PRO2        0.0000
     14 CG         -0.1230   -8.4690  -25.6520 C.3       2 PRO2        0.0000
     15 CD         -1.4520   -8.0150  -25.0690 C.3       2 PRO2        0.0000
     16 HA         -1.5773  -10.9639  -24.3893 H         2 PRO2        0.0000
     17 HB2        -0.0607  -10.5803  -25.9705 H         2 PRO2        0.0000
     18 HB3         1.0679   -9.9892  -24.7390 H         2 PRO2        0.0000
     19 HG2        -0.1754   -8.4588  -26.7214 H         2 PRO2        0.0000
     20 HG3         0.6642   -7.8407  -25.2887 H         2 PRO2        0.0000
     21 HD2        -1.3554   -6.9934  -24.7232 H         2 PRO2        0.0000
     22 HD3        -2.2127   -8.0721  -25.8375 H         2 PRO2        0.0000
     23 N           0.0350  -11.7420  -22.5600 N.am      3 ALA3        0.0000
     24 CA          0.7090  -12.1280  -21.3320 C.3       3 ALA3        0.0000
     25 C           2.1550  -11.6470  -21.3570 C.2       3 ALA3        0.0000
     26 O           2.7640  -11.4350  -20.3130 O.2       3 ALA3        0.0000
     27 CB          0.6450  -13.6340  -21.1370 C.3       3 ALA3        0.0000
     28 OXT         2.8190  -11.4800  -22.4930 O.2       3 ALA3        0.0000
     29 H          -0.1713  -12.5013  -23.2297 H         3 ALA3        0.0000
     30 HA          0.2191  -11.6579  -20.4782 H         3 ALA3        0.0000
     31 HB1         1.0822  -14.1250  -21.8905 H         3 ALA3        0.0000
     32 HB2         1.1041  -13.9194  -20.2957 H         3 ALA3        0.0000
     33 HB3        -0.2982  -13.9616  -21.0819 H         3 ALA3        0.0000
     34 O          -7.0400   -6.5080  -24.6680 O.co2     4 IP80        0.0000
     35 C1         -9.4150   -8.1810  -24.2030 C.3       4 IP80        0.0000
     36 O1         -8.2130   -8.7840  -24.6890 O.3       4 IP80        0.0000
     37 P1         -6.8600   -7.9450  -24.9370 P.3       4 IP80        0.0000
     38 C2         -9.8920   -6.9960  -25.0420 C.3       4 IP80        0.0000
     39 O2         -6.4950   -8.0300  -26.5040 O.co2     4 IP80        0.0000
     40 C3        -11.4090   -6.8560  -25.2080 C.2       4 IP80        0.0000
     41 C4        -11.7280   -6.2880  -26.5880 C.3       4 IP80        0.0000
     42 C5        -12.1910   -8.1490  -24.9820 C.2       4 IP80        0.0000
     43 H          -9.2901   -7.8186  -23.1583 H         4 IP80        0.0000
     44 H         -10.2485   -8.9173  -24.1653 H         4 IP80        0.0000
     45 H          -9.4307   -7.0645  -26.0506 H         4 IP80        0.0000
     46 H          -9.4975   -6.0593  -24.5929 H         4 IP80        0.0000
     47 H         -11.3157   -5.3871  -26.7232 H         4 IP80        0.0000
     48 H         -11.3886   -6.8785  -27.3202 H         4 IP80        0.0000
     49 H         -12.7126   -6.1837  -26.7282 H         4 IP80        0.0000
@<TRIPOS>BOND
     1    3    1 1
     2    5    1 1
     3    3    2 1
     4    4    2 1
     5    6    3 1
     6    7    3 1
     7    8    4 1
     8   10    9 1
     9   15    9 1
    10   11   10 1
    11   13   10 1
    12   16   10 1
    13   12   11 2
    14   14   13 1
    15   17   13 1
    16   18   13 1
    17   15   14 1
    18   19   14 1
    19   20   14 1
    20   21   15 1
    21   22   15 1
    22   24   23 1
    23   29   23 1
    24   25   24 1
    25   27   24 1
    26   30   24 1
    27   26   25 2
    28   28   25 2
    29   31   27 1
    30   32   27 1
    31   33   27 1
    32   37   34 ar
    33   36   35 1
    34   38   35 1
    35   43   35 1
    36   44   35 1
    37   37   36 1
    38   39   37 ar
    39   40   38 1
    40   45   38 1
    41   46   38 1
    42   41   40 1
    43   42   40 2
    44   47   41 1
    45   48   41 1
    46   49   41 1
    47   37    1 1 
    48    9    2 1 
    49   23   11 am
@<TRIPOS>SUBSTRUCTURE
     1 GLY1        1 RESIDUE
     2 PRO2        9 RESIDUE
     3 ALA3       23 RESIDUE
     4 IP80       34 GROUP
@<TRIPOS>SET

