#    Name: 4f9w_LM4_3_INTS_M
#    Modification time : Mon Mar 24 19:10:01 2014

@<TRIPOS>MOLECULE
4f9w_LM4_3_INTS_M
   72     0     6     0     0
SMALL
NO_CHARGES


@<TRIPOS>ATOM
      1 CA          1.4885    2.9265   21.7745 C.3       2 GLC5        0.0000 
      2 CA          0.9190    4.6690   22.6420 C.3       6 GLL5        0.0000 
      3 CA          2.0580    1.1840   20.9070 C.3       4 GLP5        0.0000 
      4 CA          1.5320    1.9415   22.5655 C.3       2 GLC5        0.0000 
      5 CA          1.0060    2.6990   24.2240 C.3       6 GLL5        0.0000 
      6 N          -2.7755    3.7660   19.5205 N.am      1 SEC2        0.0000 
      7 N          -2.0740    2.8890   20.4090 N.am      5 SEL2        0.0000 
      8 N          -3.4770    4.6430   18.6320 N.am      3 SEP2        0.0000 
      9 CA         -4.0985   -4.5895   21.8405 C.3       2 GLC5        0.0000 
     10 CA         -2.9900   -2.7250   21.3360 C.3       6 GLL5        0.0000 
     11 CA         -5.2070   -6.4540   22.3450 C.3       4 GLP5        0.0000 
     12 CA         -1.7705   -4.0380   22.0440 C.3       2 GLC5        0.0000 
     13 CA         -0.5510   -5.3510   22.7520 C.3       4 GLP5        0.0000 
     14 N          -3.1135   -4.4800   22.8620 N.am      1 SEC2        0.0000 
     15 N          -3.2780   -3.0900   22.6000 N.am      5 SEL2        0.0000 
     16 N          -2.9490   -5.8700   23.1240 N.am      3 SEP2        0.0000 
     17 CA         -4.9355   -2.3680   22.6045 C.3       2 GLC5        0.0000 
     18 CA         -3.2110   -2.2140   23.6120 C.3       6 GLL5        0.0000 
     19 CA         -6.6600   -2.5220   21.5970 C.3       4 GLP5        0.0000 
     20 CA         -4.6225   -3.4580   24.1385 C.3       2 GLC5        0.0000 
     21 CA         -6.0340   -4.7020   24.6650 C.3       4 GLP5        0.0000 
     22 CA         -1.8810   -3.7825   23.1820 C.3       2 GLC5        0.0000 
     23 CA         -1.2650    0.3915   18.8970 C.3       2 GLC5        0.0000 
     24 CA         -3.3100    1.1380   18.3760 C.3       6 GLL5        0.0000 
     25 CA          0.7800   -0.3550   19.4180 C.3       4 GLP5        0.0000 
     26 CA         -2.3285    1.9650   15.3810 C.3       2 GLC5        0.0000 
     27 CA         -3.9060    0.6010   16.1300 C.3       6 GLL5        0.0000 
     28 CA         -0.7510    3.3290   14.6320 C.3       4 GLP5        0.0000 
     29 CA          0.5900    1.6535   21.6780 C.3       2 GLC5        0.0000 
     30 CA         -1.1400    1.4870   22.5860 C.3       6 GLL5        0.0000 
     31 CA         -4.7022    2.4298   21.3272 C.3       2 GLC5        0.0000 
     32 CA         -2.6060    1.6870   20.6480 C.3       6 GLL5        0.0000 
     33 CA         -6.2890    3.4180   22.4720 C.3       4 GLP5        0.0000 
     34 CA         -3.9907    2.9313   19.1142 C.3       2 GLC5        0.0000 
     35 CA         -3.6250    1.1960   19.7170 C.3       6 GLL5        0.0000 
     36 CA         -4.8660    4.4210   18.0460 C.3       4 GLP5        0.0000 
     37 CA         -0.7987    0.4788   20.3120 C.3       2 GLC5        0.0000 
     38 CA         -0.9210   -0.6445   20.4935 C.3       2 GLC5        0.0000 
     39 CA         -2.6050   -0.4600   22.0800 C.3       6 GLL5        0.0000 
     40 CA         -4.7372   -2.2942   21.3970 C.3       2 GLC5        0.0000 
     41 CA         -2.6390   -1.4080   21.0580 C.3       6 GLL5        0.0000 
     42 CA         -1.8293   -2.6783   19.3975 C.3       2 GLC5        0.0000 
     43 CA         -0.8440   -3.2900   17.5980 C.3       4 GLP5        0.0000 
     44 CA         -3.7842   -2.6022   19.5135 C.3       2 GLC5        0.0000 
     45 CA         -4.7540   -3.1380   17.8300 C.3       4 GLP5        0.0000 
     46 CA         -4.4112   -1.2530   17.3150 C.3       2 GLC5        0.0000 
     47 CA         -4.3521    2.5859   17.5362 C.3       2 GLC5        0.0000 
     48 CA         -4.2310    0.6630   17.4700 C.3       6 GLL5        0.0000 
     49 CA         -4.2542    1.3502   13.9810 C.3       2 GLC5        0.0000 
     50 CA         -4.1410    2.3410   12.2920 C.3       4 GLP5        0.0000 
     51 CA         -2.9609   -0.7655   15.7645 C.3       2 GLC5        0.0000 
     52 CA         -4.8290    0.1180   15.2100 C.3       6 GLL5        0.0000 
     53 CA         -1.4730   -1.9060   15.5240 C.3       4 GLP5        0.0000 
     54 CA         -6.2073   -0.4725   13.6430 C.3       2 GLC5        0.0000 
     55 CA         -6.9580   -0.8420   11.8660 C.3       4 GLP5        0.0000 
     56 CA         -5.2923   -1.9055   15.9240 C.3       2 GLC5        0.0000 
     57 CA         -6.0840   -0.3240   15.6300 C.3       6 GLL5        0.0000 
     58 CA         -5.1280   -3.7080   16.4280 C.3       4 GLP5        0.0000 
     59 CA         -7.8892   -1.3220   16.0870 C.3       2 GLC5        0.0000 
     60 CA         -9.5400   -2.3650   15.8680 C.3       4 GLP5        0.0000 
     61 CA         -6.8335    1.6660   18.0457 C.3       2 GLC5        0.0000 
     62 CA         -6.3930   -0.2340   16.9820 C.3       6 GLL5        0.0000 
     63 CA         -7.7280    3.3210   18.6530 C.3       4 GLP5        0.0000 
     64 CA         -7.1894    0.8617   15.3145 C.3       2 GLC5        0.0000 
     65 CA         -8.4540    1.8920   14.4280 C.3       4 GLP5        0.0000 
     66 CA         -6.2077    0.8255   21.4423 C.3       2 GLC5        0.0000 
     67 CA         -5.8030    0.2970   19.2370 C.3       6 GLL5        0.0000 
     68 CA         -7.0760    1.1230   23.1890 C.3       4 GLP5        0.0000 
     69 CA         -5.9998   -0.9970   20.6463 C.3       2 GLC5        0.0000 
     70 CA         -4.8760    0.7590   20.1540 C.3       6 GLL5        0.0000 
     71 CA         -6.5337    1.9245   19.1743 C.3       2 GLC5        0.0000 
     72 CA         -5.3125   -1.4920   18.0839 C.3       2 GLC5        0.0000 
@<TRIPOS>BOND
@<TRIPOS>SUBSTRUCTURE
     1 SEC2        6 GROUP        1 X    SEC  0     ROOT SEC X 2
     2 GLC5        1 GROUP        1 X    GLC  0     **** GLC X 6
     3 SEP2        8 GROUP        1 Y    SEP  0     ROOT SEP Y 9
     4 GLP5        3 GROUP        1 Y    GLP  0     **** GLP Y 13
     5 SEL2        7 GROUP        1 Z    SEL  0     ROOT SEL Z 16
     6 GLL5        2 GROUP        1 Z    GLL  0     **** GLL Z 20
@<TRIPOS>SET

