#    Name: 4f9w_LM4_3_ligand
#    Modification time : Mon Mar 24 19:10:01 2014

@<TRIPOS>MOLECULE
4f9w_LM4_3_ligand
   43    46     1     0     0
SMALL
NO_CHARGES


@<TRIPOS>ATOM
      1 C3          0.9190    4.6690   22.6420 C.3       1 LM4403      0.0000 
      2 N2          0.4040    3.3730   23.0710 N.pl3     1 LM4403      0.0000 
      3 C1          1.0060    2.6990   24.2240 C.3       1 LM4403      0.0000 
      4 C4         -0.6160    2.7590   22.3120 C.ar      1 LM4403      0.0000 
      5 N9         -1.0820    3.4070   21.2270 N.ar      1 LM4403      0.0000 
      6 N8         -2.0740    2.8890   20.4090 N.ar      1 LM4403      0.0000 
      7 C7         -2.6060    1.6870   20.6480 C.ar      1 LM4403      0.0000 
      8 C6         -2.1490    0.9380   21.7640 C.ar      1 LM4403      0.0000 
      9 C10        -2.6050   -0.4600   22.0800 C.ar      1 LM4403      0.0000 
     10 C21        -2.6390   -1.4080   21.0580 C.ar      1 LM4403      0.0000 
     11 C20        -2.9900   -2.7250   21.3360 C.ar      1 LM4403      0.0000 
     12 N19        -3.2780   -3.0900   22.6000 N.ar      1 LM4403      0.0000 
     13 C18        -3.2110   -2.2140   23.6120 C.ar      1 LM4403      0.0000 
     14 C17        -2.8520   -0.8950   23.3940 C.ar      1 LM4403      0.0000 
     15 C5         -1.1400    1.4870   22.5860 C.ar      1 LM4403      0.0000 
     16 C11        -3.6250    1.1960   19.7170 C.ar      1 LM4403      0.0000 
     17 C16        -3.3100    1.1380   18.3760 C.ar      1 LM4403      0.0000 
     18 C15        -4.2310    0.6630   17.4700 C.ar      1 LM4403      0.0000 
     19 C25        -3.9060    0.6010   16.1300 C.ar      1 LM4403      0.0000 
     20 C24        -4.8290    0.1180   15.2100 C.ar      1 LM4403      0.0000 
     21 C23        -6.0840   -0.3240   15.6300 C.ar      1 LM4403      0.0000 
     22 C22        -6.3930   -0.2340   16.9820 C.ar      1 LM4403      0.0000 
     23 C14        -5.4850    0.2560   17.8950 C.ar      1 LM4403      0.0000 
     24 C13        -5.8030    0.2970   19.2370 C.ar      1 LM4403      0.0000 
     25 C12        -4.8760    0.7590   20.1540 C.ar      1 LM4403      0.0000 
     26 H          -2.4034   -1.1309   20.0953 H         1 LM4403      0.0000 
     27 H          -3.0241   -3.4080   20.5593 H         1 LM4403      0.0000 
     28 H          -3.4299   -2.5129   24.5898 H         1 LM4403      0.0000 
     29 H          -2.7650   -0.2385   24.1711 H         1 LM4403      0.0000 
     30 H          -0.7915    0.9493   23.3864 H         1 LM4403      0.0000 
     31 H          -2.3804    1.4520   18.0514 H         1 LM4403      0.0000 
     32 H          -2.9779    0.9125   15.8066 H         1 LM4403      0.0000 
     33 H          -4.5866    0.0850   14.2080 H         1 LM4403      0.0000 
     34 H          -6.7513   -0.7006   14.9644 H         1 LM4403      0.0000 
     35 H          -7.3315   -0.5446   17.3064 H         1 LM4403      0.0000 
     36 H          -6.7316   -0.0165   19.5582 H         1 LM4403      0.0000 
     37 H          -5.1031    0.7824   21.1560 H         1 LM4403      0.0000 
     38 H           1.8852    4.6194   22.3889 H         1 LM4403      0.0000 
     39 H           0.4252    5.0200   21.8464 H         1 LM4403      0.0000 
     40 H           0.8399    5.3573   23.3631 H         1 LM4403      0.0000 
     41 H           1.9786    2.5157   24.0809 H         1 LM4403      0.0000 
     42 H           0.9306    3.2482   25.0563 H         1 LM4403      0.0000 
     43 H           0.5667    1.8205   24.4117 H         1 LM4403      0.0000 
@<TRIPOS>BOND
     1    2    1 1    
     2   38    1 1    
     3   39    1 1    
     4   40    1 1    
     5    3    2 1    
     6    4    2 1    
     7   41    3 1    
     8   42    3 1    
     9   43    3 1    
    10    5    4 ar   
    11   15    4 ar   
    12    6    5 ar   
    13    7    6 ar   
    14    8    7 ar   
    15   16    7 1    
    16    9    8 1    
    17   15    8 ar   
    18   10    9 ar   
    19   14    9 ar   
    20   11   10 ar   
    21   26   10 1    
    22   12   11 ar   
    23   27   11 1    
    24   13   12 ar   
    25   14   13 ar   
    26   28   13 1    
    27   29   14 1    
    28   30   15 1    
    29   17   16 ar   
    30   25   16 ar   
    31   18   17 ar   
    32   31   17 1    
    33   19   18 ar   
    34   23   18 ar   
    35   20   19 ar   
    36   32   19 1    
    37   21   20 ar   
    38   33   20 1    
    39   22   21 ar   
    40   34   21 1    
    41   23   22 ar   
    42   35   22 1    
    43   24   23 ar   
    44   25   24 ar   
    45   36   24 1    
    46   37   25 1    
@<TRIPOS>SUBSTRUCTURE
     1 LM4403      1 GROUP   
@<TRIPOS>SET

