#    Name: 3pch_CHB_8_INTS_M
#    Modification time : Tue Mar 25 06:14:45 2014

@<TRIPOS>MOLECULE
3pch_CHB_8_INTS_M
   26     0     6     0     0
SMALL
NO_CHARGES


@<TRIPOS>ATOM
      1 CA        -27.3490  -23.7100   22.8400 C.3       2 GLC5        0.0000 
      2 CA        -27.4850  -23.5300   24.8290 C.3       6 GLL5        0.0000 
      3 CA        -27.2130  -23.8900   20.8510 C.3       4 GLP5        0.0000 
      4 CA        -30.7915  -21.4535   24.5845 C.3       2 GLC5        0.0000 
      5 CA        -28.9760  -21.2900   25.3760 C.3       6 GLL5        0.0000 
      6 CA        -32.6070  -21.6170   23.7930 C.3       4 GLP5        0.0000 
      7 O         -30.9045  -21.5890   26.3675 O.2       1 ALC1        0.0000 
      8 O         -29.9320  -22.1800   25.8000 O.2       5 ALL1        0.0000 
      9 O         -31.8770  -20.9980   26.9350 O.2       3 ALP1        0.0000 
     10 CA        -29.9875  -20.5295   27.2465 C.3       2 GLC5        0.0000 
     11 CA        -29.1770  -19.9050   25.4510 C.3       6 GLL5        0.0000 
     12 CA        -30.7980  -21.1540   29.0420 C.3       4 GLP5        0.0000 
     13 CA        -28.2250  -18.3485   23.1315 C.3       2 GLC5        0.0000 
     14 CA        -28.1500  -19.0430   25.0380 C.3       6 GLL5        0.0000 
     15 CA        -28.3000  -17.6540   21.2250 C.3       4 GLP5        0.0000 
     16 CA        -25.4183  -20.6017   25.9240 C.3       2 GLC5        0.0000 
     17 CA        -26.9190  -19.5530   24.5800 C.3       6 GLL5        0.0000 
     18 CA        -24.0070  -20.9560   27.3130 C.3       4 GLP5        0.0000 
     19 CA        -27.1303  -19.5422   22.7160 C.3       2 GLC5        0.0000 
     20 CA        -26.7400  -20.9420   24.4900 C.3       6 GLL5        0.0000 
     21 CA        -27.4310  -18.8370   20.8970 C.3       4 GLP5        0.0000 
     22 CA        -28.2566  -22.4944   26.9574 C.3       2 GLC5        0.0000 
     23 CA        -27.7600  -21.7890   24.8780 C.3       6 GLL5        0.0000 
     24 CA        -28.2140  -23.0140   28.8000 C.3       4 GLP5        0.0000 
     25 CA        -30.3388  -19.0005   24.1657 C.3       2 GLC5        0.0000 
     26 CA        -32.0140  -18.5270   23.0870 C.3       4 GLP5        0.0000 
@<TRIPOS>BOND
@<TRIPOS>SUBSTRUCTURE
     1 ALC1        7 GROUP        1 X    ALC  0     ROOT ALC X 1
     2 GLC5        1 GROUP        1 X    GLC  0     **** GLC X 6
     3 ALP1        9 GROUP        1 Y    ALP  0     ROOT ALP Y 8
     4 GLP5        3 GROUP        1 Y    GLP  0     **** GLP Y 13
     5 ALL1        8 GROUP        1 Z    ALL  0     ROOT ALL Z 15
     6 GLL5        2 GROUP        1 Z    GLL  0     **** GLL Z 20
@<TRIPOS>SET

