#    Name: 3pch_CHB_8_ligand
#    Modification time : Tue Mar 25 06:14:45 2014

@<TRIPOS>MOLECULE
3pch_CHB_8_ligand
   15    15     1     0     0
SMALL
NO_CHARGES


@<TRIPOS>ATOM
      1 C1        -26.9190  -19.5530   24.5800 C.ar      1 CHB551      0.0000 
      2 C2        -26.7400  -20.9420   24.4900 C.ar      1 CHB551      0.0000 
      3 C3        -27.7600  -21.7890   24.8780 C.ar      1 CHB551      0.0000 
      4 CL3       -27.4850  -23.5300   24.8290 Cl        1 CHB551      0.0000 
      5 C4        -28.9760  -21.2900   25.3760 C.ar      1 CHB551      0.0000 
      6 O4        -29.9320  -22.1800   25.8000 O.3       1 CHB551      0.0000 
      7 C5        -29.1770  -19.9050   25.4510 C.ar      1 CHB551      0.0000 
      8 C6        -28.1500  -19.0430   25.0380 C.ar      1 CHB551      0.0000 
      9 C7        -25.7940  -18.5990   24.1230 C.2       1 CHB551      0.0000 
     10 O1        -24.7410  -19.0680   23.6830 O.co2     1 CHB551      0.0000 
     11 O2        -25.9350  -17.3690   24.1840 O.co2     1 CHB551      0.0000 
     12 H         -25.8533  -21.3164   24.1369 H         1 CHB551      0.0000 
     13 H         -30.0562  -19.5288   25.8004 H         1 CHB551      0.0000 
     14 H         -28.2951  -18.0246   25.0690 H         1 CHB551      0.0000 
     15 H         -30.7932  -21.6733   25.7594 H         1 CHB551      0.0000 
@<TRIPOS>BOND
     1    2    1 ar   
     2    8    1 ar   
     3    9    1 1    
     4    3    2 ar   
     5   12    2 1    
     6    4    3 1    
     7    5    3 ar   
     8    6    5 1    
     9    7    5 ar   
    10   15    6 1    
    11    8    7 ar   
    12   13    7 1    
    13   14    8 1    
    14   10    9 ar   
    15   11    9 ar   
@<TRIPOS>SUBSTRUCTURE
     1 CHB551      1 GROUP   
@<TRIPOS>SET

