#    Name: 3q5i_ANP_1_INTS_M
#    Modification time : Tue Mar 25 08:55:41 2014

@<TRIPOS>MOLECULE
3q5i_ANP_1_INTS_M
   50     0    18     0     0
SMALL
NO_CHARGES


@<TRIPOS>ATOM
      1 NZ         -8.5240  -16.3535  -33.8700 N.4       4 LYC4        0.0000 
      2 NZ         -7.0940  -16.4990  -34.4510 N.4      16 LYL4        0.0000 
      3 NZ         -9.9540  -16.2080  -33.2890 N.4      10 LYP4        0.0000 
      4 N          -8.5240  -16.3535  -33.8700 N.am      2 SEC2        0.0000 
      5 N          -7.0940  -16.4990  -34.4510 N.am     14 SEL2        0.0000 
      6 N          -9.9540  -16.2080  -33.2890 N.am      8 SEP2        0.0000 
      7 Zn         -9.6915  -19.6525  -36.9745 Zn        5 ZIC7        0.0000 
      8 Zn         -9.2900  -18.7660  -37.3600 Zn       17 ZIL7        0.0000 
      9 Zn        -10.0930  -20.5390  -36.5890 Zn       11 ZIP7        0.0000 
     10 OD1        -8.7100  -18.0045  -35.5560 O.co2     3 ASC3        0.0000 
     11 OD1        -8.4280  -16.3860  -36.6790 O.co2    15 ASL3        0.0000 
     12 OD1        -8.9920  -19.6230  -34.4330 O.co2     9 ASP3        0.0000 
     13 CA         -4.8555  -12.2580  -40.1155 C.3       6 GLC5        0.0000 
     14 CA         -4.5480  -13.8880  -38.8560 C.3      18 GLL5        0.0000 
     15 CA         -5.1630  -10.6280  -41.3750 C.3      12 GLP5        0.0000 
     16 O          -1.5770  -15.5100  -39.8285 O.2       1 ALC1        0.0000 
     17 O          -2.1580  -14.0610  -39.6180 O.2      13 ALL1        0.0000 
     18 O          -0.9960  -16.9590  -40.0390 O.2       7 ALP1        0.0000 
     19 O          -1.2250  -15.9910  -38.6475 O.2       1 ALC1        0.0000 
     20 O          -1.4540  -15.0230  -37.2560 O.2      13 ALL1        0.0000 
     21 CA         -2.9185  -10.9825  -37.4505 C.3       6 GLC5        0.0000 
     22 CA         -3.0330  -13.1610  -37.0990 C.3      18 GLL5        0.0000 
     23 CA         -2.8040   -8.8040  -37.8020 C.3      12 GLP5        0.0000 
     24 CA         -4.3710  -11.6860  -36.2340 C.3       6 GLC5        0.0000 
     25 CA         -5.7090  -10.2110  -35.3690 C.3      12 GLP5        0.0000 
     26 CA         -0.8995  -10.8780  -31.0870 C.3       6 GLC5        0.0000 
     27 CA         -1.8530  -12.3760  -32.3330 C.3      18 GLL5        0.0000 
     28 CA          0.0540   -9.3800  -29.8410 C.3      12 GLP5        0.0000 
     29 O          -1.9415  -12.0115  -29.9095 O.2       1 ALC1        0.0000 
     30 O          -2.3400  -12.5920  -31.0990 O.2      13 ALL1        0.0000 
     31 O          -1.5430  -11.4310  -28.7200 O.2       7 ALP1        0.0000 
     32 N           0.4685  -11.3830  -31.7000 N.am      2 SEC2        0.0000 
     33 N          -0.6850  -11.7830  -32.5780 N.am     14 SEL2        0.0000 
     34 N           1.6220  -10.9830  -30.8220 N.am      8 SEP2        0.0000 
     35 CA         -1.1125   -9.9605  -34.6585 C.3       6 GLC5        0.0000 
     36 CA         -0.2390  -11.6030  -33.8310 C.3      18 GLL5        0.0000 
     37 CA         -1.9860   -8.3180  -35.4860 C.3      12 GLP5        0.0000 
     38 CA          1.3515  -11.6285  -32.4360 C.3       6 GLC5        0.0000 
     39 CA          2.9420  -11.6540  -31.0410 C.3      12 GLP5        0.0000 
     40 CA         -0.1970  -13.3710  -33.6515 C.3       6 GLC5        0.0000 
     41 CA         -0.1550  -15.1390  -33.4720 C.3      12 GLP5        0.0000 
     42 CA         -2.0560  -10.4440  -35.1380 C.3       6 GLC5        0.0000 
     43 CA         -2.1260  -12.5700  -34.7900 C.3      18 GLL5        0.0000 
     44 CA         -6.3230  -13.0770  -37.4865 C.3       6 GLC5        0.0000 
     45 CA         -7.4990  -11.7620  -36.2150 C.3      12 GLP5        0.0000 
     46 CA         -4.0465  -11.4505  -34.7435 C.3       6 GLC5        0.0000 
     47 CA         -2.9728  -10.9410  -32.2858 C.3       6 GLC5        0.0000 
     48 CA         -2.6420  -12.8100  -33.4460 C.3      18 GLL5        0.0000 
     49 CA         -3.6980   -9.2890  -31.6820 C.3      12 GLP5        0.0000 
     50 CA         -1.1709  -13.8603  -33.6559 C.3       6 GLC5        0.0000 
@<TRIPOS>BOND
@<TRIPOS>SUBSTRUCTURE
     1 ALC1       16 GROUP        1 X    ALC  0     ROOT ALC X 1
     2 SEC2        4 GROUP        1 X    SEC  0     **** SEC X 2
     3 ASC3       10 GROUP        1 X    ASC  0     **** ASC X 3
     4 LYC4        1 GROUP        1 X    LYC  0     **** LYC X 4
     5 ZIC7        7 GROUP        1 X    ZIC  0     **** ZIC X 5
     6 GLC5       13 GROUP        1 X    GLC  0     **** GLC X 6
     7 ALP1       18 GROUP        1 Y    ALP  0     ROOT ALP Y 8
     8 SEP2        6 GROUP        1 Y    SEP  0     **** SEP Y 9
     9 ASP3       12 GROUP        1 Y    ASP  0     **** ASP Y 10
    10 LYP4        3 GROUP        1 Y    LYP  0     **** LYP Y 11
    11 ZIP7        9 GROUP        1 Y    ZIP  0     **** ZIP Y 12
    12 GLP5       15 GROUP        1 Y    GLP  0     **** GLP Y 13
    13 ALL1       17 GROUP        1 Z    ALL  0     ROOT ALL Z 15
    14 SEL2        5 GROUP        1 Z    SEL  0     **** SEL Z 16
    15 ASL3       11 GROUP        1 Z    ASL  0     **** ASL Z 17
    16 LYL4        2 GROUP        1 Z    LYL  0     **** LYL Z 18
    17 ZIL7        8 GROUP        1 Z    ZIL  0     **** ZIL Z 19
    18 GLL5       14 GROUP        1 Z    GLL  0     **** GLL Z 20
@<TRIPOS>SET

