#    Name: 3q5i_ANP_1_ligand
#    Modification time : Tue Mar 25 08:55:41 2014

@<TRIPOS>MOLECULE
3q5i_ANP_1_ligand
   43    45     1     0     0
SMALL
NO_CHARGES


@<TRIPOS>ATOM
      1 PG         -6.8760  -16.4230  -35.9530 P.3       1 ANP1634     0.0000 
      2 O1G        -7.0940  -16.4990  -34.4510 O.co2     1 ANP1634     0.0000 
      3 O2G        -5.9960  -17.5820  -36.5170 O.co2     1 ANP1634     0.0000 
      4 O3G        -6.4280  -15.0060  -36.2120 O.co2     1 ANP1634     0.0000 
      5 PB         -8.7600  -17.4750  -37.9530 P.3       1 ANP1634     0.0000 
      6 O1B        -9.2900  -18.7660  -37.3600 O.co2     1 ANP1634     0.0000 
      7 O2B        -9.6970  -16.7380  -38.9170 O.co2     1 ANP1634     0.0000 
      8 N3B        -8.4280  -16.3860  -36.6790 N.4       1 ANP1634     0.0000 
      9 PA         -6.9320  -16.9170  -40.0750 P.3       1 ANP1634     0.0000 
     10 O1A        -5.5480  -17.2540  -40.6290 O.co2     1 ANP1634     0.0000 
     11 O2A        -8.0580  -17.3070  -41.0700 O.co2     1 ANP1634     0.0000 
     12 O3A        -7.3460  -17.7610  -38.7560 O.3       1 ANP1634     0.0000 
     13 O5'        -6.7500  -15.3140  -39.6790 O.3       1 ANP1634     0.0000 
     14 C5'        -5.7460  -14.8960  -38.6600 C.3       1 ANP1634     0.0000 
     15 C4'        -4.5480  -13.8880  -38.8560 C.3       1 ANP1634     0.0000 
     16 O4'        -4.2740  -12.8710  -37.7830 O.3       1 ANP1634     0.0000 
     17 C3'        -3.2190  -14.6980  -38.8870 C.3       1 ANP1634     0.0000 
     18 O3'        -2.1580  -14.0610  -39.6180 O.3       1 ANP1634     0.0000 
     19 C2'        -2.8310  -14.6380  -37.4490 C.3       1 ANP1634     0.0000 
     20 O2'        -1.4540  -15.0230  -37.2560 O.3       1 ANP1634     0.0000 
     21 C1'        -3.0330  -13.1610  -37.0990 C.3       1 ANP1634     0.0000 
     22 N9         -3.0390  -13.0890  -35.6120 N.pl3     1 ANP1634     0.0000 
     23 C8         -4.0370  -13.6020  -34.8330 C.2       1 ANP1634     0.0000 
     24 N7         -3.8080  -13.4320  -33.5290 N.2       1 ANP1634     0.0000 
     25 C5         -2.6420  -12.8100  -33.4460 C.ar      1 ANP1634     0.0000 
     26 C6         -1.8530  -12.3760  -32.3330 C.ar      1 ANP1634     0.0000 
     27 N6         -2.3400  -12.5920  -31.0990 N.pl3     1 ANP1634     0.0000 
     28 N1         -0.6850  -11.7830  -32.5780 N.ar      1 ANP1634     0.0000 
     29 C2         -0.2390  -11.6030  -33.8310 C.ar      1 ANP1634     0.0000 
     30 N3         -0.9160  -11.9620  -34.9120 N.ar      1 ANP1634     0.0000 
     31 C4         -2.1260  -12.5700  -34.7900 C.ar      1 ANP1634     0.0000 
     32 H          -5.2660  -15.8549  -38.2027 H         1 ANP1634     0.0000 
     33 H          -6.3164  -14.5124  -37.7185 H         1 ANP1634     0.0000 
     34 H          -4.6253  -13.4112  -39.8121 H         1 ANP1634     0.0000 
     35 H          -3.4188  -15.6773  -39.1502 H         1 ANP1634     0.0000 
     36 H          -3.5125  -15.2068  -36.8745 H         1 ANP1634     0.0000 
     37 H          -2.2140  -12.6393  -37.5189 H         1 ANP1634     0.0000 
     38 H          -4.8380  -14.0491  -35.2112 H         1 ANP1634     0.0000 
     39 H          -3.2183  -13.0675  -31.0496 H         1 ANP1634     0.0000 
     40 H          -1.7805  -12.2579  -30.3405 H         1 ANP1634     0.0000 
     41 H           0.7211  -11.1416  -33.9571 H         1 ANP1634     0.0000 
     42 H          -1.5771  -14.8101  -39.9362 H         1 ANP1634     0.0000 
     43 H          -1.2311  -15.5919  -38.0476 H         1 ANP1634     0.0000 
@<TRIPOS>BOND
     1    2    1 ar   
     2    3    1 ar   
     3    4    1 ar   
     4    8    1 1    
     5    6    5 ar   
     6    7    5 ar   
     7    8    5 1    
     8   12    5 1    
     9   10    9 ar   
    10   11    9 ar   
    11   12    9 1    
    12   13    9 1    
    13   14   13 1    
    14   15   14 1    
    15   32   14 1    
    16   33   14 1    
    17   16   15 1    
    18   17   15 1    
    19   34   15 1    
    20   21   16 1    
    21   18   17 1    
    22   19   17 1    
    23   35   17 1    
    24   42   18 1    
    25   20   19 1    
    26   21   19 1    
    27   36   19 1    
    28   43   20 1    
    29   22   21 1    
    30   37   21 1    
    31   23   22 1    
    32   31   22 1    
    33   24   23 2    
    34   38   23 1    
    35   25   24 1    
    36   26   25 ar   
    37   31   25 ar   
    38   27   26 1    
    39   28   26 ar   
    40   39   27 1    
    41   40   27 1    
    42   29   28 ar   
    43   30   29 ar   
    44   41   29 1    
    45   31   30 ar   
@<TRIPOS>SUBSTRUCTURE
     1 ANP1634     1 GROUP   
@<TRIPOS>SET

