#    Name: 3sxs_PP2_1_INTS_M
#    Modification time : Mon Mar 24 18:50:14 2014

@<TRIPOS>MOLECULE
3sxs_PP2_1_INTS_M
   69     0     9     0     0
SMALL
NO_CHARGES


@<TRIPOS>ATOM
      1 CA         19.0835   21.2300   17.0310 C.3       3 GLC5        0.0000 
      2 CA         20.7650   20.5070   17.6960 C.3       9 GLL5        0.0000 
      3 CA         17.4020   21.9530   16.3660 C.3       6 GLP5        0.0000 
      4 CA         23.5900   21.5325   18.0105 C.3       3 GLC5        0.0000 
      5 CA         21.9630   22.0750   16.6210 C.3       9 GLL5        0.0000 
      6 CA         25.2170   20.9900   19.4000 C.3       6 GLP5        0.0000 
      7 CA         23.2840   20.3055   16.3155 C.3       3 GLC5        0.0000 
      8 CA         24.6050   18.5360   16.0100 C.3       6 GLP5        0.0000 
      9 CA         22.2185   23.1195   14.8735 C.3       3 GLC5        0.0000 
     10 CA         22.4740   24.1640   13.1260 C.3       6 GLP5        0.0000 
     11 CA         20.1400   21.4075   15.5405 C.3       3 GLC5        0.0000 
     12 CA         18.3170   20.7400   14.4600 C.3       6 GLP5        0.0000 
     13 N          22.8295   22.1785   14.5160 N.am      2 SEC2        0.0000 
     14 N          22.2310   21.2700   15.5570 N.am      8 SEL2        0.0000 
     15 N          23.4280   23.0870   13.4750 N.am      5 SEP2        0.0000 
     16 CA         21.3945   21.7760   14.1725 C.3       3 GLC5        0.0000 
     17 CA         21.7030   20.0160   15.5110 C.3       9 GLL5        0.0000 
     18 CA         21.0860   23.5360   12.8340 C.3       6 GLP5        0.0000 
     19 CA         22.4240   18.4630   16.5240 C.3       3 GLC5        0.0000 
     20 CA         20.2430   18.3900   17.0380 C.3       9 GLL5        0.0000 
     21 CA         19.2800   19.5650   15.7490 C.3       3 GLC5        0.0000 
     22 CA         20.7440   16.5075   18.3195 C.3       3 GLC5        0.0000 
     23 CA         20.2280   17.0190   16.3950 C.3       9 GLL5        0.0000 
     24 CA         21.2600   15.9960   20.2440 C.3       6 GLP5        0.0000 
     25 CA         21.6130   13.5995   17.0220 C.3       3 GLC5        0.0000 
     26 CA         21.3080   14.9150   15.7310 C.3       9 GLL5        0.0000 
     27 CA         21.9180   12.2840   18.3130 C.3       6 GLP5        0.0000 
     28 CA         22.2525   16.8630   17.8715 C.3       3 GLC5        0.0000 
     29 CA         21.3690   16.2200   16.2230 C.3       9 GLL5        0.0000 
     30 CA         23.1360   17.5060   19.5200 C.3       6 GLP5        0.0000 
     31 CA         22.9870   17.3780   16.1165 C.3       3 GLC5        0.0000 
     32 CA         19.0790   23.6935   18.8215 C.3       3 GLC5        0.0000 
     33 CA         18.6900   21.7690   19.7300 C.3       9 GLL5        0.0000 
     34 CA         19.4680   25.6180   17.9130 C.3       6 GLP5        0.0000 
     35 CA         17.0470   22.9195   19.8340 C.3       3 GLC5        0.0000 
     36 CA         15.4040   24.0700   19.9380 C.3       6 GLP5        0.0000 
     37 CA         22.4815   20.9555   21.2240 C.3       3 GLC5        0.0000 
     38 CA         20.7920   20.7680   20.7850 C.3       9 GLL5        0.0000 
     39 CA         24.1710   21.1430   21.6630 C.3       6 GLP5        0.0000 
     40 CA         21.0125   20.3185   22.8080 C.3       3 GLC5        0.0000 
     41 CA         21.2330   19.8690   24.8310 C.3       6 GLP5        0.0000 
     42 CA         21.9640   19.1370   20.1525 C.3       3 GLC5        0.0000 
     43 CA         19.9375   17.7370   20.4775 C.3       3 GLC5        0.0000 
     44 CA         18.6150   19.4780   20.7110 C.3       9 GLL5        0.0000 
     45 O          22.8270   19.4540   13.3840 O.2       1 ALC1        0.0000 
     46 O          21.8540   19.2320   14.4220 O.2       7 ALL1        0.0000 
     47 O          23.8000   19.6760   12.3460 O.2       4 ALP1        0.0000 
     48 CA         19.4655   13.0590   16.7570 C.3       3 GLC5        0.0000 
     49 CA         19.9590   12.7680   14.8570 C.3       9 GLL5        0.0000 
     50 CA         18.9720   13.3500   18.6570 C.3       6 GLP5        0.0000 
     51 CA         19.5255   12.9880   12.8270 C.3       3 GLC5        0.0000 
     52 CA         19.0920   13.2080   10.7970 C.3       6 GLP5        0.0000 
     53 CA         21.0920   11.5485   14.1560 C.3       3 GLC5        0.0000 
     54 CA         22.2250   10.3290   13.4550 C.3       6 GLP5        0.0000 
     55 CA         21.1020   13.6410   13.5750 C.3       3 GLC5        0.0000 
     56 CA         22.2450   14.5140   12.2930 C.3       6 GLP5        0.0000 
     57 CA         18.2610   12.0640   14.4590 C.3       3 GLC5        0.0000 
     58 CA         16.5630   11.3600   14.0610 C.3       6 GLP5        0.0000 
     59 CA         22.9700   19.1562   16.0512 C.3       3 GLC5        0.0000 
     60 CA         20.9670   19.5370   16.6740 C.3       9 GLL5        0.0000 
     61 CA         19.8260   20.2583   15.2763 C.3       3 GLC5        0.0000 
     62 CA         21.8453   18.3560   18.3158 C.3       3 GLC5        0.0000 
     63 CA         19.2150   14.0595   17.0988 C.3       3 GLC5        0.0000 
     64 CA         18.8710   15.1390   15.6260 C.3       9 GLL5        0.0000 
     65 CA         19.7268   14.9123   17.4514 C.3       3 GLC5        0.0000 
     66 CA         21.6339   14.9763   14.1005 C.3       3 GLC5        0.0000 
     67 CA         20.0450   14.3990   15.4550 C.3       9 GLL5        0.0000 
     68 CA         18.2530   21.5412   18.1090 C.3       3 GLC5        0.0000 
     69 CA         19.5180   20.4900   19.9740 C.3       9 GLL5        0.0000 
@<TRIPOS>BOND
@<TRIPOS>SUBSTRUCTURE
     1 ALC1       45 GROUP        1 X    ALC  0     ROOT ALC X 1
     2 SEC2       13 GROUP        1 X    SEC  0     **** SEC X 2
     3 GLC5        1 GROUP        1 X    GLC  0     **** GLC X 6
     4 ALP1       47 GROUP        1 Y    ALP  0     ROOT ALP Y 8
     5 SEP2       15 GROUP        1 Y    SEP  0     **** SEP Y 9
     6 GLP5        3 GROUP        1 Y    GLP  0     **** GLP Y 13
     7 ALL1       46 GROUP        1 Z    ALL  0     ROOT ALL Z 15
     8 SEL2       14 GROUP        1 Z    SEL  0     **** SEL Z 16
     9 GLL5        2 GROUP        1 Z    GLL  0     **** GLL Z 20
@<TRIPOS>SET

