#    Name: 3sxs_PP2_1_ligand
#    Modification time : Mon Mar 24 18:50:14 2014

@<TRIPOS>MOLECULE
3sxs_PP2_1_ligand
   38    40     1     0     0
SMALL
NO_CHARGES


@<TRIPOS>ATOM
      1 C1         20.7650   20.5070   17.6960 C.ar      1 PP21        0.0000 
      2 N2         21.2770   21.7980   17.7410 N.ar      1 PP21        0.0000 
      3 C3         21.9630   22.0750   16.6210 C.ar      1 PP21        0.0000 
      4 N4         22.2310   21.2700   15.5570 N.ar      1 PP21        0.0000 
      5 C5         21.7030   20.0160   15.5110 C.ar      1 PP21        0.0000 
      6 C6         20.9670   19.5370   16.6740 C.ar      1 PP21        0.0000 
      7 C8         20.2430   18.3900   17.0380 C.2       1 PP21        0.0000 
      8 N9         19.7170   18.6050   18.2290 N.pl3     1 PP21        0.0000 
      9 N10        19.9880   19.8740   18.6930 N.pl3     1 PP21        0.0000 
     10 C11        20.2280   17.0190   16.3950 C.ar      1 PP21        0.0000 
     11 C12        18.9600   16.4390   16.1420 C.ar      1 PP21        0.0000 
     12 C13        18.8710   15.1390   15.6260 C.ar      1 PP21        0.0000 
     13 C14        20.0450   14.3990   15.4550 C.ar      1 PP21        0.0000 
     14 C15        21.3080   14.9150   15.7310 C.ar      1 PP21        0.0000 
     15 C16        21.3690   16.2200   16.2230 C.ar      1 PP21        0.0000 
     16 C22        19.5180   20.4900   19.9740 C.3       1 PP21        0.0000 
     17 C23        18.6900   21.7690   19.7300 C.3       1 PP21        0.0000 
     18 C24        20.7920   20.7680   20.7850 C.3       1 PP21        0.0000 
     19 C25        18.6150   19.4780   20.7110 C.3       1 PP21        0.0000 
     20 N25        21.8540   19.2320   14.4220 N.pl3     1 PP21        0.0000 
     21 CL         19.9590   12.7680   14.8570 Cl        1 PP21        0.0000 
     22 H          22.3702   23.0993   16.5460 H         1 PP21        0.0000 
     23 H          19.1864   17.9537   18.7523 H         1 PP21        0.0000 
     24 H          18.1118   16.9761   16.3388 H         1 PP21        0.0000 
     25 H          17.9673   14.7420   15.3806 H         1 PP21        0.0000 
     26 H          22.1430   14.3718   15.5828 H         1 PP21        0.0000 
     27 H          22.2999   16.6208   16.4742 H         1 PP21        0.0000 
     28 H          22.3310   19.6442   13.6458 H         1 PP21        0.0000 
     29 H          21.4754   18.3088   14.4885 H         1 PP21        0.0000 
     30 H          19.2185   22.4671   19.2469 H         1 PP21        0.0000 
     31 H          17.8756   21.5849   19.1796 H         1 PP21        0.0000 
     32 H          18.3780   22.1786   20.5872 H         1 PP21        0.0000 
     33 H          21.3067   19.9302   20.9668 H         1 PP21        0.0000 
     34 H          21.4085   21.3926   20.3056 H         1 PP21        0.0000 
     35 H          20.5851   21.1830   21.6710 H         1 PP21        0.0000 
     36 H          19.1023   18.6308   20.9225 H         1 PP21        0.0000 
     37 H          18.2757   19.8450   21.5771 H         1 PP21        0.0000 
     38 H          17.8152   19.2277   20.1653 H         1 PP21        0.0000 
@<TRIPOS>BOND
     1    2    1 ar   
     2    6    1 ar   
     3    9    1 1    
     4    3    2 ar   
     5    4    3 ar   
     6   22    3 1    
     7    5    4 ar   
     8    6    5 ar   
     9   20    5 1    
    10    7    6 1    
    11    8    7 2    
    12   10    7 1    
    13    9    8 1    
    14   23    8 1    
    15   16    9 1    
    16   11   10 ar   
    17   15   10 ar   
    18   12   11 ar   
    19   24   11 1    
    20   13   12 ar   
    21   25   12 1    
    22   14   13 ar   
    23   21   13 1    
    24   15   14 ar   
    25   26   14 1    
    26   27   15 1    
    27   17   16 1    
    28   18   16 1    
    29   19   16 1    
    30   30   17 1    
    31   31   17 1    
    32   32   17 1    
    33   33   18 1    
    34   34   18 1    
    35   35   18 1    
    36   36   19 1    
    37   37   19 1    
    38   38   19 1    
    39   28   20 1    
    40   29   20 1    
@<TRIPOS>SUBSTRUCTURE
     1 PP21        1 GROUP   
@<TRIPOS>SET

