#    Name: 4da6_GA2_1_INTS_M
#    Modification time : Mon Apr  7 22:26:59 2014

@<TRIPOS>MOLECULE
4da6_GA2_1_INTS_M
   32     0     9     0     0
SMALL
NO_CHARGES


@<TRIPOS>ATOM
      1 CA        -52.9150   20.6350   22.9725 C.3       3 GLC5        0.0000 
      2 CA        -51.4450   20.6880   24.4130 C.3       9 GLL5        0.0000 
      3 CA        -54.3850   20.5820   21.5320 C.3       6 GLP5        0.0000 
      4 CA        -47.5690   22.0130   19.6785 C.3       3 GLC5        0.0000 
      5 CA        -49.4870   21.3080   20.5370 C.3       9 GLL5        0.0000 
      6 CA        -45.6510   22.7180   18.8200 C.3       6 GLP5        0.0000 
      7 CA        -50.6790   22.5980   20.5865 C.3       3 GLC5        0.0000 
      8 CA        -51.8710   23.8880   20.6360 C.3       6 GLP5        0.0000 
      9 O         -50.0550   20.3065   18.7765 O.2       1 ALC1        0.0000 
     10 O         -48.6390   20.6050   19.6400 O.2       7 ALL1        0.0000 
     11 O         -51.4710   20.0080   17.9130 O.2       4 ALP1        0.0000 
     12 O         -49.2080   20.9445   18.4565 O.2       1 ALC1        0.0000 
     13 O         -49.7770   21.2840   17.2730 O.2       4 ALP1        0.0000 
     14 CA        -46.2700   22.4950   21.2755 C.3       3 GLC5        0.0000 
     15 CA        -47.5940   21.7150   22.1540 C.3       9 GLL5        0.0000 
     16 CA        -44.9460   23.2750   20.3970 C.3       6 GLP5        0.0000 
     17 CA        -48.4765   23.0990   23.6760 C.3       3 GLC5        0.0000 
     18 CA        -49.3590   24.4830   25.1980 C.3       6 GLP5        0.0000 
     19 CA        -52.3210   19.3155   21.6960 C.3       3 GLC5        0.0000 
     20 CA        -50.4590   19.4250   22.5190 C.3       9 GLL5        0.0000 
     21 CA        -54.1830   19.2060   20.8730 C.3       6 GLP5        0.0000 
     22 CA        -53.0545   19.4145   26.8415 C.3       3 GLC5        0.0000 
     23 CA        -51.6500   20.4250   25.8290 C.3       9 GLL5        0.0000 
     24 CA        -54.4590   18.4040   27.8540 C.3       6 GLP5        0.0000 
     25 N         -51.1100   18.2260   27.0760 N.am      2 SEC2        0.0000 
     26 N         -51.1610   19.1770   26.0840 N.am      8 SEL2        0.0000 
     27 N         -51.0590   17.2750   28.0680 N.am      5 SEP2        0.0000 
     28 CA        -52.6388   18.7422   24.7830 C.3       3 GLC5        0.0000 
     29 CA        -53.7300   16.9280   24.4450 C.3       6 GLP5        0.0000 
     30 CA        -49.3618   23.0938   21.6325 C.3       3 GLC5        0.0000 
     31 CA        -49.0170   21.2140   21.9880 C.3       9 GLL5        0.0000 
     32 CA        -50.4180   24.7230   21.1940 C.3       6 GLP5        0.0000 
@<TRIPOS>BOND
@<TRIPOS>SUBSTRUCTURE
     1 ALC1        9 GROUP        1 X    ALC  0     ROOT ALC X 1
     2 SEC2       25 GROUP        1 X    SEC  0     **** SEC X 2
     3 GLC5        1 GROUP        1 X    GLC  0     **** GLC X 6
     4 ALP1       11 GROUP        1 Y    ALP  0     ROOT ALP Y 8
     5 SEP2       27 GROUP        1 Y    SEP  0     **** SEP Y 9
     6 GLP5        3 GROUP        1 Y    GLP  0     **** GLP Y 13
     7 ALL1       10 GROUP        1 Z    ALL  0     ROOT ALL Z 15
     8 SEL2       26 GROUP        1 Z    SEL  0     **** SEL Z 16
     9 GLL5        2 GROUP        1 Z    GLL  0     **** GLL Z 20
@<TRIPOS>SET

