#    Name: 4da6_GA2_1_ligand
#    Modification time : Mon Apr  7 22:26:59 2014

@<TRIPOS>MOLECULE
4da6_GA2_1_ligand
   31    32     1     0     0
SMALL
NO_CHARGES


@<TRIPOS>ATOM
      1 N1        -52.6380   22.6540   26.0130 N.am      1 GA2301      0.0000 
      2 C2        -52.4270   22.8440   24.6840 C.2       1 GA2301      0.0000 
      3 C4        -51.4450   20.6880   24.4130 C.2       1 GA2301      0.0000 
      4 C8        -50.6910   18.6760   24.9250 C.2       1 GA2301      0.0000 
      5 C4'       -49.4870   21.3080   20.5370 C.3       1 GA2301      0.0000 
      6 O4'       -48.6390   20.6050   19.6400 O.3       1 GA2301      0.0000 
      7 C3'       -47.5940   21.7150   22.1540 C.3       1 GA2301      0.0000 
      8 O3'       -47.2300   21.7480   23.5280 O.3       1 GA2301      0.0000 
      9 C2'       -49.0170   21.2140   21.9880 C.3       1 GA2301      0.0000 
     10 O1'       -49.1000   19.8500   22.3960 O.3       1 GA2301      0.0000 
     11 C1'       -50.4590   19.4250   22.5190 C.3       1 GA2301      0.0000 
     12 N9        -50.8530   19.5860   23.9230 N.pl3     1 GA2301      0.0000 
     13 N3        -51.8200   21.9030   23.9080 N.2       1 GA2301      0.0000 
     14 N2        -52.8200   24.0390   24.1650 N.pl3     1 GA2301      0.0000 
     15 C6        -52.2620   21.4880   26.6210 C.2       1 GA2301      0.0000 
     16 O6        -52.4620   21.2780   27.8510 O.2       1 GA2301      0.0000 
     17 C5        -51.6500   20.4250   25.8290 C.2       1 GA2301      0.0000 
     18 N7        -51.1610   19.1770   26.0840 N.2       1 GA2301      0.0000 
     19 H         -53.0913   23.4031   26.5788 H         1 GA2301      0.0000 
     20 H         -50.2926   17.7948   24.8106 H         1 GA2301      0.0000 
     21 H         -50.5271   20.9237   20.5014 H         1 GA2301      0.0000 
     22 H         -49.5501   22.3853   20.2796 H         1 GA2301      0.0000 
     23 H         -46.9333   21.0507   21.5742 H         1 GA2301      0.0000 
     24 H         -47.5327   22.7139   21.6930 H         1 GA2301      0.0000 
     25 H         -49.6728   21.8310   22.5901 H         1 GA2301      0.0000 
     26 H         -50.5699   18.3763   22.2273 H         1 GA2301      0.0000 
     27 H         -51.1170   20.0265   21.8845 H         1 GA2301      0.0000 
     28 H         -52.6190   24.1855   23.1964 H         1 GA2301      0.0000 
     29 H         -53.2752   24.6653   24.7979 H         1 GA2301      0.0000 
     30 H         -48.9738   20.8421   18.7280 H         1 GA2301      0.0000 
     31 H         -47.4247   20.8284   23.8693 H         1 GA2301      0.0000 
@<TRIPOS>BOND
     1    2    1 1    
     2   15    1 am   
     3   19    1 1    
     4   13    2 2    
     5   14    2 1    
     6   12    3 1    
     7   13    3 1    
     8   17    3 2    
     9   12    4 1    
    10   18    4 2    
    11   20    4 1    
    12    6    5 1    
    13    9    5 1    
    14   21    5 1    
    15   22    5 1    
    16   30    6 1    
    17    8    7 1    
    18    9    7 1    
    19   23    7 1    
    20   24    7 1    
    21   31    8 1    
    22   10    9 1    
    23   25    9 1    
    24   11   10 1    
    25   12   11 1    
    26   26   11 1    
    27   27   11 1    
    28   28   14 1    
    29   29   14 1    
    30   16   15 2    
    31   17   15 1    
    32   18   17 1    
@<TRIPOS>SUBSTRUCTURE
     1 GA2301      1 GROUP   
@<TRIPOS>SET

