#    Name: 4ndf_AMP_2_INTS_M
#    Modification time : Tue Mar 25 13:00:53 2014

@<TRIPOS>MOLECULE
4ndf_AMP_2_INTS_M
   60     0     9     0     0
SMALL
NO_CHARGES


@<TRIPOS>ATOM
      1 N          -3.6485  -14.6185  -41.5620 N.am      2 SEC2        0.0000 
      2 N          -3.0870  -13.5030  -41.1250 N.am      8 SEL2        0.0000 
      3 N          -4.2100  -15.7340  -41.9990 N.am      5 SEP2        0.0000 
      4 N          -2.0870  -14.0490  -41.7040 N.am      2 SEC2        0.0000 
      5 N          -1.0870  -14.5950  -42.2830 N.am      5 SEP2        0.0000 
      6 N          -3.0145  -12.8875  -42.3150 N.am      2 SEC2        0.0000 
      7 N          -2.9420  -12.2720  -43.5050 N.am      5 SEP2        0.0000 
      8 N          -1.7880  -10.6325  -39.4390 N.am      2 SEC2        0.0000 
      9 N          -2.7160  -11.5210  -39.5580 N.am      8 SEL2        0.0000 
     10 N          -0.8600   -9.7440  -39.3200 N.am      5 SEP2        0.0000 
     11 N          -5.2675  -13.0625  -38.3780 N.am      2 SEC2        0.0000 
     12 N          -3.9340  -13.6390  -38.7470 N.am      8 SEL2        0.0000 
     13 N          -6.6010  -12.4860  -38.0090 N.am      5 SEP2        0.0000 
     14 N          -4.3635  -13.8510  -37.5325 N.am      2 SEC2        0.0000 
     15 N          -4.7930  -14.0630  -36.3180 N.am      5 SEP2        0.0000 
     16 CA          1.7855  -13.8125  -38.2575 C.3       3 GLC5        0.0000 
     17 CA          0.0950  -14.5430  -37.7580 C.3       9 GLL5        0.0000 
     18 CA          3.4760  -13.0820  -38.7570 C.3       6 GLP5        0.0000 
     19 O           1.4020  -16.8565  -38.5985 O.2       1 ALC1        0.0000 
     20 O           0.2090  -16.8740  -38.3620 O.2       7 ALL1        0.0000 
     21 O           2.5950  -16.8390  -38.8350 O.2       4 ALP1        0.0000 
     22 CA          1.3255  -17.4055  -34.3330 C.3       3 GLC5        0.0000 
     23 CA          0.4860  -16.2070  -36.0320 C.3       9 GLL5        0.0000 
     24 CA          2.1650  -18.6040  -32.6340 C.3       6 GLP5        0.0000 
     25 N           0.7685  -18.4135  -37.1335 N.am      2 SEC2        0.0000 
     26 N           1.0300  -17.5020  -35.8880 N.am      8 SEL2        0.0000 
     27 N           0.5070  -19.3250  -38.3790 N.am      5 SEP2        0.0000 
     28 O           2.1280  -17.7845  -36.4985 O.2       1 ALC1        0.0000 
     29 O           1.0300  -17.5020  -35.8880 O.2       7 ALL1        0.0000 
     30 O           3.2260  -18.0670  -37.1090 O.2       4 ALP1        0.0000 
     31 O           1.8125  -17.1705  -37.3615 O.2       1 ALC1        0.0000 
     32 CA          2.5275  -14.1165  -37.4235 C.3       3 GLC5        0.0000 
     33 CA          1.5790  -15.1510  -36.0900 C.3       9 GLL5        0.0000 
     34 CA          6.2185  -11.9555  -32.4835 C.3       3 GLC5        0.0000 
     35 CA          4.7200  -13.4320  -32.6840 C.3       9 GLL5        0.0000 
     36 CA          7.7170  -10.4790  -32.2830 C.3       6 GLP5        0.0000 
     37 CA          5.1405  -14.9885  -31.6890 C.3       3 GLC5        0.0000 
     38 CA          5.5610  -16.5450  -30.6940 C.3       6 GLP5        0.0000 
     39 O           6.0950  -12.0970  -31.2655 O.2       1 ALC1        0.0000 
     40 O           4.8460  -12.9890  -31.4100 O.2       7 ALL1        0.0000 
     41 O           7.3440  -11.2050  -31.1210 O.2       4 ALP1        0.0000 
     42 CA          4.6405  -12.3905  -35.0710 C.3       3 GLC5        0.0000 
     43 CA          5.6530  -13.9590  -34.7850 C.3       9 GLL5        0.0000 
     44 CA          3.6280  -10.8220  -35.3570 C.3       6 GLP5        0.0000 
     45 CA          6.3970  -12.6510  -35.6620 C.3       3 GLC5        0.0000 
     46 CA          7.1410  -11.3430  -36.5390 C.3       6 GLP5        0.0000 
     47 CA          5.7680  -15.4195  -36.3640 C.3       3 GLC5        0.0000 
     48 CA          5.8830  -16.8800  -37.9430 C.3       6 GLP5        0.0000 
     49 CA          5.6560  -15.5170  -33.9645 C.3       3 GLC5        0.0000 
     50 CA          5.6590  -17.0750  -33.1440 C.3       6 GLP5        0.0000 
     51 N           5.1100  -15.8575  -35.4365 N.am      2 SEC2        0.0000 
     52 N           4.4830  -14.3760  -35.3100 N.am      8 SEL2        0.0000 
     53 N           5.7370  -17.3390  -35.5630 N.am      5 SEP2        0.0000 
     54 CA          3.4110  -13.7125  -36.6680 C.3       3 GLC5        0.0000 
     55 CA          3.3460  -14.3430  -34.5790 C.3       9 GLL5        0.0000 
     56 CA         -1.0985  -13.2215  -36.1850 C.3       3 GLC5        0.0000 
     57 CA         -1.7030  -12.3660  -34.5310 C.3       6 GLP5        0.0000 
     58 CA          4.5165  -15.5892  -33.5150 C.3       3 GLC5        0.0000 
     59 CA          3.4020  -13.8640  -33.1930 C.3       9 GLL5        0.0000 
     60 CA          3.6658  -12.4087  -34.5579 C.3       3 GLC5        0.0000 
@<TRIPOS>BOND
@<TRIPOS>SUBSTRUCTURE
     1 ALC1       19 GROUP        1 X    ALC  0     ROOT ALC X 1
     2 SEC2        1 GROUP        1 X    SEC  0     **** SEC X 2
     3 GLC5       16 GROUP        1 X    GLC  0     **** GLC X 6
     4 ALP1       21 GROUP        1 Y    ALP  0     ROOT ALP Y 8
     5 SEP2        3 GROUP        1 Y    SEP  0     **** SEP Y 9
     6 GLP5       18 GROUP        1 Y    GLP  0     **** GLP Y 13
     7 ALL1       20 GROUP        1 Z    ALL  0     ROOT ALL Z 15
     8 SEL2        2 GROUP        1 Z    SEL  0     **** SEL Z 16
     9 GLL5       17 GROUP        1 Z    GLL  0     **** GLL Z 20
@<TRIPOS>SET

