#    Name: 4ndf_AMP_2_ligand
#    Modification time : Tue Mar 25 13:00:53 2014

@<TRIPOS>MOLECULE
4ndf_AMP_2_ligand
   35    37     1     0     0
SMALL
NO_CHARGES


@<TRIPOS>ATOM
      1 P          -2.9390  -13.0180  -39.6990 P.3       1 AMP401      0.0000 
      2 O1P        -3.0870  -13.5030  -41.1250 O.co2     1 AMP401      0.0000 
      3 O2P        -2.7160  -11.5210  -39.5580 O.co2     1 AMP401      0.0000 
      4 O3P        -3.9340  -13.6390  -38.7470 O.co2     1 AMP401      0.0000 
      5 O5'        -1.5180  -13.5960  -39.2770 O.3       1 AMP401      0.0000 
      6 C5'        -1.0830  -13.6110  -37.9200 C.3       1 AMP401      0.0000 
      7 C4'         0.0950  -14.5430  -37.7580 C.3       1 AMP401      0.0000 
      8 O4'         0.9970  -14.0500  -36.7420 O.3       1 AMP401      0.0000 
      9 C3'        -0.2690  -15.9750  -37.3590 C.3       1 AMP401      0.0000 
     10 O3'         0.2090  -16.8740  -38.3620 O.3       1 AMP401      0.0000 
     11 C2'         0.4860  -16.2070  -36.0320 C.3       1 AMP401      0.0000 
     12 O2'         1.0300  -17.5020  -35.8880 O.3       1 AMP401      0.0000 
     13 C1'         1.5790  -15.1510  -36.0900 C.3       1 AMP401      0.0000 
     14 N9          2.0750  -14.6800  -34.8010 N.pl3     1 AMP401      0.0000 
     15 C8          1.3490  -14.4330  -33.6930 C.2       1 AMP401      0.0000 
     16 N7          2.1460  -13.9440  -32.7110 N.2       1 AMP401      0.0000 
     17 C5          3.4020  -13.8640  -33.1930 C.ar      1 AMP401      0.0000 
     18 C6          4.7200  -13.4320  -32.6840 C.ar      1 AMP401      0.0000 
     19 N6          4.8460  -12.9890  -31.4100 N.pl3     1 AMP401      0.0000 
     20 N1          5.7840  -13.5090  -33.5250 N.ar      1 AMP401      0.0000 
     21 C2          5.6530  -13.9590  -34.7850 C.ar      1 AMP401      0.0000 
     22 N3          4.4830  -14.3760  -35.3100 N.ar      1 AMP401      0.0000 
     23 C4          3.3460  -14.3430  -34.5790 C.ar      1 AMP401      0.0000 
     24 H          -1.8820  -13.9504  -37.2438 H         1 AMP401      0.0000 
     25 H          -0.7745  -12.6096  -37.5840 H         1 AMP401      0.0000 
     26 H           0.6358  -14.5993  -38.7088 H         1 AMP401      0.0000 
     27 H          -1.2966  -16.0310  -37.1808 H         1 AMP401      0.0000 
     28 H          -0.1818  -15.9220  -35.2374 H         1 AMP401      0.0000 
     29 H           2.3899  -15.5399  -36.6917 H         1 AMP401      0.0000 
     30 H           0.3885  -14.5827  -33.6052 H         1 AMP401      0.0000 
     31 H           5.5691  -12.3178  -31.2470 H         1 AMP401      0.0000 
     32 H           4.2047  -13.3724  -30.7454 H         1 AMP401      0.0000 
     33 H           6.5214  -13.9885  -35.4050 H         1 AMP401      0.0000 
     34 H           0.9950  -16.4108  -38.7713 H         1 AMP401      0.0000 
     35 H           1.8797  -17.4857  -36.4149 H         1 AMP401      0.0000 
@<TRIPOS>BOND
     1    2    1 ar   
     2    3    1 ar   
     3    4    1 ar   
     4    5    1 1    
     5    6    5 1    
     6    7    6 1    
     7   24    6 1    
     8   25    6 1    
     9    8    7 1    
    10    9    7 1    
    11   26    7 1    
    12   13    8 1    
    13   10    9 1    
    14   11    9 1    
    15   27    9 1    
    16   34   10 1    
    17   12   11 1    
    18   13   11 1    
    19   28   11 1    
    20   35   12 1    
    21   14   13 1    
    22   29   13 1    
    23   15   14 1    
    24   23   14 1    
    25   16   15 2    
    26   30   15 1    
    27   17   16 1    
    28   18   17 ar   
    29   23   17 ar   
    30   19   18 1    
    31   20   18 ar   
    32   31   19 1    
    33   32   19 1    
    34   21   20 ar   
    35   22   21 ar   
    36   33   21 1    
    37   23   22 ar   
@<TRIPOS>SUBSTRUCTURE
     1 AMP401      1 GROUP   
@<TRIPOS>SET

