#    Name: 3mxe_K54_1_INTS_M
#    Modification time : Tue Mar 25 00:11:11 2014

@<TRIPOS>MOLECULE
3mxe_K54_1_INTS_M
   89     0     9     0     0
SMALL
NO_CHARGES


@<TRIPOS>ATOM
      1 N          14.4770   34.7800   19.7760 N.am      2 SEC2        0.0000 
      2 N          15.0300   35.4960   18.4290 N.am      8 SEL2        0.0000 
      3 N          13.9240   34.0640   21.1230 N.am      5 SEP2        0.0000 
      4 CA         15.4625   37.6650   15.8960 C.3       3 GLC5        0.0000 
      5 CA         16.7830   37.0200   17.2270 C.3       9 GLL5        0.0000 
      6 CA         14.1420   38.3100   14.5650 C.3       6 GLP5        0.0000 
      7 CA         16.4045   33.0610   18.7925 C.3       3 GLC5        0.0000 
      8 CA         15.6650   34.6520   17.5710 C.3       9 GLL5        0.0000 
      9 CA         17.1440   31.4700   20.0140 C.3       6 GLP5        0.0000 
     10 CA         13.8650   34.9875   18.8435 C.3       3 GLC5        0.0000 
     11 CA         12.0650   35.3230   20.1160 C.3       6 GLP5        0.0000 
     12 CA         24.4625   23.1060   10.9385 C.3       3 GLC5        0.0000 
     13 CA         24.7220   24.6580   10.1020 C.3       9 GLL5        0.0000 
     14 CA         24.2030   21.5540   11.7750 C.3       6 GLP5        0.0000 
     15 CA         26.4295   24.2550   10.8070 C.3       3 GLC5        0.0000 
     16 CA         28.1370   23.8520   11.5120 C.3       6 GLP5        0.0000 
     17 CA         26.8150   24.3310    9.7900 C.3       3 GLC5        0.0000 
     18 CA         25.4930   24.8100    8.0680 C.3       9 GLL5        0.0000 
     19 CA         26.4575   25.8590    7.0525 C.3       3 GLC5        0.0000 
     20 CA         27.4220   26.9080    6.0370 C.3       6 GLP5        0.0000 
     21 CA         15.1815   30.7340   16.8055 C.3       3 GLC5        0.0000 
     22 CA         16.2550   32.5910   16.3990 C.3       9 GLL5        0.0000 
     23 CA         14.1080   28.8770   17.2120 C.3       6 GLP5        0.0000 
     24 CA         23.9610   30.8640   14.7630 C.3       3 GLC5        0.0000 
     25 CA         22.3410   32.3060   14.7600 C.3       9 GLL5        0.0000 
     26 CA         25.5810   29.4220   14.7660 C.3       6 GLP5        0.0000 
     27 CA         23.3300   32.4230   12.8820 C.3       3 GLC5        0.0000 
     28 CA         24.3190   32.5400   11.0040 C.3       6 GLP5        0.0000 
     29 CA         22.9200   32.7520   18.8475 C.3       3 GLC5        0.0000 
     30 CA         22.4860   33.3390   17.0230 C.3       9 GLL5        0.0000 
     31 CA         23.3540   32.1650   20.6720 C.3       6 GLP5        0.0000 
     32 CA         24.3050   34.4710   17.5465 C.3       3 GLC5        0.0000 
     33 CA         26.1240   35.6030   18.0700 C.3       6 GLP5        0.0000 
     34 CA         17.6200   30.5545   17.6945 C.3       3 GLC5        0.0000 
     35 CA         19.1710   30.4610   16.0820 C.3       9 GLL5        0.0000 
     36 CA         16.0690   30.6480   19.3070 C.3       6 GLP5        0.0000 
     37 N          19.3900   27.6950   17.6100 N.am      2 SEC2        0.0000 
     38 N          19.9190   28.1470   16.2920 N.am      8 SEL2        0.0000 
     39 N          18.8610   27.2430   18.9280 N.am      5 SEP2        0.0000 
     40 O          20.7520   27.8345   17.2350 O.2       1 ALC1        0.0000 
     41 O          19.9190   28.1470   16.2920 O.2       7 ALL1        0.0000 
     42 O          21.5850   27.5220   18.1780 O.2       4 ALP1        0.0000 
     43 O          21.4610   28.5480   16.7900 O.2       1 ALC1        0.0000 
     44 O          23.0030   28.9490   17.2880 O.2       4 ALP1        0.0000 
     45 O          20.4060   26.6995   13.9955 O.2       1 ALC1        0.0000 
     46 O          20.6420   28.1690   13.4270 O.2       7 ALL1        0.0000 
     47 O          20.1700   25.2300   14.5640 O.2       4 ALP1        0.0000 
     48 CA         21.1830   29.0305    9.2655 C.3       3 GLC5        0.0000 
     49 CA         21.8990   27.4400   10.2560 C.3       9 GLL5        0.0000 
     50 CA         20.4670   30.6210    8.2750 C.3       6 GLP5        0.0000 
     51 N          22.9335   23.6105   12.5275 N.am      2 SEC2        0.0000 
     52 N          22.1900   24.1320   11.4400 N.am      8 SEL2        0.0000 
     53 N          23.6770   23.0890   13.6150 N.am      5 SEP2        0.0000 
     54 CA         22.6130   26.2710   13.3760 C.3       3 GLC5        0.0000 
     55 CA         22.2830   27.6100   11.7430 C.3       9 GLL5        0.0000 
     56 CA         22.9430   24.9320   15.0090 C.3       6 GLP5        0.0000 
     57 CA         23.5530   29.3650   11.4660 C.3       3 GLC5        0.0000 
     58 CA         24.8230   31.1200   11.1890 C.3       6 GLP5        0.0000 
     59 CA         17.3220   25.3000   13.3260 C.3       3 GLC5        0.0000 
     60 CA         18.2740   26.5180   12.0560 C.3       9 GLL5        0.0000 
     61 CA         16.3700   24.0820   14.5960 C.3       6 GLP5        0.0000 
     62 CA         18.9870   29.5310    9.2375 C.3       3 GLC5        0.0000 
     63 CA         17.5070   28.4410   10.2000 C.3       9 GLL5        0.0000 
     64 CA         17.3685   30.4200    9.6350 C.3       3 GLC5        0.0000 
     65 CA         17.2300   32.3990    9.0700 C.3       6 GLP5        0.0000 
     66 CA         17.2215   30.8270   11.0010 C.3       3 GLC5        0.0000 
     67 CA         17.7050   28.7940   11.5380 C.3       9 GLL5        0.0000 
     68 CA         16.7380   32.8600   10.4640 C.3       6 GLP5        0.0000 
     69 CA         25.3903   26.8550    7.5370 C.3       3 GLC5        0.0000 
     70 CA         24.5430   26.4890    8.9970 C.3       9 GLL5        0.0000 
     71 CA         26.2460   27.8780    6.1300 C.3       6 GLP5        0.0000 
     72 CA         14.6070   35.5203   15.7225 C.3       3 GLC5        0.0000 
     73 CA         13.0610   36.0420   14.2300 C.3       6 GLP5        0.0000 
     74 CA         15.9682   31.7948   18.0865 C.3       3 GLC5        0.0000 
     75 CA         15.4800   33.2920   17.3330 C.3       9 GLL5        0.0000 
     76 CA         13.9774   33.1472   16.3627 C.3       3 GLC5        0.0000 
     77 CA         12.0410   33.0130   15.8000 C.3       6 GLP5        0.0000 
     78 CA         23.9280   32.0225   16.9253 C.3       3 GLC5        0.0000 
     79 CA         21.7200   32.3390   16.1580 C.3       9 GLL5        0.0000 
     80 CA         25.7530   31.2060   17.2600 C.3       6 GLP5        0.0000 
     81 CA         16.3610   26.4002   11.4925 C.3       3 GLC5        0.0000 
     82 CA         14.5490   26.4560   11.5960 C.3       6 GLP5        0.0000 
     83 CA         16.2520   28.1047    8.6683 C.3       3 GLC5        0.0000 
     84 CA         17.6910   27.1260    9.7910 C.3       9 GLL5        0.0000 
     85 CA         14.9050   28.4260    7.3410 C.3       6 GLP5        0.0000 
     86 CA         16.0740   27.1197   10.7957 C.3       3 GLC5        0.0000 
     87 CA         16.2227   27.3860   11.7990 C.3       3 GLC5        0.0000 
     88 CA         16.2244   28.8634   13.2006 C.3       3 GLC5        0.0000 
     89 CA         14.4930   29.3130   14.0370 C.3       6 GLP5        0.0000 
@<TRIPOS>BOND
@<TRIPOS>SUBSTRUCTURE
     1 ALC1       40 GROUP        1 X    ALC  0     ROOT ALC X 1
     2 SEC2        1 GROUP        1 X    SEC  0     **** SEC X 2
     3 GLC5        4 GROUP        1 X    GLC  0     **** GLC X 6
     4 ALP1       42 GROUP        1 Y    ALP  0     ROOT ALP Y 8
     5 SEP2        3 GROUP        1 Y    SEP  0     **** SEP Y 9
     6 GLP5        6 GROUP        1 Y    GLP  0     **** GLP Y 13
     7 ALL1       41 GROUP        1 Z    ALL  0     ROOT ALL Z 15
     8 SEL2        2 GROUP        1 Z    SEL  0     **** SEL Z 16
     9 GLL5        5 GROUP        1 Z    GLL  0     **** GLL Z 20
@<TRIPOS>SET

