#    Name: 3mxe_K54_1_ligand
#    Modification time : Tue Mar 25 00:11:11 2014

@<TRIPOS>MOLECULE
3mxe_K54_1_ligand
   80    84     1     0     0
SMALL
NO_CHARGES


@<TRIPOS>ATOM
      1 C1         15.4900   36.7590   18.3470 C.2       1 K54200      0.0000 
      2 F1         24.5430   26.4890    8.9970 F         1 K54200      0.0000 
      3 N1         15.0300   35.4960   18.4290 N.2       1 K54200      0.0000 
      4 S1         16.7830   37.0200   17.2270 S.3       1 K54200      0.0000 
      5 C2         15.6650   34.6520   17.5710 C.ar      1 K54200      0.0000 
      6 F2         24.7220   24.6580   10.1020 F         1 K54200      0.0000 
      7 C3         16.6410   35.3450   16.8590 C.ar      1 K54200      0.0000 
      8 F3         25.4930   24.8100    8.0680 F         1 K54200      0.0000 
      9 C4         17.4290   34.6350   15.9200 C.ar      1 K54200      0.0000 
     10 C5         17.2520   33.2410   15.6790 C.ar      1 K54200      0.0000 
     11 C6         16.2550   32.5910   16.3990 C.ar      1 K54200      0.0000 
     12 C7         15.4800   33.2920   17.3330 C.ar      1 K54200      0.0000 
     13 S8         18.1460   32.3670   14.6230 S.o2      1 K54200      0.0000 
     14 O9         17.3900   31.2780   14.0620 O.2       1 K54200      0.0000 
     15 O10        18.6560   33.2300   13.6080 O.2       1 K54200      0.0000 
     16 N11        19.4470   31.7200   15.3430 N.pl3     1 K54200      0.0000 
     17 C12        20.2360   32.7120   16.1070 C.3       1 K54200      0.0000 
     18 C13        21.7200   32.3390   16.1580 C.3       1 K54200      0.0000 
     19 C14        22.3410   32.3060   14.7600 C.3       1 K54200      0.0000 
     20 C15        22.4860   33.3390   17.0230 C.3       1 K54200      0.0000 
     21 C16        19.1710   30.4610   16.0820 C.3       1 K54200      0.0000 
     22 C17        20.0280   29.3320   15.4910 C.3       1 K54200      0.0000 
     23 O18        19.9190   28.1470   16.2920 O.3       1 K54200      0.0000 
     24 C19        19.6380   29.0260   14.0520 C.3       1 K54200      0.0000 
     25 N20        20.6420   28.1690   13.4270 N.am      1 K54200      0.0000 
     26 C21        21.3630   28.5920   12.3780 C.2       1 K54200      0.0000 
     27 O22        21.3250   29.7190   11.9120 O.2       1 K54200      0.0000 
     28 N24        22.2050   26.0160   10.0570 N.am      1 K54200      0.0000 
     29 C25        21.8990   27.4400   10.2560 C.3       1 K54200      0.0000 
     30 C26        22.1730   25.3430   11.2870 C.2       1 K54200      0.0000 
     31 O27        22.1900   24.1320   11.4400 O.2       1 K54200      0.0000 
     32 O28        22.1560   26.3150   12.3560 O.3       1 K54200      0.0000 
     33 C29        22.2830   27.6100   11.7430 C.3       1 K54200      0.0000 
     34 C32        18.3250   28.2290   13.9150 C.3       1 K54200      0.0000 
     35 C33        18.2740   26.5180   12.0560 C.ar      1 K54200      0.0000 
     36 C34        18.0720   26.1710   10.7220 C.ar      1 K54200      0.0000 
     37 C35        17.6910   27.1260    9.7910 C.ar      1 K54200      0.0000 
     38 C36        17.5070   28.4410   10.2000 C.ar      1 K54200      0.0000 
     39 C37        17.7050   28.7940   11.5380 C.ar      1 K54200      0.0000 
     40 C38        18.0880   27.8380   12.4660 C.ar      1 K54200      0.0000 
     41 C40        21.8720   23.6040    6.6570 C.ar      1 K54200      0.0000 
     42 C41        23.1140   23.9600    7.1760 C.ar      1 K54200      0.0000 
     43 C42        23.2020   24.7720    8.3130 C.ar      1 K54200      0.0000 
     44 C43        22.0380   25.2160    8.9140 C.ar      1 K54200      0.0000 
     45 C44        20.7920   24.8620    8.4020 C.ar      1 K54200      0.0000 
     46 C45        20.7020   24.0540    7.2620 C.ar      1 K54200      0.0000 
     47 C46        24.5260   25.1750    8.8910 C.3       1 K54200      0.0000 
     48 H          15.2448   37.5756   18.7936 H         1 K54200      0.0000 
     49 H          18.1581   35.1413   15.3896 H         1 K54200      0.0000 
     50 H          16.0814   31.5871   16.2480 H         1 K54200      0.0000 
     51 H          14.7466   32.7787   17.8617 H         1 K54200      0.0000 
     52 H          19.8630   32.7851   17.1369 H         1 K54200      0.0000 
     53 H          20.1456   33.7059   15.6496 H         1 K54200      0.0000 
     54 H          21.8195   31.3596   16.6030 H         1 K54200      0.0000 
     55 H          18.1250   30.1856   15.9891 H         1 K54200      0.0000 
     56 H          19.4226   30.5721   17.1323 H         1 K54200      0.0000 
     57 H          21.0664   29.6830   15.4836 H         1 K54200      0.0000 
     58 H          19.5378   29.9315   13.4906 H         1 K54200      0.0000 
     59 H          20.7608   27.2268   13.8390 H         1 K54200      0.0000 
     60 H          20.8692   27.6363   10.1497 H         1 K54200      0.0000 
     61 H          22.5233   28.0582    9.6744 H         1 K54200      0.0000 
     62 H          23.2888   27.9624   11.7779 H         1 K54200      0.0000 
     63 H          17.5023   28.8454   14.2678 H         1 K54200      0.0000 
     64 H          18.3916   27.3353   14.5298 H         1 K54200      0.0000 
     65 H          18.5591   25.8044   12.7361 H         1 K54200      0.0000 
     66 H          18.2082   25.1903   10.4253 H         1 K54200      0.0000 
     67 H          17.5464   26.8652    8.8107 H         1 K54200      0.0000 
     68 H          17.2246   29.1588    9.5201 H         1 K54200      0.0000 
     69 H          17.5642   29.7718   11.8311 H         1 K54200      0.0000 
     70 H          21.8189   23.0045    5.8210 H         1 K54200      0.0000 
     71 H          23.9759   23.6254    6.7227 H         1 K54200      0.0000 
     72 H          19.9336   25.1934    8.8602 H         1 K54200      0.0000 
     73 H          19.7894   23.8006    6.8829 H         1 K54200      0.0000 
     74 H          23.3097   32.0597   14.7897 H         1 K54200      0.0000 
     75 H          21.8873   31.6402   14.1677 H         1 K54200      0.0000 
     76 H          22.2782   33.1941   14.3047 H         1 K54200      0.0000 
     77 H          23.4594   33.1160   17.0749 H         1 K54200      0.0000 
     78 H          22.4173   34.2698   16.6639 H         1 K54200      0.0000 
     79 H          22.1398   33.3604   17.9609 H         1 K54200      0.0000 
     80 H          20.8411   27.9872   16.6444 H         1 K54200      0.0000 
@<TRIPOS>BOND
     1    3    1 2    
     2    4    1 1    
     3   48    1 1    
     4   47    2 1    
     5    5    3 1    
     6    7    4 1    
     7    7    5 ar   
     8   12    5 ar   
     9   47    6 1    
    10    9    7 ar   
    11   47    8 1    
    12   10    9 ar   
    13   49    9 1    
    14   11   10 ar   
    15   13   10 1    
    16   12   11 ar   
    17   50   11 1    
    18   51   12 1    
    19   14   13 2    
    20   15   13 2    
    21   16   13 1    
    22   17   16 1    
    23   21   16 1    
    24   18   17 1    
    25   52   17 1    
    26   53   17 1    
    27   19   18 1    
    28   20   18 1    
    29   54   18 1    
    30   74   19 1    
    31   75   19 1    
    32   76   19 1    
    33   77   20 1    
    34   78   20 1    
    35   79   20 1    
    36   22   21 1    
    37   55   21 1    
    38   56   21 1    
    39   23   22 1    
    40   24   22 1    
    41   57   22 1    
    42   80   23 1    
    43   25   24 1    
    44   34   24 1    
    45   58   24 1    
    46   26   25 am   
    47   59   25 1    
    48   27   26 2    
    49   33   26 1    
    50   29   28 1    
    51   30   28 am   
    52   44   28 1    
    53   33   29 1    
    54   60   29 1    
    55   61   29 1    
    56   31   30 2    
    57   32   30 1    
    58   33   32 1    
    59   62   33 1    
    60   40   34 1    
    61   63   34 1    
    62   64   34 1    
    63   36   35 ar   
    64   40   35 ar   
    65   65   35 1    
    66   37   36 ar   
    67   66   36 1    
    68   38   37 ar   
    69   67   37 1    
    70   39   38 ar   
    71   68   38 1    
    72   40   39 ar   
    73   69   39 1    
    74   42   41 ar   
    75   46   41 ar   
    76   70   41 1    
    77   43   42 ar   
    78   71   42 1    
    79   44   43 ar   
    80   47   43 1    
    81   45   44 ar   
    82   46   45 ar   
    83   72   45 1    
    84   73   46 1    
@<TRIPOS>SUBSTRUCTURE
     1 K54200      1 GROUP   
@<TRIPOS>SET

