#    Name: 1h1q_2A6_2_INTS_M
#    Modification time : Tue Mar 25 04:20:12 2014

@<TRIPOS>MOLECULE
1h1q_2A6_2_INTS_M
   66     0     9     0     0
SMALL
NO_CHARGES


@<TRIPOS>ATOM
      1 CA         31.8205   84.9080   44.1380 C.3       3 GLC5        0.0000 
      2 CA         33.6070   84.2270   45.1920 C.3       9 GLL5        0.0000 
      3 CA         30.0340   85.5890   43.0840 C.3       6 GLP5        0.0000 
      4 CA         31.9910   82.7750   45.2550 C.3       3 GLC5        0.0000 
      5 CA         30.3750   81.3230   45.3180 C.3       6 GLP5        0.0000 
      6 CA         33.9635   84.7255   47.3165 C.3       3 GLC5        0.0000 
      7 CA         34.3200   85.2240   49.4410 C.3       6 GLP5        0.0000 
      8 CA         35.3410   83.2635   45.4710 C.3       3 GLC5        0.0000 
      9 CA         37.0750   82.3000   45.7500 C.3       6 GLP5        0.0000 
     10 CA         33.2130   84.9115   41.0820 C.3       3 GLC5        0.0000 
     11 CA         34.4950   83.4950   41.2620 C.3       9 GLL5        0.0000 
     12 CA         31.9310   86.3280   40.9020 C.3       6 GLP5        0.0000 
     13 CA         32.6635   82.7815   41.2550 C.3       3 GLC5        0.0000 
     14 CA         30.8320   82.0680   41.2480 C.3       6 GLP5        0.0000 
     15 CA         33.4870   81.6270   39.8500 C.3       3 GLC5        0.0000 
     16 CA         35.2520   82.8740   40.0620 C.3       9 GLL5        0.0000 
     17 CA         31.7220   80.3800   39.6380 C.3       6 GLP5        0.0000 
     18 CA         33.4560   85.0550   39.8725 C.3       3 GLC5        0.0000 
     19 CA         34.9810   83.7820   38.8430 C.3       9 GLL5        0.0000 
     20 CA         33.4155   84.6595   37.6555 C.3       3 GLC5        0.0000 
     21 CA         31.8500   85.5370   36.4680 C.3       6 GLP5        0.0000 
     22 CA         34.4655   83.0000   36.1035 C.3       3 GLC5        0.0000 
     23 CA         35.9330   83.5340   37.6600 C.3       9 GLL5        0.0000 
     24 CA         32.9980   82.4660   34.5470 C.3       6 GLP5        0.0000 
     25 CA         39.7105   82.5660   40.0180 C.3       3 GLC5        0.0000 
     26 CA         37.6920   82.5290   39.2090 C.3       9 GLL5        0.0000 
     27 CA         41.7290   82.6030   40.8270 C.3       6 GLP5        0.0000 
     28 CA         38.3535   80.5095   39.3655 C.3       3 GLC5        0.0000 
     29 CA         39.0150   78.4900   39.5220 C.3       6 GLP5        0.0000 
     30 CA         37.5135   83.3720   42.3795 C.3       3 GLC5        0.0000 
     31 CA         36.7680   82.7720   40.4200 C.3       9 GLL5        0.0000 
     32 CA         38.2590   83.9720   44.3390 C.3       6 GLP5        0.0000 
     33 CA         37.3170   87.4820   42.8795 C.3       3 GLC5        0.0000 
     34 CA         35.1170   87.6990   43.1850 C.3       9 GLL5        0.0000 
     35 CA         39.5170   87.2650   42.5740 C.3       6 GLP5        0.0000 
     36 CA         36.5315   85.2610   44.1315 C.3       3 GLC5        0.0000 
     37 CA         34.8040   86.5500   43.9240 C.3       9 GLL5        0.0000 
     38 CA         32.6360   82.3085   47.3665 C.3       3 GLC5        0.0000 
     39 CA         33.8070   81.8470   45.5090 C.3       9 GLL5        0.0000 
     40 CA         31.4650   82.7700   49.2240 C.3       6 GLP5        0.0000 
     41 N          33.4805   83.7115   47.4460 N.am      2 SEC2        0.0000 
     42 N          33.5820   83.1990   45.9380 N.am      8 SEL2        0.0000 
     43 N          33.3790   84.2240   48.9540 N.am      5 SEP2        0.0000 
     44 O          33.2755   86.0695   46.7550 O.2       1 ALC1        0.0000 
     45 O          33.4120   85.4570   45.5840 O.2       7 ALL1        0.0000 
     46 O          33.1390   86.6820   47.9260 O.2       4 ALP1        0.0000 
     47 CA         33.7135   88.3340   46.9565 C.3       3 GLC5        0.0000 
     48 CA         32.9760   87.7270   44.9970 C.3       9 GLL5        0.0000 
     49 CA         34.4510   88.9410   48.9160 C.3       6 GLP5        0.0000 
     50 CA         36.4677   82.0162   36.4633 C.3       3 GLC5        0.0000 
     51 CA         36.2560   80.5310   35.0910 C.3       6 GLP5        0.0000 
     52 CA         32.8803   87.6028   42.3552 C.3       3 GLC5        0.0000 
     53 CA         34.3620   88.8680   43.3520 C.3       9 GLL5        0.0000 
     54 CA         35.3757   88.9317   44.9308 C.3       3 GLC5        0.0000 
     55 CA         36.9220   88.9860   46.0530 C.3       6 GLP5        0.0000 
     56 CA         35.7332   89.7082   42.0403 C.3       3 GLC5        0.0000 
     57 CA         36.7270   91.1330   40.8120 C.3       6 GLP5        0.0000 
     58 CA         33.4458   86.7262   42.2283 C.3       3 GLC5        0.0000 
     59 CA         35.9412   88.0553   44.8038 C.3       3 GLC5        0.0000 
     60 CA         32.4520   82.1425   42.5117 C.3       3 GLC5        0.0000 
     61 CA         34.0770   82.7990   43.3300 C.3       9 GLL5        0.0000 
     62 CA         32.1573   81.6775   44.9801 C.3       3 GLC5        0.0000 
     63 CA         35.5072   82.1660   45.1961 C.3       3 GLC5        0.0000 
     64 CA         31.6925   86.3650   44.0018 C.3       3 GLC5        0.0000 
     65 CA         33.7260   86.5550   44.8420 C.3       9 GLL5        0.0000 
     66 CA         35.1365   88.0635   45.4862 C.3       3 GLC5        0.0000 
@<TRIPOS>BOND
@<TRIPOS>SUBSTRUCTURE
     1 ALC1       44 GROUP        1 X    ALC  0     ROOT ALC X 1
     2 SEC2       41 GROUP        1 X    SEC  0     **** SEC X 2
     3 GLC5        1 GROUP        1 X    GLC  0     **** GLC X 6
     4 ALP1       46 GROUP        1 Y    ALP  0     ROOT ALP Y 8
     5 SEP2       43 GROUP        1 Y    SEP  0     **** SEP Y 9
     6 GLP5        3 GROUP        1 Y    GLP  0     **** GLP Y 13
     7 ALL1       45 GROUP        1 Z    ALL  0     ROOT ALL Z 15
     8 SEL2       42 GROUP        1 Z    SEL  0     **** SEL Z 16
     9 GLL5        2 GROUP        1 Z    GLL  0     **** GLL Z 20
@<TRIPOS>SET

