#    Name: 1h1q_2A6_2_ligand
#    Modification time : Tue Mar 25 04:20:12 2014

@<TRIPOS>MOLECULE
1h1q_2A6_2_ligand
   45    48     1     0     0
SMALL
NO_CHARGES


@<TRIPOS>ATOM
      1 C2         33.6070   84.2270   45.1920 C.ar      1 2A61298     0.0000 
      2 C8         34.0770   79.7630   45.2670 C.2       1 2A61298     0.0000 
      3 C10        34.4950   83.4950   41.2620 C.3       1 2A61298     0.0000 
      4 C11        35.2520   82.8740   40.0620 C.3       1 2A61298     0.0000 
      5 C12        34.9810   83.7820   38.8430 C.3       1 2A61298     0.0000 
      6 C13        35.9330   83.5340   37.6600 C.3       1 2A61298     0.0000 
      7 C14        37.4260   83.4690   38.0110 C.3       1 2A61298     0.0000 
      8 C15        37.6920   82.5290   39.2090 C.3       1 2A61298     0.0000 
      9 C16        36.7680   82.7720   40.4200 C.3       1 2A61298     0.0000 
     10 C19        33.2970   88.8870   44.2650 C.ar      1 2A61298     0.0000 
     11 C20        34.3620   88.8680   43.3520 C.ar      1 2A61298     0.0000 
     12 C21        35.1170   87.6990   43.1850 C.ar      1 2A61298     0.0000 
     13 C22        34.8040   86.5500   43.9240 C.ar      1 2A61298     0.0000 
     14 N1         33.8640   83.9610   43.7810 N.ar      1 2A61298     0.0000 
     15 C6         34.0770   82.7990   43.3300 C.ar      1 2A61298     0.0000 
     16 O6         34.3300   82.5770   42.0450 O.3       1 2A61298     0.0000 
     17 C5         34.0670   81.6350   44.2210 C.ar      1 2A61298     0.0000 
     18 N7         34.2460   80.1990   44.1130 N.pl3     1 2A61298     0.0000 
     19 N9         33.8240   80.7140   46.1320 N.2       1 2A61298     0.0000 
     20 C4         33.8070   81.8470   45.5090 C.ar      1 2A61298     0.0000 
     21 N3         33.5820   83.1990   45.9380 N.ar      1 2A61298     0.0000 
     22 N2         33.4120   85.4570   45.5840 N.pl3     1 2A61298     0.0000 
     23 C17        33.7260   86.5550   44.8420 C.ar      1 2A61298     0.0000 
     24 C18        32.9760   87.7270   44.9970 C.ar      1 2A61298     0.0000 
     25 H          34.1229   78.7829   45.5442 H         1 2A61298     0.0000 
     26 H          33.5942   83.9541   40.8061 H         1 2A61298     0.0000 
     27 H          35.1401   84.3384   41.5824 H         1 2A61298     0.0000 
     28 H          34.8590   81.9052   39.8824 H         1 2A61298     0.0000 
     29 H          35.0689   84.8310   39.1578 H         1 2A61298     0.0000 
     30 H          33.9467   83.6235   38.5079 H         1 2A61298     0.0000 
     31 H          35.7788   84.3339   36.9090 H         1 2A61298     0.0000 
     32 H          35.6424   82.5859   37.1657 H         1 2A61298     0.0000 
     33 H          37.7806   84.4685   38.2620 H         1 2A61298     0.0000 
     34 H          37.9833   83.1057   37.1477 H         1 2A61298     0.0000 
     35 H          38.7369   82.6524   39.5291 H         1 2A61298     0.0000 
     36 H          37.5725   81.4882   38.8742 H         1 2A61298     0.0000 
     37 H          36.8987   81.9534   41.1413 H         1 2A61298     0.0000 
     38 H          37.0687   83.7032   40.9199 H         1 2A61298     0.0000 
     39 H          32.7518   89.7421   44.4011 H         1 2A61298     0.0000 
     40 H          34.5867   89.7061   42.8094 H         1 2A61298     0.0000 
     41 H          35.8985   87.6844   42.5220 H         1 2A61298     0.0000 
     42 H          35.3574   85.6940   43.8032 H         1 2A61298     0.0000 
     43 H          34.4481   79.7964   43.2756 H         1 2A61298     0.0000 
     44 H          32.9769   85.6390   46.5509 H         1 2A61298     0.0000 
     45 H          32.1824   87.7451   45.6506 H         1 2A61298     0.0000 
@<TRIPOS>BOND
     1   14    1 ar   
     2   21    1 ar   
     3   22    1 1    
     4   18    2 1    
     5   19    2 2    
     6   25    2 1    
     7    4    3 1    
     8   16    3 1    
     9   26    3 1    
    10   27    3 1    
    11    5    4 1    
    12    9    4 1    
    13   28    4 1    
    14    6    5 1    
    15   29    5 1    
    16   30    5 1    
    17    7    6 1    
    18   31    6 1    
    19   32    6 1    
    20    8    7 1    
    21   33    7 1    
    22   34    7 1    
    23    9    8 1    
    24   35    8 1    
    25   36    8 1    
    26   37    9 1    
    27   38    9 1    
    28   11   10 ar   
    29   24   10 ar   
    30   39   10 1    
    31   12   11 ar   
    32   40   11 1    
    33   13   12 ar   
    34   41   12 1    
    35   23   13 ar   
    36   42   13 1    
    37   15   14 ar   
    38   16   15 1    
    39   17   15 ar   
    40   18   17 1    
    41   20   17 ar   
    42   43   18 1    
    43   20   19 1    
    44   21   20 ar   
    45   23   22 1    
    46   44   22 1    
    47   24   23 ar   
    48   45   24 1    
@<TRIPOS>SUBSTRUCTURE
     1 2A61298     1 GROUP   
@<TRIPOS>SET

