#    Name: 1lce_TMF_1_INTS_M
#    Modification time : Tue Mar 25 11:06:18 2014

@<TRIPOS>MOLECULE
1lce_TMF_1_INTS_M
   37     0     9     0     0
SMALL
NO_CHARGES


@<TRIPOS>ATOM
      1 CA         13.9150   51.9765  -45.6360 C.3       3 GLC5        0.0000 
      2 CA         14.2510   49.9520  -45.2360 C.3       9 GLL5        0.0000 
      3 CA         13.5790   54.0010  -46.0360 C.3       6 GLP5        0.0000 
      4 CA         16.1970   48.1435  -48.5015 C.3       3 GLC5        0.0000 
      5 CA         16.6640   48.2710  -46.3070 C.3       9 GLL5        0.0000 
      6 CA         15.7300   48.0160  -50.6960 C.3       6 GLP5        0.0000 
      7 CA         19.3655   42.1310  -46.9070 C.3       3 GLC5        0.0000 
      8 CA         18.9860   42.8480  -45.2620 C.3       9 GLL5        0.0000 
      9 CA         19.7450   41.4140  -48.5520 C.3       6 GLP5        0.0000 
     10 N          16.7120   41.9830  -46.7695 N.am      1 SEC2        0.0000 
     11 N          16.7990   41.7560  -45.5310 N.am      7 SEL2        0.0000 
     12 N          16.6250   42.2100  -48.0080 N.am      4 SEP2        0.0000 
     13 NZ         18.6575   39.0545  -44.6575 N.4       2 LYC4        0.0000 
     14 NZ         18.3980   40.4600  -45.1510 N.4       8 LYL4        0.0000 
     15 NZ         18.9170   37.6490  -44.1640 N.4       5 LYP4        0.0000 
     16 N          18.6575   39.0545  -44.6575 N.am      1 SEC2        0.0000 
     17 N          18.3980   40.4600  -45.1510 N.am      7 SEL2        0.0000 
     18 N          18.9170   37.6490  -44.1640 N.am      4 SEP2        0.0000 
     19 CA         14.6010   48.3110  -48.8555 C.3       3 GLC5        0.0000 
     20 CA         13.4720   48.6060  -47.0150 C.3       9 GLL5        0.0000 
     21 CA         14.9770   49.2100  -49.8020 C.3       3 GLC5        0.0000 
     22 CA         13.6190   50.1320  -48.6710 C.3       9 GLL5        0.0000 
     23 CA         15.6208   50.5700  -44.7377 C.3       3 GLC5        0.0000 
     24 CA         14.2120   50.8260  -46.5010 C.3       9 GLL5        0.0000 
     25 CA         17.0100   50.7510  -43.6070 C.3       6 GLP5        0.0000 
     26 CA         15.9475   47.6718  -43.2375 C.3       3 GLC5        0.0000 
     27 CA         15.2920   46.8160  -44.8930 C.3       9 GLL5        0.0000 
     28 CA         16.0320   48.8980  -41.6730 C.3       6 GLP5        0.0000 
     29 CA         14.6575   45.0363  -44.4990 C.3       3 GLC5        0.0000 
     30 CA         13.4520   43.6270  -44.1960 C.3       6 GLP5        0.0000 
     31 CA         16.9734   49.2782  -44.8351 C.3       3 GLC5        0.0000 
     32 CA         15.4290   47.9150  -45.6940 C.3       9 GLL5        0.0000 
     33 CA         18.1247   42.9578  -43.5170 C.3       3 GLC5        0.0000 
     34 CA         16.6420   43.2440  -42.1670 C.3       6 GLP5        0.0000 
     35 CA         21.0898   41.6512  -45.8353 C.3       3 GLC5        0.0000 
     36 CA         20.2290   42.4950  -44.4720 C.3       9 GLL5        0.0000 
     37 CA         21.3410   40.4510  -46.9660 C.3       6 GLP5        0.0000 
@<TRIPOS>BOND
@<TRIPOS>SUBSTRUCTURE
     1 SEC2       10 GROUP        1 X    SEC  0     ROOT SEC X 2
     2 LYC4       13 GROUP        1 X    LYC  0     **** LYC X 4
     3 GLC5        1 GROUP        1 X    GLC  0     **** GLC X 6
     4 SEP2       12 GROUP        1 Y    SEP  0     ROOT SEP Y 9
     5 LYP4       15 GROUP        1 Y    LYP  0     **** LYP Y 11
     6 GLP5        3 GROUP        1 Y    GLP  0     **** GLP Y 13
     7 SEL2       11 GROUP        1 Z    SEL  0     ROOT SEL Z 16
     8 LYL4       14 GROUP        1 Z    LYL  0     **** LYL Z 18
     9 GLL5        2 GROUP        1 Z    GLL  0     **** GLL Z 20
@<TRIPOS>SET

