#    Name: 1lce_TMF_1_ligand
#    Modification time : Tue Mar 25 11:06:18 2014

@<TRIPOS>MOLECULE
1lce_TMF_1_ligand
   51    54     1     0     0
SMALL
NO_CHARGES


@<TRIPOS>ATOM
      1 N1         14.7970   51.3330  -50.2750 N.pl3     1 TMF318      0.0000 
      2 C2         13.6110   51.4000  -51.0390 C.2       1 TMF318      0.0000 
      3 NA2        13.3520   52.1970  -52.1000 N.pl3     1 TMF318      0.0000 
      4 N3         12.5330   50.6110  -50.6690 N.2       1 TMF318      0.0000 
      5 C4         12.7020   49.6720  -49.6880 C.2       1 TMF318      0.0000 
      6 O4         12.0880   48.3330  -49.7930 O.2       1 TMF318      0.0000 
      7 C4A        13.6190   50.1320  -48.6710 C.2       1 TMF318      0.0000 
      8 N5         13.2820   50.0480  -47.4110 N.3       1 TMF318      0.0000 
      9 C6         14.2120   50.8260  -46.5010 C.3       1 TMF318      0.0000 
     10 C7         15.6860   51.2390  -47.1450 C.2       1 TMF318      0.0000 
     11 N8         15.9460   50.5270  -48.3910 N.2       1 TMF318      0.0000 
     12 C8A        14.8290   50.6760  -49.1450 C.2       1 TMF318      0.0000 
     13 C9         14.2510   49.9520  -45.2360 C.3       1 TMF318      0.0000 
     14 N10        14.3420   48.6490  -45.8460 N.3       1 TMF318      0.0000 
     15 C11        17.6880   46.3970  -45.2940 C.ar      1 TMF318      0.0000 
     16 C12        16.4340   46.0750  -44.7110 C.ar      1 TMF318      0.0000 
     17 C13        15.2920   46.8160  -44.8930 C.ar      1 TMF318      0.0000 
     18 C14        15.4290   47.9150  -45.6940 C.ar      1 TMF318      0.0000 
     19 C15        16.6640   48.2710  -46.3070 C.ar      1 TMF318      0.0000 
     20 C16        17.8270   47.5180  -46.1260 C.ar      1 TMF318      0.0000 
     21 C          18.8130   45.5280  -44.9620 C.2       1 TMF318      0.0000 
     22 O          19.9620   46.0080  -44.8840 O.2       1 TMF318      0.0000 
     23 N          18.4550   44.1800  -44.7230 N.am      1 TMF318      0.0000 
     24 CA         18.9860   42.8480  -45.2620 C.3       1 TMF318      0.0000 
     25 CB         20.2290   42.4950  -44.4720 C.3       1 TMF318      0.0000 
     26 CG         21.4480   43.2080  -44.9370 C.3       1 TMF318      0.0000 
     27 CD         22.6740   42.6950  -44.1810 C.2       1 TMF318      0.0000 
     28 OE1        23.3090   43.5750  -43.5120 O.co2     1 TMF318      0.0000 
     29 OE2        22.9770   41.4620  -44.2860 O.co2     1 TMF318      0.0000 
     30 CT         18.0070   41.6100  -45.3070 C.2       1 TMF318      0.0000 
     31 O1         16.7990   41.7560  -45.5310 O.co2     1 TMF318      0.0000 
     32 O2         18.3980   40.4600  -45.1510 O.co2     1 TMF318      0.0000 
     33 CP1        13.4720   48.6060  -47.0150 C.3       1 TMF318      0.0000 
     34 H          15.6335   51.8295  -50.6568 H         1 TMF318      0.0000 
     35 H          13.7059   51.7607  -46.2292 H         1 TMF318      0.0000 
     36 H          16.1954   51.8475  -46.6955 H         1 TMF318      0.0000 
     37 H          13.3476   50.0874  -44.7095 H         1 TMF318      0.0000 
     38 H          15.1158   50.2000  -44.6862 H         1 TMF318      0.0000 
     39 H          16.3968   45.2127  -44.1059 H         1 TMF318      0.0000 
     40 H          14.4193   46.5652  -44.4661 H         1 TMF318      0.0000 
     41 H          16.6894   49.1178  -46.9045 H         1 TMF318      0.0000 
     42 H          18.6892   47.7563  -46.5533 H         1 TMF318      0.0000 
     43 H          17.6318   44.0169  -44.0108 H         1 TMF318      0.0000 
     44 H          19.3313   43.0225  -46.3066 H         1 TMF318      0.0000 
     45 H          20.3890   41.4023  -44.5348 H         1 TMF318      0.0000 
     46 H          20.0466   42.7242  -43.4054 H         1 TMF318      0.0000 
     47 H          21.3517   44.2789  -44.7593 H         1 TMF318      0.0000 
     48 H          21.6010   43.0416  -46.0031 H         1 TMF318      0.0000 
     49 H          13.9371   48.0755  -47.8264 H         1 TMF318      0.0000 
     50 H          12.5161   48.1776  -46.7726 H         1 TMF318      0.0000 
     51 H          13.1529   51.5693  -52.8526 H         1 TMF318      0.0000 
@<TRIPOS>BOND
     1    2    1 1    
     2   12    1 1    
     3   34    1 1    
     4    3    2 1    
     5    4    2 2    
     6   51    3 1    
     7    5    4 1    
     8    6    5 2    
     9    7    5 1    
    10    8    7 1    
    11   12    7 2    
    12    9    8 1    
    13   33    8 1    
    14   10    9 1    
    15   13    9 1    
    16   35    9 1    
    17   11   10 2    
    18   36   10 1    
    19   12   11 1    
    20   14   13 1    
    21   37   13 1    
    22   38   13 1    
    23   18   14 1    
    24   33   14 1    
    25   16   15 ar   
    26   20   15 ar   
    27   21   15 1    
    28   17   16 ar   
    29   39   16 1    
    30   18   17 ar   
    31   40   17 1    
    32   19   18 ar   
    33   20   19 ar   
    34   41   19 1    
    35   42   20 1    
    36   22   21 2    
    37   23   21 am   
    38   24   23 1    
    39   43   23 1    
    40   25   24 1    
    41   30   24 1    
    42   44   24 1    
    43   26   25 1    
    44   45   25 1    
    45   46   25 1    
    46   27   26 1    
    47   47   26 1    
    48   48   26 1    
    49   28   27 ar   
    50   29   27 ar   
    51   31   30 ar   
    52   32   30 ar   
    53   49   33 1    
    54   50   33 1    
@<TRIPOS>SUBSTRUCTURE
     1 TMF318      1 GROUP   
@<TRIPOS>SET

