#    Name: 1BD0_1_CAVITY_N1_6.mol2
#    Modification time : Mon Mar 10 14:30:22 2014

@<TRIPOS>MOLECULE
1BD0_1_CAVITY_N1_6.mol2
   67     0     7     0     0
SMALL
NO_CHARGES


@<TRIPOS>ATOM
      1 O          22.9849   10.3819   67.8374 O.2       2 ALA2        0.0000 
      2 O          23.0344   13.7729   61.1480 O.2       2 ALA2        0.0000 
      3 N          21.4856   10.4272   67.8493 N.2       2 ALA2        0.0000 
      4 O          21.5351   13.8183   61.1599 O.2       2 ALA2        0.0000 
      5 CA         24.5201   10.9954   69.8416 C.3       6 GLY6        0.0000 
      6 O          24.5300   11.6736   68.5037 O.2       2 ALA2        0.0000 
      7 CA         23.0208   11.0408   69.8535 C.3       6 GLY6        0.0000 
      8 O          23.0307   11.7190   68.5156 O.2       2 ALA2        0.0000 
      9 N          23.0406   12.3972   67.1777 N.2       2 ALA2        0.0000 
     10 OG         23.0605   13.7536   64.5019 O.2       1 SER1        0.0000 
     11 O          23.0704   14.4318   63.1640 O.2       2 ALA2        0.0000 
     12 CZ         23.0803   15.1100   61.8261 C.ar      5 PHE5        0.0000 
     13 NZ         23.0902   15.7882   60.4883 N.2       4 LYS4        0.0000 
     14 CA         21.5216   11.0862   69.8654 C.3       6 GLY6        0.0000 
     15 CA         21.5315   11.7644   68.5275 C.3       6 GLY6        0.0000 
     16 CA         21.5414   12.4426   67.1896 C.3       6 GLY6        0.0000 
     17 CA         21.5513   13.1208   65.8517 C.3       6 GLY6        0.0000 
     18 O          21.5612   13.7990   64.5138 O.2       2 ALA2        0.0000 
     19 OG         21.5711   14.4772   63.1759 O.2       1 SER1        0.0000 
     20 OG         21.5810   15.1554   61.8381 O.2       1 SER1        0.0000 
     21 N          20.0322   11.8098   68.5394 N.2       2 ALA2        0.0000 
     22 N          20.0421   12.4880   67.2015 N.2       2 ALA2        0.0000 
     23 CA         20.0520   13.1662   65.8636 C.3       6 GLY6        0.0000 
     24 OG         20.0619   13.8444   64.5257 O.2       1 SER1        0.0000 
     25 CA         26.0652   12.2872   70.5078 C.3       6 GLY6        0.0000 
     26 O          26.0751   12.9654   69.1699 O.2       2 ALA2        0.0000 
     27 CA         24.5660   12.3326   70.5197 C.3       6 GLY6        0.0000 
     28 CA         24.5759   13.0108   69.1818 C.3       6 GLY6        0.0000 
     29 OG         24.5858   13.6890   67.8440 O.2       1 SER1        0.0000 
     30 CA         23.0667   12.3780   70.5316 C.3       6 GLY6        0.0000 
     31 CA         23.0766   13.0562   69.1937 C.3       6 GLY6        0.0000 
     32 DU         23.0865   13.7344   67.8559 H         7 CUB7        0.0000 
     33 OG         23.0964   14.4126   66.5180 O.2       1 SER1        0.0000 
     34 OG         23.1063   15.0908   65.1801 O.2       1 SER1        0.0000 
     35 OG         23.1162   15.7690   63.8422 O.2       1 SER1        0.0000 
     36 OG         23.1261   16.4472   62.5043 O.2       1 SER1        0.0000 
     37 NZ         23.1360   17.1254   61.1664 N.2       4 LYS4        0.0000 
     38 OG         21.5773   13.1015   69.2057 O.2       1 SER1        0.0000 
     39 OG         21.5872   13.7797   67.8678 O.2       1 SER1        0.0000 
     40 OG         21.5971   14.4579   66.5299 O.2       1 SER1        0.0000 
     41 OG         21.6070   15.1362   65.1920 O.2       1 SER1        0.0000 
     42 OG         21.6368   17.1708   61.1783 O.2       1 SER1        0.0000 
     43 OG         20.0880   13.8251   67.8797 O.2       1 SER1        0.0000 
     44 OG         20.0979   14.5033   66.5418 O.2       1 SER1        0.0000 
     45 O          27.6103   13.5790   71.1741 O.2       2 ALA2        0.0000 
     46 CA         26.1012   12.9461   72.5239 C.3       6 GLY6        0.0000 
     47 CA         26.1111   13.6243   71.1860 C.3       6 GLY6        0.0000 
     48 O          26.1210   14.3026   69.8481 O.2       2 ALA2        0.0000 
     49 O          26.1309   14.9808   68.5102 O.2       2 ALA2        0.0000 
     50 OD1        24.6316   15.0261   68.5221 O.3       3 ASP3        0.0000 
     51 OG         24.6415   15.7043   67.1842 O.2       1 SER1        0.0000 
     52 CZ         24.6712   17.7390   63.1706 C.ar      5 PHE5        0.0000 
     53 CZ         24.6811   18.4172   61.8327 C.ar      5 PHE5        0.0000 
     54 CA         23.1324   15.0715   68.5340 C.3       6 GLY6        0.0000 
     55 OG         23.1423   15.7497   67.1962 O.2       1 SER1        0.0000 
     56 CZ         23.1522   16.4279   65.8583 C.ar      5 PHE5        0.0000 
     57 CZ         23.1621   17.1061   64.5204 C.ar      5 PHE5        0.0000 
     58 CZ         23.1720   17.7843   63.1825 C.ar      5 PHE5        0.0000 
     59 CZ         23.1819   18.4625   61.8446 C.ar      5 PHE5        0.0000 
     60 OG         21.6430   15.7951   67.2081 O.2       1 SER1        0.0000 
     61 OD1        24.6874   17.0415   67.8624 O.3       3 ASP3        0.0000 
     62 CZ         24.6973   17.7197   66.5245 C.ar      5 PHE5        0.0000 
     63 CZ         24.7072   18.3979   65.1866 C.ar      5 PHE5        0.0000 
     64 CA         24.7270   19.7543   62.5109 C.3       6 GLY6        0.0000 
     65 OD1        23.1881   17.0869   67.8743 O.3       3 ASP3        0.0000 
     66 CZ         23.1980   17.7651   66.5364 C.ar      5 PHE5        0.0000 
     67 CZ         23.2178   19.1215   63.8607 C.ar      5 PHE5        0.0000 
@<TRIPOS>BOND
@<TRIPOS>SUBSTRUCTURE
     1 SER1       10 GROUP   
     2 ALA2        1 GROUP   
     3 ASP3       50 GROUP   
     4 LYS4       13 GROUP   
     5 PHE5       12 GROUP   
     6 GLY6        5 GROUP   
     7 CUB7       32 GROUP   
@<TRIPOS>SET

