#    Name: 1bd0_IN5_1_INTS_M
#    Modification time : Mon Mar 24 19:30:43 2014

@<TRIPOS>MOLECULE
1bd0_IN5_1_INTS_M
   78     0     9     0     0
SMALL
NO_CHARGES


@<TRIPOS>ATOM
      1 CA         21.0985    9.1070   69.1320 C.3       3 GLC5        0.0000 
      2 CA         22.0110   10.4550   68.6300 C.3       9 GLL5        0.0000 
      3 CA         20.1860    7.7590   69.6340 C.3       6 GLP5        0.0000 
      4 CA         25.5060   11.6155   66.9980 C.3       3 GLC5        0.0000 
      5 CA         24.3510   12.0370   68.8320 C.3       9 GLL5        0.0000 
      6 CA         26.6610   11.1940   65.1640 C.3       6 GLP5        0.0000 
      7 N          18.0205   11.9385   65.1835 N.am      1 SEC2        0.0000 
      8 N          18.2590   13.0270   66.0390 N.am      7 SEL2        0.0000 
      9 N          17.7820   10.8500   64.3280 N.am      4 SEP2        0.0000 
     10 N          17.0370   12.9715   65.7335 N.am      1 SEC2        0.0000 
     11 N          15.8150   12.9160   65.4280 N.am      4 SEP2        0.0000 
     12 N          17.4320   12.7455   67.3135 N.am      1 SEC2        0.0000 
     13 N          16.6050   12.4640   68.5880 N.am      4 SEP2        0.0000 
     14 N          17.4625   14.3300   66.7765 N.am      1 SEC2        0.0000 
     15 N          16.6660   15.6330   67.5140 N.am      4 SEP2        0.0000 
     16 N          20.0005   15.5555   64.1470 N.am      1 SEC2        0.0000 
     17 N          19.9910   14.4190   64.6920 N.am      7 SEL2        0.0000 
     18 N          20.0100   16.6920   63.6020 N.am      4 SEP2        0.0000 
     19 CA         18.7130   13.0915   68.5380 C.3       3 GLC5        0.0000 
     20 CA         20.5900   12.3820   67.9800 C.3       9 GLL5        0.0000 
     21 CA         16.8360   13.8010   69.0960 C.3       6 GLP5        0.0000 
     22 CA         25.2420   15.7080   65.6920 C.3       3 GLC5        0.0000 
     23 CA         24.1760   16.0850   67.4540 C.3       9 GLL5        0.0000 
     24 CA         26.3080   15.3310   63.9300 C.3       6 GLP5        0.0000 
     25 CA         21.3680   17.0470   69.1155 C.3       3 GLC5        0.0000 
     26 CA         23.2130   17.1490   68.0300 C.3       9 GLL5        0.0000 
     27 CA         19.5230   16.9450   70.2010 C.3       6 GLP5        0.0000 
     28 CA         21.8270   18.1575   67.1455 C.3       3 GLC5        0.0000 
     29 CA         20.4410   19.1660   66.2610 C.3       6 GLP5        0.0000 
     30 CA         22.5480   18.6950   69.0540 C.3       3 GLC5        0.0000 
     31 CA         21.8830   20.2410   70.0780 C.3       6 GLP5        0.0000 
     32 N          23.1675    8.5700   69.0590 N.am      1 SEC2        0.0000 
     33 N          23.2450    9.8780   68.9890 N.am      7 SEL2        0.0000 
     34 N          23.0900    7.2620   69.1290 N.am      4 SEP2        0.0000 
     35 N          23.6560    8.5245   68.0170 N.am      1 SEC2        0.0000 
     36 N          24.0670    7.1710   67.0450 N.am      4 SEP2        0.0000 
     37 N          26.9395   12.4990   68.4130 N.am      1 SEC2        0.0000 
     38 N          25.4990   12.8120   68.9280 N.am      7 SEL2        0.0000 
     39 N          28.3800   12.1860   67.8980 N.am      4 SEP2        0.0000 
     40 CA         26.3740    8.0805   69.9295 C.3       3 GLC5        0.0000 
     41 CA         25.7350   10.0470   69.4680 C.3       9 GLL5        0.0000 
     42 CA         27.0130    6.1140   70.3910 C.3       6 GLP5        0.0000 
     43 N          19.7275   15.4735   68.3710 N.am      1 SEC2        0.0000 
     44 N          19.3890   15.1350   67.0950 N.am      7 SEL2        0.0000 
     45 N          20.0660   15.8120   69.6470 N.am      4 SEP2        0.0000 
     46 N          18.0275   15.3840   67.3045 N.am      1 SEC2        0.0000 
     47 N          26.6330   19.1485   68.1725 N.am      1 SEC2        0.0000 
     48 N          25.9330   18.3420   67.2930 N.am      7 SEL2        0.0000 
     49 N          27.3330   19.9550   69.0520 N.am      4 SEP2        0.0000 
     50 NZ         27.7660   15.1395   67.5765 N.4       2 LYC4        0.0000 
     51 NZ         26.7320   15.8420   67.1480 N.4       8 LYL4        0.0000 
     52 NZ         29.2460   13.1920   67.9400 N.4       5 LYP4        0.0000 
     53 N          27.7660   15.1395   67.5765 N.am      1 SEC2        0.0000 
     54 N          26.7320   15.8420   67.1480 N.am      7 SEL2        0.0000 
     55 N          28.8000   14.4370   68.0050 N.am      4 SEP2        0.0000 
     56 N          26.2800   15.2340   66.0750 N.am      1 SEC2        0.0000 
     57 N          25.8280   14.6260   65.0020 N.am      4 SEP2        0.0000 
     58 NZ         25.1475   16.6345   70.3975 N.4       2 LYC4        0.0000 
     59 NZ         26.0950   16.7400   69.3110 N.4       8 LYL4        0.0000 
     60 NZ         24.2000   16.5290   71.4840 N.4       5 LYP4        0.0000 
     61 N          25.1475   16.6345   70.3975 N.am      1 SEC2        0.0000 
     62 N          26.0950   16.7400   69.3110 N.am      7 SEL2        0.0000 
     63 N          24.2000   16.5290   71.4840 N.am      4 SEP2        0.0000 
     64 N          26.7140   18.3475   69.1815 N.am      1 SEC2        0.0000 
     65 CA         25.7145   10.1310   67.3772 C.3       3 GLC5        0.0000 
     66 CA         24.4090   10.6550   69.0910 C.3       9 GLL5        0.0000 
     67 CA         26.3570    9.9110   65.4750 C.3       6 GLP5        0.0000 
     68 CA         20.2673   11.4736   69.7656 C.3       3 GLC5        0.0000 
     69 CA         21.9350   11.8260   68.3710 C.3       9 GLL5        0.0000 
     70 CA         19.2530   11.1860   71.2910 C.3       6 GLP5        0.0000 
     71 CA         20.9657   11.0836   66.3856 C.3       3 GLC5        0.0000 
     72 CA         20.6500   10.4060   64.5310 C.3       6 GLP5        0.0000 
     73 CA         23.4138   14.2402   70.0554 C.3       3 GLC5        0.0000 
     74 CA         23.0230   14.0860   68.1890 C.3       9 GLL5        0.0000 
     75 CA         23.4500   15.2700   71.6910 C.3       6 GLP5        0.0000 
     76 CA         23.5722   15.9435   69.7165 C.3       3 GLC5        0.0000 
     77 CA         24.5538   10.8883   71.0629 C.3       3 GLC5        0.0000 
     78 CA         24.0500   11.0800   72.9110 C.3       6 GLP5        0.0000 
@<TRIPOS>BOND
@<TRIPOS>SUBSTRUCTURE
     1 SEC2        7 GROUP        1 X    SEC  0     ROOT SEC X 2
     2 LYC4       50 GROUP        1 X    LYC  0     **** LYC X 4
     3 GLC5        1 GROUP        1 X    GLC  0     **** GLC X 6
     4 SEP2        9 GROUP        1 Y    SEP  0     ROOT SEP Y 9
     5 LYP4       52 GROUP        1 Y    LYP  0     **** LYP Y 11
     6 GLP5        3 GROUP        1 Y    GLP  0     **** GLP Y 13
     7 SEL2        8 GROUP        1 Z    SEL  0     ROOT SEL Z 16
     8 LYL4       51 GROUP        1 Z    LYL  0     **** LYL Z 18
     9 GLL5        2 GROUP        1 Z    GLL  0     **** GLL Z 20
@<TRIPOS>SET

