#    Name: 1bd0_IN5_1_ligand
#    Modification time : Mon Mar 24 19:30:44 2014

@<TRIPOS>MOLECULE
1bd0_IN5_1_ligand
   35    35     1     0     0
SMALL
NO_CHARGES


@<TRIPOS>ATOM
      1 C1         22.0110   10.4550   68.6300 C.ar      1 IN5389      0.0000 
      2 C2         24.4090   10.6550   69.0910 C.ar      1 IN5389      0.0000 
      3 C3         24.3510   12.0370   68.8320 C.ar      1 IN5389      0.0000 
      4 O4         18.2590   13.0270   66.0390 O.co2     1 IN5389      0.0000 
      5 O5         19.9910   14.4190   64.6920 O.co2     1 IN5389      0.0000 
      6 C7         20.5900   12.3820   67.9800 C.3       1 IN5389      0.0000 
      7 C8         23.0230   14.0860   68.1890 C.3       1 IN5389      0.0000 
      8 C9         24.1760   16.0850   67.4540 C.3       1 IN5389      0.0000 
      9 C10        23.2130   17.1490   68.0300 C.3       1 IN5389      0.0000 
     10 N1         23.2450    9.8780   68.9890 N.ar      1 IN5389      0.0000 
     11 C4         23.1130   12.6330   68.4690 C.ar      1 IN5389      0.0000 
     12 C5         21.9350   11.8260   68.3710 C.ar      1 IN5389      0.0000 
     13 O1         25.4990   12.8120   68.9280 O.3       1 IN5389      0.0000 
     14 C6         25.7350   10.0470   69.4680 C.3       1 IN5389      0.0000 
     15 O2         20.7190   12.9560   66.6750 O.3       1 IN5389      0.0000 
     16 N2         24.1090   14.8780   68.2310 N.4       1 IN5389      0.0000 
     17 P1         19.5940   13.8840   66.1360 P.3       1 IN5389      0.0000 
     18 O3         19.3890   15.1350   67.0950 O.co2     1 IN5389      0.0000 
     19 P2         25.7820   16.8880   67.7780 P.3       1 IN5389      0.0000 
     20 O6         25.9330   18.3420   67.2930 O.co2     1 IN5389      0.0000 
     21 O7         26.7320   15.8420   67.1480 O.co2     1 IN5389      0.0000 
     22 O8         26.0950   16.7400   69.3110 O.co2     1 IN5389      0.0000 
     23 H          21.1765    9.8681   68.5605 H         1 IN5389      0.0000 
     24 H          20.2957   13.1271   68.7183 H         1 IN5389      0.0000 
     25 H          19.8636   11.5702   67.9908 H         1 IN5389      0.0000 
     26 H          22.1844   14.4908   68.8848 H         1 IN5389      0.0000 
     27 H          22.4792   14.1777   67.1658 H         1 IN5389      0.0000 
     28 H          24.1439   16.0408   66.4529 H         1 IN5389      0.0000 
     29 H          23.4385   17.3806   68.9763 H         1 IN5389      0.0000 
     30 H          23.2425   17.9996   67.5051 H         1 IN5389      0.0000 
     31 H          22.2641   16.8334   68.0236 H         1 IN5389      0.0000 
     32 H          26.4205   10.1774   68.7517 H         1 IN5389      0.0000 
     33 H          26.1046   10.4515   70.3045 H         1 IN5389      0.0000 
     34 H          25.6605    9.0625   69.6266 H         1 IN5389      0.0000 
     35 H          25.1831   13.7556   68.8290 H         1 IN5389      0.0000 
@<TRIPOS>BOND
     1   10    1 ar   
     2   12    1 ar   
     3   23    1 1    
     4    3    2 ar   
     5   10    2 ar   
     6   14    2 1    
     7   11    3 ar   
     8   13    3 1    
     9   17    4 ar   
    10   17    5 ar   
    11   12    6 1    
    12   15    6 1    
    13   24    6 1    
    14   25    6 1    
    15   11    7 1    
    16   16    7 1    
    17   26    7 1    
    18   27    7 1    
    19    9    8 1    
    20   16    8 1    
    21   19    8 1    
    22   28    8 1    
    23   29    9 1    
    24   30    9 1    
    25   31    9 1    
    26   12   11 ar   
    27   35   13 1    
    28   32   14 1    
    29   33   14 1    
    30   34   14 1    
    31   17   15 1    
    32   18   17 ar   
    33   20   19 ar   
    34   21   19 ar   
    35   22   19 ar   
@<TRIPOS>SUBSTRUCTURE
     1 IN5389      1 GROUP   
@<TRIPOS>SET

