#    Name: 3tyv_HI3_2_INTS_M
#    Modification time : Mon Mar 24 21:10:13 2014

@<TRIPOS>MOLECULE
3tyv_HI3_2_INTS_M
   70     0     9     0     0
SMALL
NO_CHARGES


@<TRIPOS>ATOM
      1 N          26.8250    2.8825    0.5305 N.am      2 SEC2        0.0000 
      2 N          26.2070    1.7040    0.1460 N.am      8 SEL2        0.0000 
      3 N          27.4430    4.0610    0.9150 N.am      5 SEP2        0.0000 
      4 CA         18.3710    2.0980    6.0845 C.3       3 GLC5        0.0000 
      5 CA         19.2440    2.1200    4.3460 C.3       9 GLL5        0.0000 
      6 CA         17.4980    2.0760    7.8230 C.3       6 GLP5        0.0000 
      7 CA         22.1325    4.4855    5.7505 C.3       3 GLC5        0.0000 
      8 CA         21.0840    3.1320    5.3820 C.3       9 GLL5        0.0000 
      9 CA         23.1810    5.8390    6.1190 C.3       6 GLP5        0.0000 
     10 CA         19.2910    2.6040    6.6025 C.3       3 GLC5        0.0000 
     11 O          27.0990    1.4715   -2.4680 O.2       1 ALC1        0.0000 
     12 O          26.3740    0.4660   -1.7800 O.2       7 ALL1        0.0000 
     13 O          27.8240    2.4770   -3.1560 O.2       4 ALP1        0.0000 
     14 CA         23.1870   -4.7965    5.5325 C.3       3 GLC5        0.0000 
     15 CA         24.7610   -3.2910    6.0330 C.3       9 GLL5        0.0000 
     16 CA         21.6130   -6.3020    5.0320 C.3       6 GLP5        0.0000 
     17 CA         25.4245   -4.7265    6.7800 C.3       3 GLC5        0.0000 
     18 CA         26.0880   -6.1620    7.5270 C.3       6 GLP5        0.0000 
     19 CA         20.9460   -0.5870    4.6965 C.3       3 GLC5        0.0000 
     20 CA         20.9800    0.2910    3.1330 C.3       9 GLL5        0.0000 
     21 CA         20.9120   -1.4650    6.2600 C.3       6 GLP5        0.0000 
     22 CA         26.9030   -2.0440    3.0985 C.3       3 GLC5        0.0000 
     23 CA         25.2520   -3.2460    3.7330 C.3       9 GLL5        0.0000 
     24 CA         28.5540   -0.8420    2.4640 C.3       6 GLP5        0.0000 
     25 CA         26.2175   -3.1490   -3.2785 C.3       3 GLC5        0.0000 
     26 CA         25.3190   -1.6350   -1.9840 C.3       9 GLL5        0.0000 
     27 CA         27.1160   -4.6630   -4.5730 C.3       6 GLP5        0.0000 
     28 CA         26.5165   -2.4425   -0.2660 C.3       3 GLC5        0.0000 
     29 CA         24.8030   -1.5220   -0.6440 C.3       9 GLL5        0.0000 
     30 CA         28.2300   -3.3630    0.1120 C.3       6 GLP5        0.0000 
     31 CA         27.4660   -0.9785   -3.8465 C.3       3 GLC5        0.0000 
     32 CA         26.0840   -0.6550   -2.5100 C.3       9 GLL5        0.0000 
     33 CA         28.8480   -1.3020   -5.1830 C.3       6 GLP5        0.0000 
     34 CA         26.9005   -1.1655    0.0385 C.3       3 GLC5        0.0000 
     35 CA         25.0660   -0.4220    0.1210 C.3       9 GLL5        0.0000 
     36 CA         28.7350   -1.9090   -0.0440 C.3       6 GLP5        0.0000 
     37 CA         27.9155   -4.8420    4.5190 C.3       3 GLC5        0.0000 
     38 CA         25.8000   -4.6450    3.7890 C.3       9 GLL5        0.0000 
     39 CA         30.0310   -5.0390    5.2490 C.3       6 GLP5        0.0000 
     40 CA         25.9440   -5.4035    5.6580 C.3       3 GLC5        0.0000 
     41 CA         25.0020   -5.7680    2.6605 C.3       3 GLC5        0.0000 
     42 CA         24.2040   -6.8910    1.5320 C.3       6 GLP5        0.0000 
     43 CA         23.6370    3.2630    4.9690 C.3       3 GLC5        0.0000 
     44 CA         23.0060    1.4270    4.2680 C.3       9 GLL5        0.0000 
     45 CA         24.2680    5.0990    5.6700 C.3       6 GLP5        0.0000 
     46 CA         24.9730    1.5090    4.4750 C.3       3 GLC5        0.0000 
     47 CA         26.9400    1.5910    4.6820 C.3       6 GLP5        0.0000 
     48 CA         19.3035   -0.8790    4.2791 C.3       3 GLC5        0.0000 
     49 CA         19.6070    0.2280    2.9100 C.3       9 GLL5        0.0000 
     50 CA         19.4550   -1.7460    5.9160 C.3       6 GLP5        0.0000 
     51 CA         18.5825   -1.9472    2.3502 C.3       3 GLC5        0.0000 
     52 CA         17.7960   -3.6560    2.2070 C.3       6 GLP5        0.0000 
     53 CA         21.2005    3.1100    6.6723 C.3       3 GLC5        0.0000 
     54 CA         20.6200    2.1880    4.5750 C.3       9 GLL5        0.0000 
     55 CA         21.5490    3.5600    8.3660 C.3       6 GLP5        0.0000 
     56 CA         20.8180    1.3370    6.0831 C.3       3 GLC5        0.0000 
     57 CA         21.1280    0.0310    7.2450 C.3       6 GLP5        0.0000 
     58 CA         24.9548   -2.9463    7.2910 C.3       3 GLC5        0.0000 
     59 CA         24.7460   -2.6360    4.8810 C.3       9 GLL5        0.0000 
     60 CA         25.1560   -2.9290    9.1250 C.3       6 GLP5        0.0000 
     61 CA         22.8328   -2.2142    5.8585 C.3       3 GLC5        0.0000 
     62 CA         22.5630   -1.2348    5.2655 C.3       3 GLC5        0.0000 
     63 CA         24.2050   -1.3460    4.8830 C.3       9 GLL5        0.0000 
     64 CA         21.6950    0.6937    5.6865 C.3       3 GLC5        0.0000 
     65 CA         26.5354   -0.8550    2.6452 C.3       3 GLC5        0.0000 
     66 CA         24.2230   -0.6630    3.6590 C.3       9 GLL5        0.0000 
     67 CA         27.2183   -1.5270   -1.1455 C.3       3 GLC5        0.0000 
     68 CA         21.1895    6.6195    1.1673 C.3       3 GLC5        0.0000 
     69 CA         21.1380    4.3480    2.0520 C.3       9 GLL5        0.0000 
     70 CA         21.7330    8.4980    0.6880 C.3       6 GLP5        0.0000 
@<TRIPOS>BOND
@<TRIPOS>SUBSTRUCTURE
     1 ALC1       11 GROUP        1 X    ALC  0     ROOT ALC X 1
     2 SEC2        1 GROUP        1 X    SEC  0     **** SEC X 2
     3 GLC5        4 GROUP        1 X    GLC  0     **** GLC X 6
     4 ALP1       13 GROUP        1 Y    ALP  0     ROOT ALP Y 8
     5 SEP2        3 GROUP        1 Y    SEP  0     **** SEP Y 9
     6 GLP5        6 GROUP        1 Y    GLP  0     **** GLP Y 13
     7 ALL1       12 GROUP        1 Z    ALL  0     ROOT ALL Z 15
     8 SEL2        2 GROUP        1 Z    SEL  0     **** SEL Z 16
     9 GLL5        5 GROUP        1 Z    GLL  0     **** GLL Z 20
@<TRIPOS>SET

