#    Name: 3tyv_HI3_2_ligand
#    Modification time : Mon Mar 24 21:10:13 2014

@<TRIPOS>MOLECULE
3tyv_HI3_2_ligand
   56    60     1     0     0
SMALL
NO_CHARGES


@<TRIPOS>ATOM
      1 C1         18.7390    1.1340    3.5050 C.ar      1 HI3577      0.0000 
      2 F1         19.1310   -0.7050    2.0770 F         1 HI3577      0.0000 
      3 N1         23.7540    0.5880    3.3370 N.pl3     1 HI3577      0.0000 
      4 O1         26.2070    1.7040    0.1460 O.2       1 HI3577      0.0000 
      5 S1         22.8400    4.5990    1.5260 S.o2      1 HI3577      0.0000 
      6 C2         19.2440    2.1200    4.3460 C.ar      1 HI3577      0.0000 
      7 F2         21.0840    3.1320    5.3820 F         1 HI3577      0.0000 
      8 N2         26.3740    0.4660   -1.7800 N.am      1 HI3577      0.0000 
      9 O2         23.0140    1.9550    0.1680 O.2       1 HI3577      0.0000 
     10 C3         25.2690   -2.5360    2.5370 C.ar      1 HI3577      0.0000 
     11 F3         24.7610   -3.2910    6.0330 F         1 HI3577      0.0000 
     12 N3         23.7010    3.2000    1.9820 N.am      1 HI3577      0.0000 
     13 O3         23.3390    5.6420    2.3950 O.2       1 HI3577      0.0000 
     14 C4         20.9800    0.2910    3.1330 C.ar      1 HI3577      0.0000 
     15 O4         22.8670    4.7520    0.0820 O.2       1 HI3577      0.0000 
     16 C5         24.2050   -1.3460    4.8830 C.ar      1 HI3577      0.0000 
     17 C6         24.7490   -1.2240    2.4960 C.ar      1 HI3577      0.0000 
     18 C7         24.6120   -0.2660    1.4710 C.2       1 HI3577      0.0000 
     19 C8         25.2520   -3.2460    3.7330 C.ar      1 HI3577      0.0000 
     20 C9         21.5180    1.2860    3.9880 C.ar      1 HI3577      0.0000 
     21 C10        24.2230   -0.6630    3.6590 C.ar      1 HI3577      0.0000 
     22 C11        19.6070    0.2280    2.9100 C.ar      1 HI3577      0.0000 
     23 C12        20.6200    2.1880    4.5750 C.ar      1 HI3577      0.0000 
     24 C13        24.7460   -2.6360    4.8810 C.ar      1 HI3577      0.0000 
     25 C14        23.9640    0.8350    1.9990 C.2       1 HI3577      0.0000 
     26 C15        25.3190   -1.6350   -1.9840 C.2       1 HI3577      0.0000 
     27 C16        24.8030   -1.5220   -0.6440 C.2       1 HI3577      0.0000 
     28 C17        26.0840   -0.6550   -2.5100 C.2       1 HI3577      0.0000 
     29 C18        25.0660   -0.4220    0.1210 C.2       1 HI3577      0.0000 
     30 C19        25.9240    0.6710   -0.4850 C.2       1 HI3577      0.0000 
     31 C20        23.5410    2.0020    1.2820 C.2       1 HI3577      0.0000 
     32 C21        20.2820    3.6480    1.0380 C.3       1 HI3577      0.0000 
     33 C22        20.1540    5.1340    1.2410 C.3       1 HI3577      0.0000 
     34 C23        21.1380    4.3480    2.0520 C.3       1 HI3577      0.0000 
     35 C24        25.8000   -4.6450    3.7890 C.3       1 HI3577      0.0000 
     36 C25        23.0060    1.4270    4.2680 C.3       1 HI3577      0.0000 
     37 H          17.7303    1.0772    3.3258 H         1 HI3577      0.0000 
     38 H          18.6149    2.7910    4.7943 H         1 HI3577      0.0000 
     39 H          26.9713    1.2182   -2.2200 H         1 HI3577      0.0000 
     40 H          25.6539   -2.9537    1.6870 H         1 HI3577      0.0000 
     41 H          24.2844    3.3714    2.7634 H         1 HI3577      0.0000 
     42 H          21.6125   -0.3781    2.6835 H         1 HI3577      0.0000 
     43 H          23.8264   -0.9330    5.7103 H         1 HI3577      0.0000 
     44 H          25.0796   -2.4872   -2.5137 H         1 HI3577      0.0000 
     45 H          24.2292   -2.3017   -0.2864 H         1 HI3577      0.0000 
     46 H          26.4602   -0.7445   -3.4774 H         1 HI3577      0.0000 
     47 H          20.8037    3.5003    0.2581 H         1 HI3577      0.0000 
     48 H          19.5646    3.2247    1.4945 H         1 HI3577      0.0000 
     49 H          19.3847    5.2941    1.7755 H         1 HI3577      0.0000 
     50 H          20.6238    5.5697    0.5392 H         1 HI3577      0.0000 
     51 H          20.9294    4.2208    2.8845 H         1 HI3577      0.0000 
     52 H          23.2813    2.4767    4.1549 H         1 HI3577      0.0000 
     53 H          23.1936    1.1275    5.3003 H         1 HI3577      0.0000 
     54 H          26.7661   -4.6760    3.5327 H         1 HI3577      0.0000 
     55 H          25.7275   -5.0358    4.7066 H         1 HI3577      0.0000 
     56 H          25.3125   -5.2599    3.1692 H         1 HI3577      0.0000 
@<TRIPOS>BOND
     1    6    1 ar   
     2   22    1 ar   
     3   37    1 1    
     4   22    2 1    
     5   21    3 1    
     6   25    3 1    
     7   36    3 1    
     8   30    4 2    
     9   12    5 1    
    10   13    5 2    
    11   15    5 2    
    12   34    5 1    
    13   23    6 ar   
    14   38    6 1    
    15   23    7 1    
    16   28    8 1    
    17   30    8 am   
    18   39    8 1    
    19   31    9 2    
    20   17   10 ar   
    21   19   10 ar   
    22   40   10 1    
    23   24   11 1    
    24   31   12 am   
    25   41   12 1    
    26   20   14 ar   
    27   22   14 ar   
    28   42   14 1    
    29   21   16 ar   
    30   24   16 ar   
    31   43   16 1    
    32   18   17 1    
    33   21   17 ar   
    34   25   18 2    
    35   29   18 1    
    36   24   19 ar   
    37   35   19 1    
    38   23   20 ar   
    39   36   20 1    
    40   31   25 1    
    41   27   26 1    
    42   28   26 2    
    43   44   26 1    
    44   29   27 2    
    45   45   27 1    
    46   46   28 1    
    47   30   29 1    
    48   33   32 1    
    49   34   32 1    
    50   47   32 1    
    51   48   32 1    
    52   34   33 1    
    53   49   33 1    
    54   50   33 1    
    55   51   34 1    
    56   54   35 1    
    57   55   35 1    
    58   56   35 1    
    59   52   36 1    
    60   53   36 1    
@<TRIPOS>SUBSTRUCTURE
     1 HI3577      1 GROUP   
@<TRIPOS>SET

