#    Name: 1d5j_MM3_2_INTS_M
#    Modification time : Mon Mar 24 21:31:51 2014

@<TRIPOS>MOLECULE
1d5j_MM3_2_INTS_M
   51     0    12     0     0
SMALL
NO_CHARGES


@<TRIPOS>ATOM
      1 CA          3.4480   51.3030   55.6290 C.3       4 GLC5        0.0000 
      2 CA          3.9920   49.2850   55.0290 C.3      12 GLL5        0.0000 
      3 CA          2.9040   53.3210   56.2290 C.3       8 GLP5        0.0000 
      4 CA          5.1400   50.7530   56.2850 C.3       4 GLC5        0.0000 
      5 CA          6.2880   52.2210   57.5410 C.3       8 GLP5        0.0000 
      6 CA          3.1730   45.6515   56.4155 C.3       4 GLC5        0.0000 
      7 CA          2.6780   47.6740   56.4110 C.3      12 GLL5        0.0000 
      8 CA          3.6680   43.6290   56.4200 C.3       8 GLP5        0.0000 
      9 CA          2.0235   45.6840   58.1015 C.3       4 GLC5        0.0000 
     10 CA          2.6440   47.7290   58.7110 C.3      12 GLL5        0.0000 
     11 CA          1.4030   43.6390   57.4920 C.3       8 GLP5        0.0000 
     12 CA          0.8710   47.5840   58.5420 C.3       4 GLC5        0.0000 
     13 CA         -0.9020   47.4390   58.3730 C.3       8 GLP5        0.0000 
     14 CA          1.3105   47.6045   60.3150 C.3       4 GLC5        0.0000 
     15 CA         -0.0230   47.4800   61.9190 C.3       8 GLP5        0.0000 
     16 CA          4.2845   46.6800   58.6320 C.3       4 GLC5        0.0000 
     17 CA          5.9250   45.6310   58.5530 C.3       8 GLP5        0.0000 
     18 N           4.5120   46.7060   50.5115 N.am      2 SEC2        0.0000 
     19 N           3.8990   47.5460   51.3450 N.am     10 SEL2        0.0000 
     20 N           5.1250   45.8660   49.6780 N.am      6 SEP2        0.0000 
     21 N           3.2485   46.1785   50.8225 N.am      2 SEC2        0.0000 
     22 N           2.5980   44.8110   50.3000 N.am      6 SEP2        0.0000 
     23 Zn          1.3925   50.5405   52.5945 Zn        3 ZIC7        0.0000 
     24 Zn          3.6400   50.4490   51.5440 Zn       11 ZIL7        0.0000 
     25 Zn         -0.8550   50.6320   53.6450 Zn        7 ZIP7        0.0000 
     26 CA          4.2260   50.1405   47.7180 C.3       4 GLC5        0.0000 
     27 CA          3.6110   51.0730   49.0590 C.3      12 GLL5        0.0000 
     28 CA          4.8410   49.2080   46.3770 C.3       8 GLP5        0.0000 
     29 CA          2.5455   48.5830   48.0230 C.3       4 GLC5        0.0000 
     30 CA          1.6700   49.8310   48.8320 C.3      12 GLL5        0.0000 
     31 CA          3.4210   47.3350   47.2140 C.3       8 GLP5        0.0000 
     32 O           0.4445   48.0725   50.9985 O.2       1 ALC1        0.0000 
     33 O           0.3340   49.4750   51.6730 O.2       9 ALL1        0.0000 
     34 O           0.5550   46.6700   50.3240 O.2       5 ALP1        0.0000 
     35 Zn         -0.7320   49.8300   53.1730 Zn        3 ZIC7        0.0000 
     36 Zn         -0.6090   49.0280   52.7010 Zn       11 ZIL7        0.0000 
     37 O          -0.8025   47.7030   53.0725 O.2       1 ALC1        0.0000 
     38 O          -0.6090   49.0280   52.7010 O.2       9 ALL1        0.0000 
     39 O          -0.9960   46.3780   53.4440 O.2       5 ALP1        0.0000 
     40 Zn          0.0595   50.7005   53.4965 Zn        3 ZIC7        0.0000 
     41 Zn          0.9740   50.7690   53.3480 Zn       11 ZIL7        0.0000 
     42 CA          1.2690   48.4275   56.9368 C.3       4 GLC5        0.0000 
     43 CA          3.6540   48.7620   56.3340 C.3      12 GLL5        0.0000 
     44 CA         -0.6280   48.6370   57.5010 C.3       8 GLP5        0.0000 
     45 CA          5.0942   47.9569   56.5536 C.3       4 GLC5        0.0000 
     46 CA          6.9380   47.5650   57.0610 C.3       8 GLP5        0.0000 
     47 CA          1.9093   45.4363   54.8008 C.3       4 GLC5        0.0000 
     48 CA          2.0310   47.0710   55.2600 C.3      12 GLL5        0.0000 
     49 CA          1.6240   43.5460   54.9990 C.3       8 GLP5        0.0000 
     50 CA          0.5758   47.9853   55.3842 C.3       4 GLC5        0.0000 
     51 CA         -1.0430   48.6440   56.1660 C.3       8 GLP5        0.0000 
@<TRIPOS>BOND
@<TRIPOS>SUBSTRUCTURE
     1 ALC1       32 GROUP        1 X    ALC  0     ROOT ALC X 1
     2 SEC2       18 GROUP        1 X    SEC  0     **** SEC X 2
     3 ZIC7       23 GROUP        1 X    ZIC  0     **** ZIC X 5
     4 GLC5        1 GROUP        1 X    GLC  0     **** GLC X 6
     5 ALP1       34 GROUP        1 Y    ALP  0     ROOT ALP Y 8
     6 SEP2       20 GROUP        1 Y    SEP  0     **** SEP Y 9
     7 ZIP7       25 GROUP        1 Y    ZIP  0     **** ZIP Y 12
     8 GLP5        3 GROUP        1 Y    GLP  0     **** GLP Y 13
     9 ALL1       33 GROUP        1 Z    ALL  0     ROOT ALL Z 15
    10 SEL2       19 GROUP        1 Z    SEL  0     **** SEL Z 16
    11 ZIL7       24 GROUP        1 Z    ZIL  0     **** ZIL Z 19
    12 GLL5        2 GROUP        1 Z    GLL  0     **** GLL Z 20
@<TRIPOS>SET

