#    Name: 1d5j_MM3_2_ligand
#    Modification time : Mon Mar 24 21:31:51 2014

@<TRIPOS>MOLECULE
1d5j_MM3_2_ligand
   46    47     1     0     0
SMALL
NO_CHARGES


@<TRIPOS>ATOM
      1 C1          3.3320   48.6440   53.9050 C.ar      1 MM3901      0.0000 
      2 C2          3.9920   49.2850   55.0290 C.ar      1 MM3901      0.0000 
      3 C3          3.6540   48.7620   56.3340 C.ar      1 MM3901      0.0000 
      4 C4          2.6780   47.6740   56.4110 C.ar      1 MM3901      0.0000 
      5 C5          2.0310   47.0710   55.2600 C.ar      1 MM3901      0.0000 
      6 C6          2.3580   47.5820   53.9450 C.ar      1 MM3901      0.0000 
      7 O7          2.1700   47.2280   57.5630 O.3       1 MM3901      0.0000 
      8 C8          2.6440   47.7290   58.7110 C.3       1 MM3901      0.0000 
      9 S9          4.0600   48.9370   52.3140 S.o2      1 MM3901      0.0000 
     10 O10         5.7360   49.1050   52.8420 O.2       1 MM3901      0.0000 
     11 O11         3.8990   47.5460   51.3450 O.2       1 MM3901      0.0000 
     12 N12         3.6400   50.4490   51.5440 N.pl3     1 MM3901      0.0000 
     13 C13         2.2830   50.9710   51.3090 C.3       1 MM3901      0.0000 
     14 C14         1.9680   50.9650   49.7900 C.3       1 MM3901      0.0000 
     15 S15         3.6110   51.0730   49.0590 S.3       1 MM3901      0.0000 
     16 C16         4.4960   52.4670   49.7680 C.3       1 MM3901      0.0000 
     17 C17         5.3950   52.0410   50.9040 C.3       1 MM3901      0.0000 
     18 C18         4.5960   51.4580   52.0330 C.3       1 MM3901      0.0000 
     19 C19         1.4140   52.3290   49.4090 C.3       1 MM3901      0.0000 
     20 C20         1.6700   49.8310   48.8320 C.3       1 MM3901      0.0000 
     21 C           1.1540   50.3890   52.1880 C.2       1 MM3901      0.0000 
     22 NA          0.3340   49.4750   51.6730 N.am      1 MM3901      0.0000 
     23 OA         -0.6090   49.0280   52.7010 O.3       1 MM3901      0.0000 
     24 OB          0.9740   50.7690   53.3480 O.2       1 MM3901      0.0000 
     25 H           4.6228   50.0214   54.9078 H         1 MM3901      0.0000 
     26 H           4.0684   49.1257   57.1606 H         1 MM3901      0.0000 
     27 H           1.3802   46.3262   55.3731 H         1 MM3901      0.0000 
     28 H           1.9401   47.2248   53.1324 H         1 MM3901      0.0000 
     29 H           2.3219   52.0925   51.5698 H         1 MM3901      0.0000 
     30 H           3.6993   53.1189   50.0687 H         1 MM3901      0.0000 
     31 H           5.0254   52.8601   48.9222 H         1 MM3901      0.0000 
     32 H           5.9586   52.9080   51.2625 H         1 MM3901      0.0000 
     33 H           6.1104   51.2978   50.5385 H         1 MM3901      0.0000 
     34 H           5.2838   51.0049   52.7613 H         1 MM3901      0.0000 
     35 H           4.0597   52.2682   52.5474 H         1 MM3901      0.0000 
     36 H           0.3043   49.1183   50.7863 H         1 MM3901      0.0000 
     37 H           3.6246   47.5613   58.8125 H         1 MM3901      0.0000 
     38 H           2.5082   48.7181   58.7687 H         1 MM3901      0.0000 
     39 H           2.1935   47.3244   59.5068 H         1 MM3901      0.0000 
     40 H           2.0679   53.0615   49.5982 H         1 MM3901      0.0000 
     41 H           1.1900   52.3802   48.4358 H         1 MM3901      0.0000 
     42 H           0.5782   52.5446   49.9139 H         1 MM3901      0.0000 
     43 H           2.4247   49.1766   48.7849 H         1 MM3901      0.0000 
     44 H           0.8550   49.3195   49.1041 H         1 MM3901      0.0000 
     45 H           1.5111   50.1625   47.9020 H         1 MM3901      0.0000 
     46 H          -0.4877   48.0366   52.7498 H         1 MM3901      0.0000 
@<TRIPOS>BOND
     1    2    1 ar   
     2    6    1 ar   
     3    9    1 1    
     4    3    2 ar   
     5   25    2 1    
     6    4    3 ar   
     7   26    3 1    
     8    5    4 ar   
     9    7    4 1    
    10    6    5 ar   
    11   27    5 1    
    12   28    6 1    
    13    8    7 1    
    14   37    8 1    
    15   38    8 1    
    16   39    8 1    
    17   10    9 2    
    18   11    9 2    
    19   12    9 1    
    20   13   12 1    
    21   18   12 1    
    22   14   13 1    
    23   21   13 1    
    24   29   13 1    
    25   15   14 1    
    26   19   14 1    
    27   20   14 1    
    28   16   15 1    
    29   17   16 1    
    30   30   16 1    
    31   31   16 1    
    32   18   17 1    
    33   32   17 1    
    34   33   17 1    
    35   34   18 1    
    36   35   18 1    
    37   40   19 1    
    38   41   19 1    
    39   42   19 1    
    40   43   20 1    
    41   44   20 1    
    42   45   20 1    
    43   22   21 am   
    44   24   21 2    
    45   23   22 1    
    46   36   22 1    
    47   46   23 1    
@<TRIPOS>SUBSTRUCTURE
     1 MM3901      1 GROUP   
@<TRIPOS>SET

