#    Name: 2wf4_ZY4_1_INTS_M
#    Modification time : Tue Mar 25 04:17:03 2014

@<TRIPOS>MOLECULE
2wf4_ZY4_1_INTS_M
   83     0     9     0     0
SMALL
NO_CHARGES


@<TRIPOS>ATOM
      1 O          28.2100    0.6860   34.0575 O.2       1 ALC1        0.0000 
      2 O          29.3310    1.5830   33.7160 O.2       7 ALL1        0.0000 
      3 O          27.0890   -0.2110   34.3990 O.2       4 ALP1        0.0000 
      4 CA         26.5625    2.2085   33.5030 C.3       3 GLC5        0.0000 
      5 CA         28.1930    3.6470   33.0360 C.3       9 GLL5        0.0000 
      6 CA         24.9320    0.7700   33.9700 C.3       6 GLP5        0.0000 
      7 CA         26.6350    1.2085   32.7085 C.3       3 GLC5        0.0000 
      8 CA         28.3380    1.6470   31.4470 C.3       9 GLL5        0.0000 
      9 CA         29.7000    4.6105   31.8540 C.3       3 GLC5        0.0000 
     10 CA         29.0240    4.6100   33.8730 C.3       9 GLL5        0.0000 
     11 CA         30.3760    4.6110   29.8350 C.3       6 GLP5        0.0000 
     12 N          32.9245    2.0575   33.9545 N.am      2 SEC2        0.0000 
     13 N          31.4500    2.3370   34.0700 N.am      8 SEL2        0.0000 
     14 N          34.3990    1.7780   33.8390 N.am      5 SEP2        0.0000 
     15 CA         32.5065    2.1215   36.2100 C.3       3 GLC5        0.0000 
     16 CA         31.3800    0.4790   36.3770 C.3       9 GLL5        0.0000 
     17 CA         33.6330    3.7640   36.0430 C.3       6 GLP5        0.0000 
     18 CA         30.4480   -4.2955   30.7920 C.3       3 GLC5        0.0000 
     19 CA         30.3370   -2.1440   30.5080 C.3       9 GLL5        0.0000 
     20 CA         30.5590   -6.4470   31.0760 C.3       6 GLP5        0.0000 
     21 CA         31.4375    2.0260   30.9385 C.3       3 GLC5        0.0000 
     22 CA         30.4490    0.2900   30.8230 C.3       9 GLL5        0.0000 
     23 CA         32.4260    3.7620   31.0540 C.3       6 GLP5        0.0000 
     24 O          26.1570    3.9925   32.1135 O.2       1 ALC1        0.0000 
     25 O          27.7530    4.3990   31.9350 O.2       7 ALL1        0.0000 
     26 O          24.5610    3.5860   32.2920 O.2       4 ALP1        0.0000 
     27 O          26.7920    4.1045   31.2220 O.2       1 ALC1        0.0000 
     28 O          25.8310    3.8100   30.5090 O.2       4 ALP1        0.0000 
     29 CA         29.0800   10.8865   37.4320 C.3       3 GLC5        0.0000 
     30 CA         29.0730    8.9830   36.3680 C.3       9 GLL5        0.0000 
     31 CA         29.0870   12.7900   38.4960 C.3       6 GLP5        0.0000 
     32 CA         26.3730    7.3385   34.5860 C.3       3 GLC5        0.0000 
     33 CA         28.2320    7.9630   35.5740 C.3       9 GLL5        0.0000 
     34 CA         24.5140    6.7140   33.5980 C.3       6 GLP5        0.0000 
     35 CA         30.1195   -5.2590   32.6070 C.3       3 GLC5        0.0000 
     36 CA         29.6800   -4.0710   34.1380 C.3       9 GLL5        0.0000 
     37 CA         26.1760   -4.5455   33.5665 C.3       3 GLC5        0.0000 
     38 CA         28.1460   -3.9230   34.0980 C.3       9 GLL5        0.0000 
     39 CA         24.2060   -5.1680   33.0350 C.3       6 GLP5        0.0000 
     40 N          29.0565   -1.5185   40.4645 N.am      2 SEC2        0.0000 
     41 N          30.3330   -1.3540   39.7620 N.am      8 SEL2        0.0000 
     42 N          27.7800   -1.6830   41.1670 N.am      5 SEP2        0.0000 
     43 N          26.8260    3.9820   35.0500 N.am      2 SEC2        0.0000 
     44 N          27.0700    3.1550   33.7220 N.am      8 SEL2        0.0000 
     45 N          26.5820    4.8090   36.3780 N.am      5 SEP2        0.0000 
     46 O          25.8155    3.3705   33.0070 O.2       1 ALC1        0.0000 
     47 O          27.0700    3.1550   33.7220 O.2       7 ALL1        0.0000 
     48 CA         33.9355    2.0985   37.9175 C.3       3 GLC5        0.0000 
     49 CA         33.3380    0.5830   38.5600 C.3       9 GLL5        0.0000 
     50 CA         34.5330    3.6140   37.2750 C.3       6 GLP5        0.0000 
     51 CA         32.2375    1.6520   39.8735 C.3       3 GLC5        0.0000 
     52 CA         31.1370    2.7210   41.1870 C.3       6 GLP5        0.0000 
     53 CA         29.4294    3.4802   30.9786 C.3       3 GLC5        0.0000 
     54 CA         29.0620    2.4570   32.5590 C.3       9 GLL5        0.0000 
     55 CA         32.6130   -0.1298   34.8137 C.3       3 GLC5        0.0000 
     56 CA         30.7720    0.3180   35.1120 C.3       9 GLL5        0.0000 
     57 CA         34.1500   -0.6580   33.8830 C.3       6 GLP5        0.0000 
     58 CA         28.8387    0.0940   35.9860 C.3       3 GLC5        0.0000 
     59 CA         27.0990    0.5180   37.0760 C.3       6 GLP5        0.0000 
     60 CA         29.9597    0.6315   37.9420 C.3       3 GLC5        0.0000 
     61 CA         28.4200    1.3430   39.0740 C.3       6 GLP5        0.0000 
     62 CA         32.7863   -0.9733   35.4522 C.3       3 GLC5        0.0000 
     63 CA         31.6190   -0.6390   37.2430 C.3       9 GLL5        0.0000 
     64 CA         32.3205   -1.0985   34.4853 C.3       3 GLC5        0.0000 
     65 CA         30.5970   -2.1000   35.4950 C.3       9 GLL5        0.0000 
     66 CA         27.0277   -2.2812   30.5235 C.3       3 GLC5        0.0000 
     67 CA         28.9500   -2.1120   30.7960 C.3       9 GLL5        0.0000 
     68 CA         25.4260   -3.0670   30.0990 C.3       6 GLP5        0.0000 
     69 CA         27.5965    0.8485   29.6221 C.3       3 GLC5        0.0000 
     70 CA         28.3090   -0.8790   31.1000 C.3       9 GLL5        0.0000 
     71 CA         26.6930    1.6410   28.0530 C.3       6 GLP5        0.0000 
     72 CA         29.4312    6.5403   38.7572 C.3       3 GLC5        0.0000 
     73 CA         29.7680    6.1630   36.3840 C.3       9 GLL5        0.0000 
     74 CA         28.7040    6.3860   40.7280 C.3       6 GLP5        0.0000 
     75 CA         27.9597    9.6305   34.9785 C.3       3 GLC5        0.0000 
     76 CA         27.2670   10.7880   33.9860 C.3       6 GLP5        0.0000 
     77 CA         27.2788    8.4120   37.0390 C.3       3 GLC5        0.0000 
     78 CA         25.9050    8.3510   38.1070 C.3       6 GLP5        0.0000 
     79 CA         28.0225   -5.7610   33.8565 C.3       3 GLC5        0.0000 
     80 CA         27.1320   -7.5250   33.5950 C.3       6 GLP5        0.0000 
     81 CA         29.6359   -3.8110   38.4453 C.3       3 GLC5        0.0000 
     82 CA         31.2990   -3.2950   37.3800 C.3       9 GLL5        0.0000 
     83 CA         27.8430   -3.8610   39.0780 C.3       6 GLP5        0.0000 
@<TRIPOS>BOND
@<TRIPOS>SUBSTRUCTURE
     1 ALC1        1 GROUP        1 X    ALC  0     ROOT ALC X 1
     2 SEC2       12 GROUP        1 X    SEC  0     **** SEC X 2
     3 GLC5        4 GROUP        1 X    GLC  0     **** GLC X 6
     4 ALP1        3 GROUP        1 Y    ALP  0     ROOT ALP Y 8
     5 SEP2       14 GROUP        1 Y    SEP  0     **** SEP Y 9
     6 GLP5        6 GROUP        1 Y    GLP  0     **** GLP Y 13
     7 ALL1        2 GROUP        1 Z    ALL  0     ROOT ALL Z 15
     8 SEL2       13 GROUP        1 Z    SEL  0     **** SEL Z 16
     9 GLL5        5 GROUP        1 Z    GLL  0     **** GLL Z 20
@<TRIPOS>SET

