#    Name: 2wf4_ZY4_1_ligand
#    Modification time : Tue Mar 25 04:17:03 2014

@<TRIPOS>MOLECULE
2wf4_ZY4_1_ligand
   77    81     1     0     0
SMALL
NO_CHARGES


@<TRIPOS>ATOM
      1 C1         30.5640    1.4880   34.2700 C.2       1 ZY42000     0.0000 
      2 N2         29.3310    1.5830   33.7160 N.am      1 ZY42000     0.0000 
      3 C3         29.0620    2.4570   32.5590 C.3       1 ZY42000     0.0000 
      4 C4         28.1930    3.6470   33.0360 C.3       1 ZY42000     0.0000 
      5 C5         28.3380    1.6470   31.4470 C.3       1 ZY42000     0.0000 
      6 C6         29.0240    4.6100   33.8730 C.3       1 ZY42000     0.0000 
      7 O7         31.4500    2.3370   34.0700 O.2       1 ZY42000     0.0000 
      8 C8         30.7720    0.3180   35.1120 C.ar      1 ZY42000     0.0000 
      9 C9         31.3800    0.4790   36.3770 C.ar      1 ZY42000     0.0000 
     10 C10        31.6190   -0.6390   37.2430 C.ar      1 ZY42000     0.0000 
     11 C11        31.2260   -1.9380   36.8000 C.ar      1 ZY42000     0.0000 
     12 C12        30.5970   -2.1000   35.4950 C.ar      1 ZY42000     0.0000 
     13 C13        30.3850   -0.9780   34.6800 C.ar      1 ZY42000     0.0000 
     14 C14        29.0440    0.3350   31.1180 C.ar      1 ZY42000     0.0000 
     15 C15        28.3090   -0.8790   31.1000 C.ar      1 ZY42000     0.0000 
     16 C16        28.9500   -2.1120   30.7960 C.ar      1 ZY42000     0.0000 
     17 C17        30.3370   -2.1440   30.5080 C.ar      1 ZY42000     0.0000 
     18 C18        31.0870   -0.9430   30.5210 C.ar      1 ZY42000     0.0000 
     19 C19        30.4490    0.2900   30.8230 C.ar      1 ZY42000     0.0000 
     20 N20        28.3200    5.7790   34.3790 N.4       1 ZY42000     0.0000 
     21 O21        27.7530    4.3990   31.9350 O.3       1 ZY42000     0.0000 
     22 C39        29.1070    6.7680   35.1280 C.3       1 ZY42000     0.0000 
     23 C42        29.7680    6.1630   36.3840 C.3       1 ZY42000     0.0000 
     24 C43        30.5490    7.2260   37.1890 C.3       1 ZY42000     0.0000 
     25 O1         29.6780    8.3260   37.4940 O.3       1 ZY42000     0.0000 
     26 C45        29.0730    8.9830   36.3680 C.3       1 ZY42000     0.0000 
     27 C46        28.2320    7.9630   35.5740 C.3       1 ZY42000     0.0000 
     28 C7         31.2990   -3.2950   37.3800 C.2       1 ZY42000     0.0000 
     29 C57        30.7340   -4.1410   36.4260 C.2       1 ZY42000     0.0000 
     30 N1         30.3240   -3.4630   35.3290 N.pl3     1 ZY42000     0.0000 
     31 N59        32.2340   -0.3880   38.4670 N.pl3     1 ZY42000     0.0000 
     32 S60        31.7670   -1.2190   39.8040 S.o2      1 ZY42000     0.0000 
     33 C61        32.5100   -2.8290   39.6940 C.3       1 ZY42000     0.0000 
     34 C68        29.6800   -4.0710   34.1380 C.3       1 ZY42000     0.0000 
     35 C69        28.1460   -3.9230   34.0980 C.3       1 ZY42000     0.0000 
     36 O79        30.3330   -1.3540   39.7620 O.2       1 ZY42000     0.0000 
     37 O80        32.3320   -0.5510   40.9320 O.2       1 ZY42000     0.0000 
     38 C20        31.8410   -3.8040   38.7220 C.3       1 ZY42000     0.0000 
     39 O2         27.0700    3.1550   33.7220 O.3       1 ZY42000     0.0000 
     40 C2         33.3380    0.5830   38.5600 C.3       1 ZY42000     0.0000 
     41 H          28.5222    1.0481   34.0778 H         1 ZY42000     0.0000 
     42 H          29.9771    2.8431   32.1608 H         1 ZY42000     0.0000 
     43 H          28.2825    2.2683   30.5477 H         1 ZY42000     0.0000 
     44 H          27.3165    1.4393   31.7805 H         1 ZY42000     0.0000 
     45 H          29.9029    4.9242   33.2553 H         1 ZY42000     0.0000 
     46 H          29.4667    4.0275   34.7201 H         1 ZY42000     0.0000 
     47 H          31.6613    1.4167   36.6929 H         1 ZY42000     0.0000 
     48 H          29.9451   -1.0876   33.7584 H         1 ZY42000     0.0000 
     49 H          27.3071   -0.8687   31.3078 H         1 ZY42000     0.0000 
     50 H          28.4066   -2.9757   30.7859 H         1 ZY42000     0.0000 
     51 H          30.7930   -3.0287   30.2922 H         1 ZY42000     0.0000 
     52 H          32.0847   -0.9608   30.3140 H         1 ZY42000     0.0000 
     53 H          30.9885    1.1561   30.8321 H         1 ZY42000     0.0000 
     54 H          29.9039    7.1731   34.5056 H         1 ZY42000     0.0000 
     55 H          30.4542    5.3736   36.0802 H         1 ZY42000     0.0000 
     56 H          28.9960    5.7328   37.0206 H         1 ZY42000     0.0000 
     57 H          31.4010    7.5373   36.5815 H         1 ZY42000     0.0000 
     58 H          30.9260    6.7423   38.0922 H         1 ZY42000     0.0000 
     59 H          29.8213    9.3946   35.6878 H         1 ZY42000     0.0000 
     60 H          28.4064    9.7899   36.6787 H         1 ZY42000     0.0000 
     61 H          27.4272    7.5978   36.2015 H         1 ZY42000     0.0000 
     62 H          27.8191    8.4465   34.6962 H         1 ZY42000     0.0000 
     63 H          30.6537   -5.1083   36.5557 H         1 ZY42000     0.0000 
     64 H          32.4855   -3.1821   40.7232 H         1 ZY42000     0.0000 
     65 H          33.5397   -2.6065   39.4204 H         1 ZY42000     0.0000 
     66 H          29.9180   -5.1517   34.0866 H         1 ZY42000     0.0000 
     67 H          30.0886   -3.6199   33.2124 H         1 ZY42000     0.0000 
     68 H          32.5666   -4.6422   38.5099 H         1 ZY42000     0.0000 
     69 H          30.9970   -4.3193   39.2663 H         1 ZY42000     0.0000 
     70 H          27.8654   -2.9632   34.0959 H         1 ZY42000     0.0000 
     71 H          27.7534   -4.3450   33.2808 H         1 ZY42000     0.0000 
     72 H          27.7106   -4.3539   34.8884 H         1 ZY42000     0.0000 
     73 H          33.6838    0.6638   39.4948 H         1 ZY42000     0.0000 
     74 H          34.1118    0.3220   37.9828 H         1 ZY42000     0.0000 
     75 H          33.0534    1.4976   38.2727 H         1 ZY42000     0.0000 
     76 H          26.7709    4.2202   31.8754 H         1 ZY42000     0.0000 
     77 H          26.2930    3.3601   33.1269 H         1 ZY42000     0.0000 
@<TRIPOS>BOND
     1    2    1 am   
     2    7    1 2    
     3    8    1 1    
     4    3    2 1    
     5   41    2 1    
     6    4    3 1    
     7    5    3 1    
     8   42    3 1    
     9    6    4 1    
    10   21    4 1    
    11   39    4 1    
    12   14    5 1    
    13   43    5 1    
    14   44    5 1    
    15   20    6 1    
    16   45    6 1    
    17   46    6 1    
    18    9    8 ar   
    19   13    8 ar   
    20   10    9 ar   
    21   47    9 1    
    22   11   10 ar   
    23   31   10 1    
    24   12   11 ar   
    25   28   11 1    
    26   13   12 ar   
    27   30   12 1    
    28   48   13 1    
    29   15   14 ar   
    30   19   14 ar   
    31   16   15 ar   
    32   49   15 1    
    33   17   16 ar   
    34   50   16 1    
    35   18   17 ar   
    36   51   17 1    
    37   19   18 ar   
    38   52   18 1    
    39   53   19 1    
    40   22   20 1    
    41   76   21 1    
    42   23   22 1    
    43   27   22 1    
    44   54   22 1    
    45   24   23 1    
    46   55   23 1    
    47   56   23 1    
    48   25   24 1    
    49   57   24 1    
    50   58   24 1    
    51   26   25 1    
    52   27   26 1    
    53   59   26 1    
    54   60   26 1    
    55   61   27 1    
    56   62   27 1    
    57   29   28 2    
    58   38   28 1    
    59   30   29 1    
    60   63   29 1    
    61   34   30 1    
    62   32   31 1    
    63   40   31 1    
    64   33   32 1    
    65   36   32 2    
    66   37   32 2    
    67   38   33 1    
    68   64   33 1    
    69   65   33 1    
    70   35   34 1    
    71   66   34 1    
    72   67   34 1    
    73   70   35 1    
    74   71   35 1    
    75   72   35 1    
    76   68   38 1    
    77   69   38 1    
    78   77   39 1    
    79   73   40 1    
    80   74   40 1    
    81   75   40 1    
@<TRIPOS>SUBSTRUCTURE
     1 ZY42000     1 GROUP   
@<TRIPOS>SET

