#    Name: 3q6w_Q6W_1_INTS_M
#    Modification time : Tue Mar 25 09:01:33 2014

@<TRIPOS>MOLECULE
3q6w_Q6W_1_INTS_M
   83     0     9     0     0
SMALL
NO_CHARGES


@<TRIPOS>ATOM
      1 N          -7.0530   -9.3475  -17.9425 N.am      2 SEC2        0.0000 
      2 N          -6.3860   -8.6130  -16.8900 N.am      8 SEL2        0.0000 
      3 N          -7.7200  -10.0820  -18.9950 N.am      5 SEP2        0.0000 
      4 CA         -7.3115   -7.8125  -17.9075 C.3       3 GLC5        0.0000 
      5 CA         -6.6170   -7.7750  -15.8560 C.3       9 GLL5        0.0000 
      6 CA         -8.0060   -7.8500  -19.9590 C.3       6 GLP5        0.0000 
      7 CA         -8.7325   -7.7105  -17.5060 C.3       3 GLC5        0.0000 
      8 CA         -8.0340   -7.7080  -15.5540 C.3       9 GLL5        0.0000 
      9 CA         -9.4310   -7.7130  -19.4580 C.3       6 GLP5        0.0000 
     10 CA        -10.5630   -6.5290  -15.4315 C.3       3 GLC5        0.0000 
     11 CA         -8.7110   -6.7540  -14.8890 C.3       9 GLL5        0.0000 
     12 CA        -12.4150   -6.3040  -15.9740 C.3       6 GLP5        0.0000 
     13 CA         -8.4020   -5.3470  -16.5205 C.3       3 GLC5        0.0000 
     14 CA         -8.0930   -3.9400  -18.1520 C.3       6 GLP5        0.0000 
     15 CA         -6.5645   -6.6470  -12.1955 C.3       3 GLC5        0.0000 
     16 CA         -6.9250   -5.3440  -13.7590 C.3       9 GLL5        0.0000 
     17 CA         -6.2040   -7.9500  -10.6320 C.3       6 GLP5        0.0000 
     18 CA         -5.3390   -5.7010  -16.6915 C.3       3 GLC5        0.0000 
     19 CA         -4.3010   -7.2240  -15.6800 C.3       9 GLL5        0.0000 
     20 CA         -6.3770   -4.1780  -17.7030 C.3       6 GLP5        0.0000 
     21 CA         -6.3735   -9.0255  -18.7740 C.3       3 GLC5        0.0000 
     22 CA         -5.1190   -8.7360  -17.3050 C.3       9 GLL5        0.0000 
     23 CA         -7.6280   -9.3150  -20.2430 C.3       6 GLP5        0.0000 
     24 CA        -10.8240   -5.4870  -14.8760 C.3       3 GLC5        0.0000 
     25 CA         -9.2330   -4.6700  -13.7780 C.3       9 GLL5        0.0000 
     26 CA         -9.7415   -1.6430  -12.8120 C.3       3 GLC5        0.0000 
     27 CA         -8.8940   -3.5000  -12.9990 C.3       9 GLL5        0.0000 
     28 CA        -10.5890    0.2140  -12.6250 C.3       6 GLP5        0.0000 
     29 CA         -2.2120   -8.7035  -15.2880 C.3       3 GLC5        0.0000 
     30 CA         -2.7090   -8.1840  -17.2860 C.3       9 GLL5        0.0000 
     31 CA         -1.7150   -9.2230  -13.2900 C.3       6 GLP5        0.0000 
     32 CA         -7.0495   -1.6045   -9.8905 C.3       3 GLC5        0.0000 
     33 CA         -7.1680   -2.1060  -11.7920 C.3       9 GLL5        0.0000 
     34 CA         -6.9310   -1.1030   -7.9890 C.3       6 GLP5        0.0000 
     35 CA         -6.3870   -2.0505  -14.4755 C.3       3 GLC5        0.0000 
     36 CA         -6.5250   -1.0660  -12.6940 C.3       9 GLL5        0.0000 
     37 CA         -6.2490   -3.0350  -16.2570 C.3       6 GLP5        0.0000 
     38 O          -5.2295    0.2830  -15.0430 O.2       1 ALC1        0.0000 
     39 O          -4.6470   -0.4730  -14.0310 O.2       7 ALL1        0.0000 
     40 O          -5.8120    1.0390  -16.0550 O.2       4 ALP1        0.0000 
     41 N          -3.7435   -2.6565  -11.3055 N.am      2 SEC2        0.0000 
     42 N          -4.4020   -2.2610  -12.5900 N.am      8 SEL2        0.0000 
     43 N          -3.0850   -3.0520  -10.0210 N.am      5 SEP2        0.0000 
     44 CA         -1.5085   -6.7660  -20.2210 C.3       3 GLC5        0.0000 
     45 CA          0.3670   -7.9060  -20.4130 C.3       9 GLL5        0.0000 
     46 CA         -3.3840   -5.6260  -20.0290 C.3       6 GLP5        0.0000 
     47 CA         -3.5380   -0.7705  -16.3355 C.3       3 GLC5        0.0000 
     48 CA         -3.2680   -0.4040  -14.4410 C.3       9 GLL5        0.0000 
     49 CA         -3.8080   -1.1370  -18.2300 C.3       6 GLP5        0.0000 
     50 CA         -4.7585   -1.7195  -15.3490 C.3       3 GLC5        0.0000 
     51 CA         -2.5335    2.9470  -14.7485 C.3       3 GLC5        0.0000 
     52 CA         -0.9210    2.2550  -13.5880 C.3       9 GLL5        0.0000 
     53 CA         -4.1460    3.6390  -15.9090 C.3       6 GLP5        0.0000 
     54 CA         -5.0802   -8.8538  -14.5263 C.3       3 GLC5        0.0000 
     55 CA         -5.6000   -7.0780  -15.2230 C.3       9 GLL5        0.0000 
     56 CA         -4.0520  -10.2810  -13.5130 C.3       6 GLP5        0.0000 
     57 CA         -7.0172   -8.8163  -14.4432 C.3       3 GLC5        0.0000 
     58 CA         -7.9260  -10.2060  -13.3470 C.3       6 GLP5        0.0000 
     59 CA         -8.1493   -8.7185  -14.2843 C.3       3 GLC5        0.0000 
     60 CA         -6.7241   -5.8726  -16.6249 C.3       3 GLC5        0.0000 
     61 CA         -6.9352   -4.2473  -15.1100 C.3       3 GLC5        0.0000 
     62 CA         -8.3180   -5.5750  -14.1670 C.3       9 GLL5        0.0000 
     63 CA         -3.9845   -7.0105  -18.5295 C.3       3 GLC5        0.0000 
     64 CA         -4.0510   -8.0540  -16.7550 C.3       9 GLL5        0.0000 
     65 CA         -4.3498   -9.2343  -15.1371 C.3       3 GLC5        0.0000 
     66 CA         -9.4587   -4.1310  -11.3778 C.3       3 GLC5        0.0000 
     67 CA         -9.8540   -4.1770   -9.3670 C.3       6 GLP5        0.0000 
     68 CA        -10.3414   -6.1791  -13.1705 C.3       3 GLC5        0.0000 
     69 CA        -11.8090   -6.9410  -12.1880 C.3       6 GLP5        0.0000 
     70 CA         -7.6562   -3.5600  -14.8228 C.3       3 GLC5        0.0000 
     71 CA        -10.0458   -3.4665  -15.0932 C.3       3 GLC5        0.0000 
     72 CA        -11.0280   -2.8480  -16.7980 C.3       6 GLP5        0.0000 
     73 CA         -8.6288   -3.4312  -10.7775 C.3       3 GLC5        0.0000 
     74 CA         -7.6390   -3.2650  -12.5840 C.3       9 GLL5        0.0000 
     75 CA         -6.6735   -3.3822  -14.4985 C.3       3 GLC5        0.0000 
     76 CA         -2.9642   -7.0648  -18.9518 C.3       3 GLC5        0.0000 
     77 CA         -6.6130   -4.3184  -10.8650 C.3       3 GLC5        0.0000 
     78 CA         -6.0930   -5.7190   -9.4640 C.3       6 GLP5        0.0000 
     79 CA         -8.7178   -0.6860  -12.4340 C.3       3 GLC5        0.0000 
     80 CA         -3.5067    1.8622  -14.9723 C.3       3 GLC5        0.0000 
     81 CA         -1.9678    0.3085  -10.2460 C.3       3 GLC5        0.0000 
     82 CA         -2.5960    0.6230  -12.2570 C.3       9 GLL5        0.0000 
     83 CA         -1.7140   -0.4610   -8.5940 C.3       6 GLP5        0.0000 
@<TRIPOS>BOND
@<TRIPOS>SUBSTRUCTURE
     1 ALC1       38 GROUP        1 X    ALC  0     ROOT ALC X 1
     2 SEC2        1 GROUP        1 X    SEC  0     **** SEC X 2
     3 GLC5        4 GROUP        1 X    GLC  0     **** GLC X 6
     4 ALP1       40 GROUP        1 Y    ALP  0     ROOT ALP Y 8
     5 SEP2        3 GROUP        1 Y    SEP  0     **** SEP Y 9
     6 GLP5        6 GROUP        1 Y    GLP  0     **** GLP Y 13
     7 ALL1       39 GROUP        1 Z    ALL  0     ROOT ALL Z 15
     8 SEL2        2 GROUP        1 Z    SEL  0     **** SEL Z 16
     9 GLL5        5 GROUP        1 Z    GLL  0     **** GLL Z 20
@<TRIPOS>SET

