#    Name: 3q6w_Q6W_1_ligand
#    Modification time : Tue Mar 25 09:01:33 2014

@<TRIPOS>MOLECULE
3q6w_Q6W_1_ligand
   68    73     1     0     0
SMALL
NO_CHARGES


@<TRIPOS>ATOM
      1 C          -5.6000   -7.0780  -15.2230 C.ar      1 Q6W1        0.0000 
      2 N          -6.3860   -8.6130  -16.8900 N.ar      1 Q6W1        0.0000 
      3 O          -4.8230   -6.1970  -13.2410 O.2       1 Q6W1        0.0000 
      4 C1         -6.6170   -7.7750  -15.8560 C.ar      1 Q6W1        0.0000 
      5 C2         -8.0340   -7.7080  -15.5540 C.2       1 Q6W1        0.0000 
      6 C3         -8.7110   -6.7540  -14.8890 C.2       1 Q6W1        0.0000 
      7 C4         -8.3180   -5.5750  -14.1670 C.ar      1 Q6W1        0.0000 
      8 C5         -6.9250   -5.3440  -13.7590 C.ar      1 Q6W1        0.0000 
      9 C6         -5.7460   -6.2180  -14.0470 C.2       1 Q6W1        0.0000 
     10 C7         -4.3010   -7.2240  -15.6800 C.ar      1 Q6W1        0.0000 
     11 C8         -4.0510   -8.0540  -16.7550 C.ar      1 Q6W1        0.0000 
     12 C9         -5.1190   -8.7360  -17.3050 C.ar      1 Q6W1        0.0000 
     13 C10        -9.2330   -4.6700  -13.7780 C.ar      1 Q6W1        0.0000 
     14 C11        -8.8940   -3.5000  -12.9990 C.ar      1 Q6W1        0.0000 
     15 C12        -7.6390   -3.2650  -12.5840 C.ar      1 Q6W1        0.0000 
     16 C13        -6.5570   -4.1940  -12.8960 C.ar      1 Q6W1        0.0000 
     17 C14        -2.7090   -8.1840  -17.2860 C.2       1 Q6W1        0.0000 
     18 C15        -7.1680   -2.1060  -11.7920 C.3       1 Q6W1        0.0000 
     19 C16        -6.5250   -1.0660  -12.6940 C.3       1 Q6W1        0.0000 
     20 C17        -5.0890   -1.3600  -13.0670 C.2       1 Q6W1        0.0000 
     21 N18        -4.6470   -0.4730  -14.0310 N.am      1 Q6W1        0.0000 
     22 O19        -4.4020   -2.2610  -12.5900 O.2       1 Q6W1        0.0000 
     23 C20        -2.3800   -8.8230  -18.4630 C.2       1 Q6W1        0.0000 
     24 N21        -1.0300   -8.6380  -18.6100 N.pl3     1 Q6W1        0.0000 
     25 N22        -0.4660   -7.9000  -17.6450 N.2       1 Q6W1        0.0000 
     26 C23        -1.4950   -7.6230  -16.8230 C.2       1 Q6W1        0.0000 
     27 C24        -0.2020   -9.1230  -19.7070 C.3       1 Q6W1        0.0000 
     28 C25         0.9190  -10.0110  -19.1880 C.3       1 Q6W1        0.0000 
     29 C26         1.9230  -10.3500  -20.2840 C.3       1 Q6W1        0.0000 
     30 N27         2.4250   -9.0730  -20.8470 N.4       1 Q6W1        0.0000 
     31 C28         1.3480   -8.2810  -21.5000 C.3       1 Q6W1        0.0000 
     32 C29         0.3670   -7.9060  -20.4130 C.3       1 Q6W1        0.0000 
     33 C30        -3.2680   -0.4040  -14.4410 C.3       1 Q6W1        0.0000 
     34 C31        -2.4670    0.5750  -13.6300 C.ar      1 Q6W1        0.0000 
     35 N32        -1.6360    1.3800  -14.3100 N.ar      1 Q6W1        0.0000 
     36 C33        -0.9210    2.2550  -13.5880 C.ar      1 Q6W1        0.0000 
     37 C34        -0.9860    2.3730  -12.2150 C.ar      1 Q6W1        0.0000 
     38 C35        -1.8470    1.5330  -11.5390 C.ar      1 Q6W1        0.0000 
     39 C36        -2.5960    0.6230  -12.2570 C.ar      1 Q6W1        0.0000 
     40 H          -8.5940   -8.5634  -15.9327 H         1 Q6W1        0.0000 
     41 H          -9.8322   -6.8818  -14.8797 H         1 Q6W1        0.0000 
     42 H          -3.5328   -6.7196  -15.2231 H         1 Q6W1        0.0000 
     43 H          -4.9021   -9.4003  -18.1127 H         1 Q6W1        0.0000 
     44 H         -10.2440   -4.7788  -14.0281 H         1 Q6W1        0.0000 
     45 H          -9.6753   -2.8490  -12.7768 H         1 Q6W1        0.0000 
     46 H          -5.6526   -4.0775  -12.5665 H         1 Q6W1        0.0000 
     47 H          -6.4329   -2.4285  -11.0482 H         1 Q6W1        0.0000 
     48 H          -8.0063   -1.6422  -11.2632 H         1 Q6W1        0.0000 
     49 H          -6.5739   -0.0797  -12.1927 H         1 Q6W1        0.0000 
     50 H          -7.1274   -0.9742  -13.6187 H         1 Q6W1        0.0000 
     51 H          -5.3143    0.1769  -14.4903 H         1 Q6W1        0.0000 
     52 H          -2.9593   -9.2836  -19.0358 H         1 Q6W1        0.0000 
     53 H          -1.4480   -7.1010  -15.9977 H         1 Q6W1        0.0000 
     54 H          -0.7961   -9.6759  -20.4093 H         1 Q6W1        0.0000 
     55 H           0.4924  -10.9374  -18.7934 H         1 Q6W1        0.0000 
     56 H           1.4373   -9.4986  -18.3728 H         1 Q6W1        0.0000 
     57 H           1.4255  -10.9326  -21.0471 H         1 Q6W1        0.0000 
     58 H           2.7340  -10.9202  -19.8523 H         1 Q6W1        0.0000 
     59 H           0.8458   -8.8746  -22.2464 H         1 Q6W1        0.0000 
     60 H           1.7551   -7.3850  -21.9395 H         1 Q6W1        0.0000 
     61 H           0.8685   -7.2652  -19.6760 H         1 Q6W1        0.0000 
     62 H          -0.4567   -7.3271  -20.8507 H         1 Q6W1        0.0000 
     63 H          -3.1905   -0.1145  -15.5099 H         1 Q6W1        0.0000 
     64 H          -2.7842   -1.3998  -14.3596 H         1 Q6W1        0.0000 
     65 H          -0.2494    2.9138  -14.0973 H         1 Q6W1        0.0000 
     66 H          -0.4195    3.0549  -11.7186 H         1 Q6W1        0.0000 
     67 H          -1.9292    1.5840  -10.5185 H         1 Q6W1        0.0000 
     68 H          -3.2429   -0.0121  -11.7741 H         1 Q6W1        0.0000 
@<TRIPOS>BOND
     1    4    1 ar   
     2    9    1 1    
     3   10    1 ar   
     4    4    2 ar   
     5   12    2 ar   
     6    9    3 2    
     7    5    4 1    
     8    6    5 2    
     9   40    5 1    
    10    7    6 1    
    11   41    6 1    
    12    8    7 ar   
    13   13    7 ar   
    14    9    8 1    
    15   16    8 ar   
    16   11   10 ar   
    17   42   10 1    
    18   12   11 ar   
    19   17   11 1    
    20   43   12 1    
    21   14   13 ar   
    22   44   13 1    
    23   15   14 ar   
    24   45   14 1    
    25   16   15 ar   
    26   18   15 1    
    27   46   16 1    
    28   23   17 2    
    29   26   17 1    
    30   19   18 1    
    31   47   18 1    
    32   48   18 1    
    33   20   19 1    
    34   49   19 1    
    35   50   19 1    
    36   21   20 am   
    37   22   20 2    
    38   33   21 1    
    39   51   21 1    
    40   24   23 1    
    41   52   23 1    
    42   25   24 1    
    43   27   24 1    
    44   26   25 2    
    45   53   26 1    
    46   28   27 1    
    47   32   27 1    
    48   54   27 1    
    49   29   28 1    
    50   55   28 1    
    51   56   28 1    
    52   30   29 1    
    53   57   29 1    
    54   58   29 1    
    55   31   30 1    
    56   32   31 1    
    57   59   31 1    
    58   60   31 1    
    59   61   32 1    
    60   62   32 1    
    61   34   33 1    
    62   63   33 1    
    63   64   33 1    
    64   35   34 ar   
    65   39   34 ar   
    66   36   35 ar   
    67   37   36 ar   
    68   65   36 1    
    69   38   37 ar   
    70   66   37 1    
    71   39   38 ar   
    72   67   38 1    
    73   68   39 1    
@<TRIPOS>SUBSTRUCTURE
     1 Q6W1        1 GROUP   
@<TRIPOS>SET

