#    Name: 4jbs_P52_1_INTS_M
#    Modification time : Tue Mar 25 05:44:05 2014

@<TRIPOS>MOLECULE
4jbs_P52_1_INTS_M
   67     0    15     0     0
SMALL
NO_CHARGES


@<TRIPOS>ATOM
      1 Zn         20.7305    4.9970   -0.3200 Zn        4 ZIC7        0.0000 
      2 Zn         20.5360    5.5820    0.7930 Zn       14 ZIL7        0.0000 
      3 Zn         20.9250    4.4120   -1.4330 Zn        9 ZIP7        0.0000 
      4 N          21.6180    6.0870    1.6320 N.am      2 SEC2        0.0000 
      5 N          20.5360    5.5820    0.7930 N.am     12 SEL2        0.0000 
      6 N          22.7000    6.5920    2.4710 N.am      7 SEP2        0.0000 
      7 Zn         20.5515    3.8410   -0.5810 Zn        4 ZIC7        0.0000 
      8 Zn         20.1780    3.2700    0.2710 Zn       14 ZIL7        0.0000 
      9 N          19.5475    2.1885   -0.2710 N.am      2 SEC2        0.0000 
     10 N          20.1780    3.2700    0.2710 N.am     12 SEL2        0.0000 
     11 N          18.9170    1.1070   -0.8130 N.am      7 SEP2        0.0000 
     12 CA         17.2880    3.3065    5.0450 C.3       5 GLC5        0.0000 
     13 CA         16.8340    3.4090    3.0480 C.3      15 GLL5        0.0000 
     14 CA         17.7420    3.2040    7.0420 C.3      10 GLP5        0.0000 
     15 CA         16.3660    5.4655    2.9555 C.3       5 GLC5        0.0000 
     16 CA         15.8980    7.5220    2.8630 C.3      10 GLP5        0.0000 
     17 CA         13.4575    4.0990    2.3285 C.3       5 GLC5        0.0000 
     18 CA         14.4530    2.4320    2.8050 C.3      15 GLL5        0.0000 
     19 CA         12.4620    5.7660    1.8520 C.3      10 GLP5        0.0000 
     20 CA         11.6450    1.7330    2.4460 C.3       5 GLC5        0.0000 
     21 CA         13.6460    1.2870    2.7930 C.3      15 GLL5        0.0000 
     22 CA          9.6440    2.1790    2.0990 C.3      10 GLP5        0.0000 
     23 OD1        16.2310    5.2415    0.6060 O.co2     3 ASC3        0.0000 
     24 OD1        17.6300    5.1390    0.5840 O.co2    13 ASL3        0.0000 
     25 OD1        14.8320    5.3440    0.6280 O.co2     8 ASP3        0.0000 
     26 OD1        17.3905    6.6470   -0.4455 O.co2     3 ASC3        0.0000 
     27 OD1        17.1510    8.1550   -1.4750 O.co2     8 ASP3        0.0000 
     28 OD1        17.9340    6.4605    0.4920 O.co2     3 ASC3        0.0000 
     29 OD1        18.2380    7.7820    0.4000 O.co2     8 ASP3        0.0000 
     30 OD1        17.8760    4.4330   -0.8640 O.co2     3 ASC3        0.0000 
     31 OD1        18.1220    3.7270   -2.3120 O.co2     8 ASP3        0.0000 
     32 O          16.2310    5.2415    0.6060 O.2       1 ALC1        0.0000 
     33 O          17.6300    5.1390    0.5840 O.2      11 ALL1        0.0000 
     34 O          14.8320    5.3440    0.6280 O.2       6 ALP1        0.0000 
     35 O          17.9340    6.4605    0.4920 O.2       1 ALC1        0.0000 
     36 O          18.2380    7.7820    0.4000 O.2       6 ALP1        0.0000 
     37 O          17.8760    4.4330   -0.8640 O.2       1 ALC1        0.0000 
     38 O          18.1220    3.7270   -2.3120 O.2       6 ALP1        0.0000 
     39 CA         17.0660    6.0200    2.2005 C.3       5 GLC5        0.0000 
     40 CA         18.2340    4.5180    1.5380 C.3      15 GLL5        0.0000 
     41 CA         20.9450    5.0360    4.5445 C.3       5 GLC5        0.0000 
     42 CA         20.6630    3.9370    2.6540 C.3      15 GLL5        0.0000 
     43 CA         21.2270    6.1350    6.4350 C.3      10 GLP5        0.0000 
     44 CA         22.3535    2.5725    5.4030 C.3       5 GLC5        0.0000 
     45 CA         22.6460    2.6050    3.4800 C.3      15 GLL5        0.0000 
     46 CA         22.0610    2.5400    7.3260 C.3      10 GLP5        0.0000 
     47 CA         26.2535    4.2100    3.5425 C.3       5 GLC5        0.0000 
     48 CA         24.9390    3.3000    2.6390 C.3      15 GLL5        0.0000 
     49 CA         27.5680    5.1200    4.4460 C.3      10 GLP5        0.0000 
     50 CA         22.3450    1.0270   -0.0440 C.3       5 GLC5        0.0000 
     51 CA         23.5850    1.5330    1.4510 C.3      15 GLL5        0.0000 
     52 CA         21.1050    0.5210   -1.5390 C.3      10 GLP5        0.0000 
     53 CA         21.5685    1.0785    6.1835 C.3       5 GLC5        0.0000 
     54 CA         21.0760   -0.3830    5.0410 C.3      15 GLL5        0.0000 
     55 CA         19.1090   -3.2955    5.1980 C.3       5 GLC5        0.0000 
     56 CA         20.0550   -1.5140    4.9130 C.3      15 GLL5        0.0000 
     57 CA         18.1630   -5.0770    5.4830 C.3      10 GLP5        0.0000 
     58 CA         17.2520   -1.8045    1.0950 C.3       5 GLC5        0.0000 
     59 CA         18.7280   -1.4770    2.7220 C.3      15 GLL5        0.0000 
     60 CA         15.7760   -2.1320   -0.5320 C.3      10 GLP5        0.0000 
     61 CA         15.2918   -1.0945    1.2810 C.3       5 GLC5        0.0000 
     62 CA         15.4950   -0.1410    3.2040 C.3      15 GLL5        0.0000 
     63 CA         23.8343    3.6037    0.7736 C.3       5 GLC5        0.0000 
     64 CA         23.6540    5.0800   -0.5400 C.3      10 GLP5        0.0000 
     65 CA         19.8293   -4.8020   -0.8435 C.3       5 GLC5        0.0000 
     66 CA         20.4450   -3.5650    0.3260 C.3      15 GLL5        0.0000 
     67 CA         18.6360   -5.6900   -2.1210 C.3      10 GLP5        0.0000 
@<TRIPOS>BOND
@<TRIPOS>SUBSTRUCTURE
     1 ALC1       32 GROUP        1 X    ALC  0     ROOT ALC X 1
     2 SEC2        4 GROUP        1 X    SEC  0     **** SEC X 2
     3 ASC3       23 GROUP        1 X    ASC  0     **** ASC X 3
     4 ZIC7        1 GROUP        1 X    ZIC  0     **** ZIC X 5
     5 GLC5       12 GROUP        1 X    GLC  0     **** GLC X 6
     6 ALP1       34 GROUP        1 Y    ALP  0     ROOT ALP Y 8
     7 SEP2        6 GROUP        1 Y    SEP  0     **** SEP Y 9
     8 ASP3       25 GROUP        1 Y    ASP  0     **** ASP Y 10
     9 ZIP7        3 GROUP        1 Y    ZIP  0     **** ZIP Y 12
    10 GLP5       14 GROUP        1 Y    GLP  0     **** GLP Y 13
    11 ALL1       33 GROUP        1 Z    ALL  0     ROOT ALL Z 15
    12 SEL2        5 GROUP        1 Z    SEL  0     **** SEL Z 16
    13 ASL3       24 GROUP        1 Z    ASL  0     **** ASL Z 17
    14 ZIL7        2 GROUP        1 Z    ZIL  0     **** ZIL Z 19
    15 GLL5       13 GROUP        1 Z    GLL  0     **** GLL Z 20
@<TRIPOS>SET

