#    Name: 4jbs_P52_1_ligand
#    Modification time : Tue Mar 25 05:44:05 2014

@<TRIPOS>MOLECULE
4jbs_P52_1_ligand
   73    75     1     0     0
SMALL
NO_CHARGES


@<TRIPOS>ATOM
      1 O1         20.5360    5.5820    0.7930 O.co2     1 P521009     0.0000 
      2 O2         20.1780    3.2700    0.2710 O.co2     1 P521009     0.0000 
      3 C1         16.8340    3.4090    3.0480 C.3       1 P521009     0.0000 
      4 C2         15.8140    2.2780    3.0250 C.ar      1 P521009     0.0000 
      5 C3         14.4530    2.4320    2.8050 C.ar      1 P521009     0.0000 
      6 C4         13.6460    1.2870    2.7930 C.ar      1 P521009     0.0000 
      7 C5         14.1200    0.0270    2.9840 C.ar      1 P521009     0.0000 
      8 C6         15.4950   -0.1410    3.2040 C.ar      1 P521009     0.0000 
      9 N1         17.6300    5.1390    0.5840 N.4       1 P521009     0.0000 
     10 C7         16.3150    0.9970    3.2190 C.ar      1 P521009     0.0000 
     11 C8         17.6830    3.3060    1.7870 C.3       1 P521009     0.0000 
     12 O3         19.5300    1.0650    2.3080 O.2       1 P521009     0.0000 
     13 C9         18.2340    4.5180    1.5380 C.3       1 P521009     0.0000 
     14 C10        20.5060    1.3720    2.9700 C.2       1 P521009     0.0000 
     15 C11        20.6630    3.9370    2.6540 C.3       1 P521009     0.0000 
     16 C12        21.3810    2.5530    2.5660 C.3       1 P521009     0.0000 
     17 N2         20.6530    0.7810    4.2640 N.am      1 P521009     0.0000 
     18 C13        22.6460    2.6050    3.4800 C.3       1 P521009     0.0000 
     19 C14        23.9490    2.1440    2.8080 C.3       1 P521009     0.0000 
     20 C15        24.9390    3.3000    2.6390 C.3       1 P521009     0.0000 
     21 C16        23.5850    1.5330    1.4510 C.3       1 P521009     0.0000 
     22 C17        21.0760   -0.3830    5.0410 C.3       1 P521009     0.0000 
     23 N3         18.8140   -2.0220    1.4600 N.pl3     1 P521009     0.0000 
     24 P1         19.9710    4.3240    1.2620 P.3       1 P521009     0.0000 
     25 C18        22.4550   -0.8760    4.6060 C.2       1 P521009     0.0000 
     26 C19        20.0550   -1.5140    4.9130 C.3       1 P521009     0.0000 
     27 C20        19.7780   -1.8930    3.4870 C.2       1 P521009     0.0000 
     28 C21        18.7280   -1.4770    2.7220 C.2       1 P521009     0.0000 
     29 C22        20.5720   -2.7490    2.6480 C.ar      1 P521009     0.0000 
     30 C23        19.9360   -2.8080    1.3900 C.ar      1 P521009     0.0000 
     31 C24        21.7540   -3.4770    2.8410 C.ar      1 P521009     0.0000 
     32 C25        20.4450   -3.5650    0.3260 C.ar      1 P521009     0.0000 
     33 C26        22.2550   -4.2280    1.7780 C.ar      1 P521009     0.0000 
     34 C27        21.6000   -4.2630    0.5420 C.ar      1 P521009     0.0000 
     35 O4         22.8200   -0.7700    3.4380 O.2       1 P521009     0.0000 
     36 N4         23.2750   -1.6050    5.5220 N.am      1 P521009     0.0000 
     37 H          17.4648    3.3087    3.9167 H         1 P521009     0.0000 
     38 H          16.3212    4.3574    3.0611 H         1 P521009     0.0000 
     39 H          14.0452    3.3505    2.6555 H         1 P521009     0.0000 
     40 H          12.6110    1.4284    2.6244 H         1 P521009     0.0000 
     41 H          13.5074   -0.7886    2.9713 H         1 P521009     0.0000 
     42 H          15.8876   -1.0645    3.3490 H         1 P521009     0.0000 
     43 H          17.3378    0.8706    3.3823 H         1 P521009     0.0000 
     44 H          17.0177    2.9499    0.9842 H         1 P521009     0.0000 
     45 H          18.4252    2.5120    1.9676 H         1 P521009     0.0000 
     46 H          18.2805    5.1178    2.4963 H         1 P521009     0.0000 
     47 H          21.3839    4.7041    2.8924 H         1 P521009     0.0000 
     48 H          19.8930    3.8978    3.4093 H         1 P521009     0.0000 
     49 H          21.7308    2.4190    1.5513 H         1 P521009     0.0000 
     50 H          20.2540    1.5975    5.0762 H         1 P521009     0.0000 
     51 H          22.4555    1.9788    4.3666 H         1 P521009     0.0000 
     52 H          22.7700    3.6402    3.8367 H         1 P521009     0.0000 
     53 H          24.3933    1.3764    3.4174 H         1 P521009     0.0000 
     54 H          21.1382   -0.1193    6.0997 H         1 P521009     0.0000 
     55 H          18.1889   -1.8740    0.7476 H         1 P521009     0.0000 
     56 H          19.1201   -1.1994    5.4012 H         1 P521009     0.0000 
     57 H          20.4312   -2.3900    5.4630 H         1 P521009     0.0000 
     58 H          18.0206   -0.8842    3.0168 H         1 P521009     0.0000 
     59 H          22.2327   -3.4560    3.7363 H         1 P521009     0.0000 
     60 H          19.9619   -3.5834   -0.5650 H         1 P521009     0.0000 
     61 H          23.1274   -4.7703    1.9037 H         1 P521009     0.0000 
     62 H          22.0132   -4.8380   -0.2216 H         1 P521009     0.0000 
     63 H          24.1463   -1.9391    5.1627 H         1 P521009     0.0000 
     64 H          22.9085   -1.7197    6.4453 H         1 P521009     0.0000 
     65 H          18.0385    6.0343    0.4065 H         1 P521009     0.0000 
     66 H          17.6646    4.6258   -0.2736 H         1 P521009     0.0000 
     67 H          16.6647    5.2938    0.7943 H         1 P521009     0.0000 
     68 H          25.1862    3.7087    3.5175 H         1 P521009     0.0000 
     69 H          25.7890    3.0007    2.2055 H         1 P521009     0.0000 
     70 H          24.5621    4.0317    2.0710 H         1 P521009     0.0000 
     71 H          24.3942    1.2109    0.9596 H         1 P521009     0.0000 
     72 H          22.9707    0.7501    1.5490 H         1 P521009     0.0000 
     73 H          23.1254    2.1937    0.8575 H         1 P521009     0.0000 
@<TRIPOS>BOND
     1   24    1 ar   
     2   24    2 ar   
     3    4    3 1    
     4   11    3 1    
     5   37    3 1    
     6   38    3 1    
     7    5    4 ar   
     8   10    4 ar   
     9    6    5 ar   
    10   39    5 1    
    11    7    6 ar   
    12   40    6 1    
    13    8    7 ar   
    14   41    7 1    
    15   10    8 ar   
    16   42    8 1    
    17   13    9 1    
    18   65    9 1    
    19   66    9 1    
    20   67    9 1    
    21   43   10 1    
    22   13   11 1    
    23   44   11 1    
    24   45   11 1    
    25   14   12 2    
    26   24   13 1    
    27   46   13 1    
    28   16   14 1    
    29   17   14 am   
    30   16   15 1    
    31   24   15 1    
    32   47   15 1    
    33   48   15 1    
    34   18   16 1    
    35   49   16 1    
    36   22   17 1    
    37   50   17 1    
    38   19   18 1    
    39   51   18 1    
    40   52   18 1    
    41   20   19 1    
    42   21   19 1    
    43   53   19 1    
    44   68   20 1    
    45   69   20 1    
    46   70   20 1    
    47   71   21 1    
    48   72   21 1    
    49   73   21 1    
    50   25   22 1    
    51   26   22 1    
    52   54   22 1    
    53   28   23 1    
    54   30   23 1    
    55   55   23 1    
    56   35   25 2    
    57   36   25 am   
    58   27   26 1    
    59   56   26 1    
    60   57   26 1    
    61   28   27 2    
    62   29   27 1    
    63   58   28 1    
    64   30   29 ar   
    65   31   29 ar   
    66   32   30 ar   
    67   33   31 ar   
    68   59   31 1    
    69   34   32 ar   
    70   60   32 1    
    71   34   33 ar   
    72   61   33 1    
    73   62   34 1    
    74   63   36 1    
    75   64   36 1    
@<TRIPOS>SUBSTRUCTURE
     1 P521009     1 GROUP   
@<TRIPOS>SET

