#    Name: 2OYL_1_CAVITY_N1_6.mol2
#    Modification time : Tue Mar 11 04:08:21 2014

@<TRIPOS>MOLECULE
2OYL_1_CAVITY_N1_6.mol2
   90     0     7     0     0
SMALL
NO_CHARGES


@<TRIPOS>ATOM
      1 OD1        29.7975   58.1217  -26.0322 O.3       3 ASP3        0.0000 
      2 OD1        29.4194   59.4196  -26.6822 O.3       3 ASP3        0.0000 
      3 O          29.0413   60.7174  -27.3323 O.2       2 ALA2        0.0000 
      4 DU         28.6632   62.0153  -27.9824 H         7 CUB7        0.0000 
      5 CZ         29.1714   57.3698  -27.1691 C.ar      5 PHE5        0.0000 
      6 CZ         28.7932   58.6677  -27.8192 C.ar      5 PHE5        0.0000 
      7 O          28.4151   59.9656  -28.4692 O.2       2 ALA2        0.0000 
      8 O          28.0370   61.2634  -29.1193 O.2       2 ALA2        0.0000 
      9 CZ         27.6589   62.5613  -29.7694 C.ar      5 PHE5        0.0000 
     10 CZ         27.4108   60.5115  -30.2562 C.ar      5 PHE5        0.0000 
     11 CZ         27.0327   61.8094  -30.9063 C.ar      5 PHE5        0.0000 
     12 CZ         26.6546   63.1073  -31.5564 C.ar      5 PHE5        0.0000 
     13 CZ         26.2765   64.4051  -32.2064 C.ar      5 PHE5        0.0000 
     14 NZ         26.7847   59.7597  -31.3931 N.2       4 LYS4        0.0000 
     15 NZ         26.4066   61.0575  -32.0432 N.2       4 LYS4        0.0000 
     16 NZ         26.0285   62.3554  -32.6933 N.2       4 LYS4        0.0000 
     17 N          25.6503   63.6532  -33.3433 N.2       2 ALA2        0.0000 
     18 NZ         25.7804   60.3056  -33.1801 N.2       4 LYS4        0.0000 
     19 NZ         25.4023   61.6035  -33.8302 N.2       4 LYS4        0.0000 
     20 DU         25.0242   62.9013  -34.4803 H         7 CUB7        0.0000 
     21 NZ         25.5323   58.2559  -33.6670 N.2       4 LYS4        0.0000 
     22 NZ         25.1542   59.5537  -34.3170 N.2       4 LYS4        0.0000 
     23 DU         24.7761   60.8516  -34.9671 H         7 CUB7        0.0000 
     24 CA         25.6624   54.9083  -33.5038 C.3       6 GLY6        0.0000 
     25 CA         25.2843   56.2061  -34.1538 C.3       6 GLY6        0.0000 
     26 CA         24.9062   57.5040  -34.8039 C.3       6 GLY6        0.0000 
     27 O          24.5281   58.8019  -35.4540 O.2       2 ALA2        0.0000 
     28 O          24.1500   60.0997  -36.1040 O.2       2 ALA2        0.0000 
     29 O          28.3579   61.4541  -25.4641 O.2       2 ALA2        0.0000 
     30 CZ         28.1098   59.4044  -25.9509 C.ar      5 PHE5        0.0000 
     31 O          27.7317   60.7022  -26.6010 O.2       2 ALA2        0.0000 
     32 O          27.3536   62.0001  -27.2511 O.2       2 ALA2        0.0000 
     33 CZ         26.9755   63.2979  -27.9011 C.ar      5 PHE5        0.0000 
     34 CZ         27.4837   58.6525  -27.0878 C.ar      5 PHE5        0.0000 
     35 CZ         27.1056   59.9503  -27.7379 C.ar      5 PHE5        0.0000 
     36 O          26.7275   61.2482  -28.3880 O.2       2 ALA2        0.0000 
     37 CZ         26.3493   62.5461  -29.0381 C.ar      5 PHE5        0.0000 
     38 CZ         26.4794   59.1985  -28.8748 C.ar      5 PHE5        0.0000 
     39 CZ         26.1013   60.4963  -29.5249 C.ar      5 PHE5        0.0000 
     40 CZ         25.7232   61.7942  -30.1750 C.ar      5 PHE5        0.0000 
     41 CZ         25.4751   59.7444  -30.6618 C.ar      5 PHE5        0.0000 
     42 CZ         25.0970   61.0423  -31.3119 C.ar      5 PHE5        0.0000 
     43 CZ         24.7189   62.3401  -31.9620 C.ar      5 PHE5        0.0000 
     44 CZ         24.3408   63.6380  -32.6120 C.ar      5 PHE5        0.0000 
     45 CZ         25.2271   57.6947  -31.1487 C.ar      5 PHE5        0.0000 
     46 CZ         24.8490   58.9925  -31.7987 C.ar      5 PHE5        0.0000 
     47 CZ         24.4708   60.2904  -32.4488 C.ar      5 PHE5        0.0000 
     48 CZ         24.0927   61.5883  -33.0989 C.ar      5 PHE5        0.0000 
     49 CZ         23.7146   62.8861  -33.7490 C.ar      5 PHE5        0.0000 
     50 NZ         24.9790   55.6449  -31.6355 N.2       4 LYS4        0.0000 
     51 NZ         24.6009   56.9428  -32.2856 N.2       4 LYS4        0.0000 
     52 DU         24.2228   58.2407  -32.9357 H         7 CUB7        0.0000 
     53 DU         23.8447   59.5385  -33.5857 H         7 CUB7        0.0000 
     54 CA         23.4666   60.8364  -34.2358 C.3       6 GLY6        0.0000 
     55 CA         23.0884   62.1342  -34.8859 C.3       6 GLY6        0.0000 
     56 CZ         24.7310   53.5952  -32.1224 C.ar      5 PHE5        0.0000 
     57 NZ         24.3528   54.8931  -32.7724 N.2       4 LYS4        0.0000 
     58 NZ         23.9747   56.1909  -33.4225 N.2       4 LYS4        0.0000 
     59 O          23.5966   57.4888  -34.0726 O.2       2 ALA2        0.0000 
     60 O          23.2185   58.7866  -34.7226 O.2       2 ALA2        0.0000 
     61 O          22.8404   60.0845  -35.3727 O.2       2 ALA2        0.0000 
     62 DU         23.7267   54.1412  -33.9094 H         7 CUB7        0.0000 
     63 CA         23.3486   55.4390  -34.5594 C.3       6 GLY6        0.0000 
     64 O          22.9705   56.7369  -35.2095 O.2       2 ALA2        0.0000 
     65 CZ         26.1741   58.6373  -26.3565 C.ar      5 PHE5        0.0000 
     66 O          25.7960   59.9351  -27.0066 O.2       2 ALA2        0.0000 
     67 CA         25.4179   61.2330  -27.6567 C.3       6 GLY6        0.0000 
     68 NZ         25.5480   57.8854  -27.4934 N.2       4 LYS4        0.0000 
     69 NZ         25.1698   59.1832  -28.1435 N.2       4 LYS4        0.0000 
     70 OG         24.7917   60.4811  -28.7936 O.2       1 SER1        0.0000 
     71 CZ         24.4136   61.7790  -29.4437 C.ar      5 PHE5        0.0000 
     72 CZ         24.9218   57.1335  -28.6304 C.ar      5 PHE5        0.0000 
     73 CZ         24.5437   58.4313  -29.2804 C.ar      5 PHE5        0.0000 
     74 CZ         24.1656   59.7292  -29.9305 C.ar      5 PHE5        0.0000 
     75 CZ         23.7874   61.0271  -30.5806 C.ar      5 PHE5        0.0000 
     76 NZ         23.9175   57.6795  -30.4174 N.2       4 LYS4        0.0000 
     77 CZ         23.5394   58.9773  -31.0674 C.ar      5 PHE5        0.0000 
     78 CZ         23.1613   60.2752  -31.7175 C.ar      5 PHE5        0.0000 
     79 O          22.9132   58.2254  -32.2043 O.2       2 ALA2        0.0000 
     80 CA         22.5351   59.5233  -32.8544 C.3       6 GLY6        0.0000 
     81 NZ         22.6652   56.1757  -32.6912 N.2       4 LYS4        0.0000 
     82 O          21.9089   58.7714  -33.9913 O.2       2 ALA2        0.0000 
     83 CA         22.4171   54.1260  -33.1780 C.3       6 GLY6        0.0000 
     84 O          22.0390   55.4238  -33.8281 O.2       2 ALA2        0.0000 
     85 O          21.6609   56.7217  -34.4782 O.2       2 ALA2        0.0000 
     86 O          30.7290   59.4348  -27.4136 O.2       2 ALA2        0.0000 
     87 O          29.3466   61.2786  -29.8506 O.2       2 ALA2        0.0000 
     88 NZ         26.7118   61.6187  -34.5615 N.2       4 LYS4        0.0000 
     89 NZ         24.2384   57.8702  -26.7621 N.2       4 LYS4        0.0000 
     90 NZ         23.2341   58.4161  -28.5491 N.2       4 LYS4        0.0000 
@<TRIPOS>BOND
@<TRIPOS>SUBSTRUCTURE
     1 SER1       70 GROUP   
     2 ALA2        3 GROUP   
     3 ASP3        1 GROUP   
     4 LYS4       14 GROUP   
     5 PHE5        5 GROUP   
     6 GLY6       24 GROUP   
     7 CUB7        4 GROUP   
@<TRIPOS>SET

