#    Name: 2OYL_1_CAVITY_N1_ALL.mol2
#    Modification time : Tue Mar 11 04:08:21 2014

@<TRIPOS>MOLECULE
2OYL_1_CAVITY_N1_ALL.mol2
  141     0     7     0     0
SMALL
NO_CHARGES


@<TRIPOS>ATOM
      1 OD1        29.7975   58.1217  -26.0322 O.3       3 ASP3        0.0000 
      2 OD1        29.4194   59.4196  -26.6822 O.3       3 ASP3        0.0000 
      3 O          29.0413   60.7174  -27.3323 O.2       2 ALA2        0.0000 
      4 DU         28.6632   62.0153  -27.9824 H         7 CUB7        0.0000 
      5 CZ         29.1714   57.3698  -27.1691 C.ar      5 PHE5        0.0000 
      6 CZ         28.7932   58.6677  -27.8192 C.ar      5 PHE5        0.0000 
      7 O          28.4151   59.9656  -28.4692 O.2       2 ALA2        0.0000 
      8 O          28.0370   61.2634  -29.1193 O.2       2 ALA2        0.0000 
      9 CZ         27.6589   62.5613  -29.7694 C.ar      5 PHE5        0.0000 
     10 N          26.1464   67.7527  -32.3696 N.2       2 ALA2        0.0000 
     11 CZ         27.4108   60.5115  -30.2562 C.ar      5 PHE5        0.0000 
     12 CZ         27.0327   61.8094  -30.9063 C.ar      5 PHE5        0.0000 
     13 CZ         26.6546   63.1073  -31.5564 C.ar      5 PHE5        0.0000 
     14 CZ         26.2765   64.4051  -32.2064 C.ar      5 PHE5        0.0000 
     15 N          25.8984   65.7030  -32.8565 N.2       2 ALA2        0.0000 
     16 NZ         26.7847   59.7597  -31.3931 N.2       4 LYS4        0.0000 
     17 NZ         26.4066   61.0575  -32.0432 N.2       4 LYS4        0.0000 
     18 NZ         26.0285   62.3554  -32.6933 N.2       4 LYS4        0.0000 
     19 N          25.6503   63.6532  -33.3433 N.2       2 ALA2        0.0000 
     20 N          25.2722   64.9511  -33.9934 N.2       2 ALA2        0.0000 
     21 NZ         25.7804   60.3056  -33.1801 N.2       4 LYS4        0.0000 
     22 NZ         25.4023   61.6035  -33.8302 N.2       4 LYS4        0.0000 
     23 DU         25.0242   62.9013  -34.4803 H         7 CUB7        0.0000 
     24 N          24.6461   64.1992  -35.1303 N.2       2 ALA2        0.0000 
     25 NZ         25.5323   58.2559  -33.6670 N.2       4 LYS4        0.0000 
     26 NZ         25.1542   59.5537  -34.3170 N.2       4 LYS4        0.0000 
     27 DU         24.7761   60.8516  -34.9671 H         7 CUB7        0.0000 
     28 DU         24.3980   62.1495  -35.6172 H         7 CUB7        0.0000 
     29 N          24.0199   63.4473  -36.2673 N.2       2 ALA2        0.0000 
     30 CA         25.6624   54.9083  -33.5038 C.3       6 GLY6        0.0000 
     31 CA         25.2843   56.2061  -34.1538 C.3       6 GLY6        0.0000 
     32 CA         24.9062   57.5040  -34.8039 C.3       6 GLY6        0.0000 
     33 O          24.5281   58.8019  -35.4540 O.2       2 ALA2        0.0000 
     34 O          24.1500   60.0997  -36.1040 O.2       2 ALA2        0.0000 
     35 O          23.7718   61.3976  -36.7541 O.2       2 ALA2        0.0000 
     36 CA         23.3937   62.6954  -37.4042 C.3       6 GLY6        0.0000 
     37 CZ         25.0362   54.1564  -34.6407 C.ar      5 PHE5        0.0000 
     38 CA         24.6581   55.4543  -35.2907 C.3       6 GLY6        0.0000 
     39 CA         24.2800   56.7521  -35.9408 C.3       6 GLY6        0.0000 
     40 O          23.9019   58.0500  -36.5909 O.2       2 ALA2        0.0000 
     41 O          23.5238   59.3478  -37.2410 O.2       2 ALA2        0.0000 
     42 CA         24.4101   53.4045  -35.7776 C.3       6 GLY6        0.0000 
     43 O          23.2757   57.2981  -37.7278 O.2       2 ALA2        0.0000 
     44 O          22.8976   58.5959  -38.3779 O.2       2 ALA2        0.0000 
     45 O          28.3579   61.4541  -25.4641 O.2       2 ALA2        0.0000 
     46 CZ         28.1098   59.4044  -25.9509 C.ar      5 PHE5        0.0000 
     47 O          27.7317   60.7022  -26.6010 O.2       2 ALA2        0.0000 
     48 O          27.3536   62.0001  -27.2511 O.2       2 ALA2        0.0000 
     49 CZ         26.9755   63.2979  -27.9011 C.ar      5 PHE5        0.0000 
     50 CZ         27.4837   58.6525  -27.0878 C.ar      5 PHE5        0.0000 
     51 CZ         27.1056   59.9503  -27.7379 C.ar      5 PHE5        0.0000 
     52 O          26.7275   61.2482  -28.3880 O.2       2 ALA2        0.0000 
     53 CZ         26.3493   62.5461  -29.0381 C.ar      5 PHE5        0.0000 
     54 CZ         26.4794   59.1985  -28.8748 C.ar      5 PHE5        0.0000 
     55 CZ         26.1013   60.4963  -29.5249 C.ar      5 PHE5        0.0000 
     56 CZ         25.7232   61.7942  -30.1750 C.ar      5 PHE5        0.0000 
     57 CZ         24.5888   65.6878  -32.1252 C.ar      5 PHE5        0.0000 
     58 CZ         25.4751   59.7444  -30.6618 C.ar      5 PHE5        0.0000 
     59 CZ         25.0970   61.0423  -31.3119 C.ar      5 PHE5        0.0000 
     60 CZ         24.7189   62.3401  -31.9620 C.ar      5 PHE5        0.0000 
     61 CZ         24.3408   63.6380  -32.6120 C.ar      5 PHE5        0.0000 
     62 N          23.9627   64.9359  -33.2621 N.2       2 ALA2        0.0000 
     63 CZ         25.2271   57.6947  -31.1487 C.ar      5 PHE5        0.0000 
     64 CZ         24.8490   58.9925  -31.7987 C.ar      5 PHE5        0.0000 
     65 CZ         24.4708   60.2904  -32.4488 C.ar      5 PHE5        0.0000 
     66 CZ         24.0927   61.5883  -33.0989 C.ar      5 PHE5        0.0000 
     67 CZ         23.7146   62.8861  -33.7490 C.ar      5 PHE5        0.0000 
     68 N          23.3365   64.1840  -34.3990 N.2       2 ALA2        0.0000 
     69 NZ         24.9790   55.6449  -31.6355 N.2       4 LYS4        0.0000 
     70 NZ         24.6009   56.9428  -32.2856 N.2       4 LYS4        0.0000 
     71 DU         24.2228   58.2407  -32.9357 H         7 CUB7        0.0000 
     72 DU         23.8447   59.5385  -33.5857 H         7 CUB7        0.0000 
     73 CA         23.4666   60.8364  -34.2358 C.3       6 GLY6        0.0000 
     74 CA         23.0884   62.1342  -34.8859 C.3       6 GLY6        0.0000 
     75 N          22.7103   63.4321  -35.5359 N.2       2 ALA2        0.0000 
     76 CZ         24.7310   53.5952  -32.1224 C.ar      5 PHE5        0.0000 
     77 NZ         24.3528   54.8931  -32.7724 N.2       4 LYS4        0.0000 
     78 NZ         23.9747   56.1909  -33.4225 N.2       4 LYS4        0.0000 
     79 O          23.5966   57.4888  -34.0726 O.2       2 ALA2        0.0000 
     80 O          23.2185   58.7866  -34.7226 O.2       2 ALA2        0.0000 
     81 O          22.8404   60.0845  -35.3727 O.2       2 ALA2        0.0000 
     82 N          22.4623   61.3824  -36.0228 N.2       2 ALA2        0.0000 
     83 N          22.0842   62.6802  -36.6729 N.2       2 ALA2        0.0000 
     84 CZ         24.1048   52.8433  -33.2593 C.ar      5 PHE5        0.0000 
     85 DU         23.7267   54.1412  -33.9094 H         7 CUB7        0.0000 
     86 CA         23.3486   55.4390  -34.5594 C.3       6 GLY6        0.0000 
     87 O          22.9705   56.7369  -35.2095 O.2       2 ALA2        0.0000 
     88 CZ         23.4786   52.0914  -34.3962 C.ar      5 PHE5        0.0000 
     89 CA         23.1005   53.3893  -35.0463 C.3       6 GLY6        0.0000 
     90 CA         22.7224   54.6871  -35.6963 C.3       6 GLY6        0.0000 
     91 CZ         26.1741   58.6373  -26.3565 C.ar      5 PHE5        0.0000 
     92 O          25.7960   59.9351  -27.0066 O.2       2 ALA2        0.0000 
     93 CA         25.4179   61.2330  -27.6567 C.3       6 GLY6        0.0000 
     94 NZ         25.5480   57.8854  -27.4934 N.2       4 LYS4        0.0000 
     95 NZ         25.1698   59.1832  -28.1435 N.2       4 LYS4        0.0000 
     96 OG         24.7917   60.4811  -28.7936 O.2       1 SER1        0.0000 
     97 CZ         24.4136   61.7790  -29.4437 C.ar      5 PHE5        0.0000 
     98 CZ         24.9218   57.1335  -28.6304 C.ar      5 PHE5        0.0000 
     99 CZ         24.5437   58.4313  -29.2804 C.ar      5 PHE5        0.0000 
    100 CZ         24.1656   59.7292  -29.9305 C.ar      5 PHE5        0.0000 
    101 CZ         23.7874   61.0271  -30.5806 C.ar      5 PHE5        0.0000 
    102 NZ         23.9175   57.6795  -30.4174 N.2       4 LYS4        0.0000 
    103 CZ         23.5394   58.9773  -31.0674 C.ar      5 PHE5        0.0000 
    104 CZ         23.1613   60.2752  -31.7175 C.ar      5 PHE5        0.0000 
    105 O          22.9132   58.2254  -32.2043 O.2       2 ALA2        0.0000 
    106 CA         22.5351   59.5233  -32.8544 C.3       6 GLY6        0.0000 
    107 NZ         22.6652   56.1757  -32.6912 N.2       4 LYS4        0.0000 
    108 O          21.9089   58.7714  -33.9913 O.2       2 ALA2        0.0000 
    109 CA         22.7952   52.8281  -32.5280 C.3       6 GLY6        0.0000 
    110 CA         22.4171   54.1260  -33.1780 C.3       6 GLY6        0.0000 
    111 O          22.0390   55.4238  -33.8281 O.2       2 ALA2        0.0000 
    112 O          21.6609   56.7217  -34.4782 O.2       2 ALA2        0.0000 
    113 NZ         27.1472   58.8323  -36.9166 N.2       4 LYS4        0.0000 
    114 CA         26.8991   56.7826  -37.4034 C.3       6 GLY6        0.0000 
    115 DU         26.5210   58.0804  -38.0535 H         7 CUB7        0.0000 
    116 CA         26.6511   54.7328  -37.8903 C.3       6 GLY6        0.0000 
    117 O          30.7290   59.4348  -27.4136 O.2       2 ALA2        0.0000 
    118 O          29.3466   61.2786  -29.8506 O.2       2 ALA2        0.0000 
    119 NZ         26.7118   61.6187  -34.5615 N.2       4 LYS4        0.0000 
    120 DU         26.3337   62.9166  -35.2116 H         7 CUB7        0.0000 
    121 N          25.9556   64.2144  -35.8617 N.2       2 ALA2        0.0000 
    122 NZ         26.0857   60.8668  -35.6984 N.2       4 LYS4        0.0000 
    123 DU         25.7076   62.1647  -36.3485 H         7 CUB7        0.0000 
    124 N          25.3294   63.4625  -36.9986 N.2       2 ALA2        0.0000 
    125 CA         26.2157   57.5192  -35.5352 C.3       6 GLY6        0.0000 
    126 NZ         25.8376   58.8171  -36.1853 N.2       4 LYS4        0.0000 
    127 DU         25.4595   60.1149  -36.8354 H         7 CUB7        0.0000 
    128 DU         25.0814   61.4128  -37.4854 H         7 CUB7        0.0000 
    129 N          24.7033   62.7107  -38.1355 N.2       2 ALA2        0.0000 
    130 CA         26.3458   54.1716  -35.3720 C.3       6 GLY6        0.0000 
    131 CA         25.9677   55.4695  -36.0221 C.3       6 GLY6        0.0000 
    132 CA         25.5896   56.7673  -36.6721 C.3       6 GLY6        0.0000 
    133 DU         25.2115   58.0652  -37.3222 H         7 CUB7        0.0000 
    134 DU         24.8333   59.3631  -37.9723 H         7 CUB7        0.0000 
    135 CA         24.4552   60.6609  -38.6223 C.3       6 GLY6        0.0000 
    136 CA         25.3415   54.7176  -37.1590 C.3       6 GLY6        0.0000 
    137 CA         24.9634   56.0155  -37.8090 C.3       6 GLY6        0.0000 
    138 CA         24.5853   57.3133  -38.4591 C.3       6 GLY6        0.0000 
    139 CA         24.2072   58.6112  -39.1092 C.3       6 GLY6        0.0000 
    140 NZ         24.2384   57.8702  -26.7621 N.2       4 LYS4        0.0000 
    141 NZ         23.2341   58.4161  -28.5491 N.2       4 LYS4        0.0000 
@<TRIPOS>BOND
@<TRIPOS>SUBSTRUCTURE
     1 SER1       96 GROUP   
     2 ALA2        3 GROUP   
     3 ASP3        1 GROUP   
     4 LYS4       16 GROUP   
     5 PHE5        5 GROUP   
     6 GLY6       30 GROUP   
     7 CUB7        4 GROUP   
@<TRIPOS>SET

