#    Name: 2oyl_IDC_1_INTS_M
#    Modification time : Mon Mar 24 18:01:30 2014

@<TRIPOS>MOLECULE
2oyl_IDC_1_INTS_M
   53     0     9     0     0
SMALL
NO_CHARGES


@<TRIPOS>ATOM
      1 CA         28.2880   58.2405  -28.3780 C.3       3 GLC5        0.0000 
      2 CA         28.6580   59.0970  -26.4550 C.3       9 GLL5        0.0000 
      3 CA         27.9180   57.3840  -30.3010 C.3       6 GLP5        0.0000 
      4 CA         29.3475   59.7640  -23.3170 C.3       3 GLC5        0.0000 
      5 CA         29.6170   59.8630  -25.5440 C.3       9 GLL5        0.0000 
      6 CA         29.0780   59.6650  -21.0900 C.3       6 GLP5        0.0000 
      7 CA         29.8265   57.5110  -28.7485 C.3       3 GLC5        0.0000 
      8 CA         30.3640   57.4790  -26.9800 C.3       9 GLL5        0.0000 
      9 CA         29.2890   57.5430  -30.5170 C.3       6 GLP5        0.0000 
     10 CA         29.3390   54.4480  -27.0105 C.3       3 GLC5        0.0000 
     11 CA         30.6090   55.9670  -26.9480 C.3       9 GLL5        0.0000 
     12 CA         28.0690   52.9290  -27.0730 C.3       6 GLP5        0.0000 
     13 CA         30.3835   56.2060  -28.8235 C.3       3 GLC5        0.0000 
     14 CA         30.1580   56.4450  -30.6990 C.3       6 GLP5        0.0000 
     15 N          27.6630   61.5485  -25.0705 N.am      2 SEC2        0.0000 
     16 N          29.3000   61.2320  -25.5330 N.am      8 SEL2        0.0000 
     17 N          26.0260   61.8650  -24.6080 N.am      5 SEP2        0.0000 
     18 N          29.3905   56.0720  -24.7895 N.am      2 SEC2        0.0000 
     19 N          30.3900   55.4390  -25.6330 N.am      8 SEL2        0.0000 
     20 N          28.3910   56.7050  -23.9460 N.am      5 SEP2        0.0000 
     21 N          31.1970   54.4295  -25.3775 N.am      2 SEC2        0.0000 
     22 N          32.0040   53.4200  -25.1220 N.am      5 SEP2        0.0000 
     23 CA         25.9565   56.6480  -28.8270 C.3       3 GLC5        0.0000 
     24 CA         24.4830   57.1950  -27.3960 C.3       9 GLL5        0.0000 
     25 CA         27.4300   56.1010  -30.2580 C.3       6 GLP5        0.0000 
     26 CA         27.1410   58.0825  -28.5990 C.3       3 GLC5        0.0000 
     27 CA         26.3640   58.7810  -26.8970 C.3       9 GLL5        0.0000 
     28 CA         25.5675   60.4070  -25.6590 C.3       3 GLC5        0.0000 
     29 CA         25.5960   59.9910  -27.4510 C.3       9 GLL5        0.0000 
     30 CA         25.5390   60.8230  -23.8670 C.3       6 GLP5        0.0000 
     31 CA         25.7560   61.8790  -26.4775 C.3       3 GLC5        0.0000 
     32 CA         26.5310   61.0610  -28.0110 C.3       9 GLL5        0.0000 
     33 CA         24.9810   62.6970  -24.9440 C.3       6 GLP5        0.0000 
     34 CA         26.1235   63.0070  -28.6805 C.3       3 GLC5        0.0000 
     35 CA         25.7160   64.9530  -29.3500 C.3       6 GLP5        0.0000 
     36 N          23.1920   55.0765  -26.3075 N.am      2 SEC2        0.0000 
     37 N          23.3330   56.5350  -26.8220 N.am      8 SEL2        0.0000 
     38 N          23.0510   53.6180  -25.7930 N.am      5 SEP2        0.0000 
     39 O          22.6970   57.9300  -26.5785 O.2       1 ALC1        0.0000 
     40 O          23.3330   56.5350  -26.8220 O.2       7 ALL1        0.0000 
     41 O          22.0610   59.3250  -26.3350 O.2       4 ALP1        0.0000 
     42 O          22.5485   57.0620  -25.9275 O.2       1 ALC1        0.0000 
     43 O          21.7640   57.5890  -25.0330 O.2       4 ALP1        0.0000 
     44 N          27.1920   56.7480  -24.7495 N.am      2 SEC2        0.0000 
     45 N          25.9930   56.7910  -25.5530 N.am      8 SEL2        0.0000 
     46 N          25.4735   55.8015  -24.5145 N.am      2 SEC2        0.0000 
     47 N          24.9540   54.8120  -23.4760 N.am      5 SEP2        0.0000 
     48 O          26.1635   55.6695  -26.2685 O.2       1 ALC1        0.0000 
     49 O          25.9930   56.7910  -25.5530 O.2       7 ALL1        0.0000 
     50 O          26.3340   54.5480  -26.9840 O.2       4 ALP1        0.0000 
     51 CA         27.6683   59.6065  -24.6517 C.3       3 GLC5        0.0000 
     52 CA         26.1990   59.7330  -23.3040 C.3       6 GLP5        0.0000 
     53 CA         26.0237   59.0190  -24.9495 C.3       3 GLC5        0.0000 
@<TRIPOS>BOND
@<TRIPOS>SUBSTRUCTURE
     1 ALC1       39 GROUP        1 X    ALC  0     ROOT ALC X 1
     2 SEC2       15 GROUP        1 X    SEC  0     **** SEC X 2
     3 GLC5        1 GROUP        1 X    GLC  0     **** GLC X 6
     4 ALP1       41 GROUP        1 Y    ALP  0     ROOT ALP Y 8
     5 SEP2       17 GROUP        1 Y    SEP  0     **** SEP Y 9
     6 GLP5        3 GROUP        1 Y    GLP  0     **** GLP Y 13
     7 ALL1       40 GROUP        1 Z    ALL  0     ROOT ALL Z 15
     8 SEL2       16 GROUP        1 Z    SEL  0     **** SEL Z 16
     9 GLL5        2 GROUP        1 Z    GLL  0     **** GLL Z 20
@<TRIPOS>SET

