#    Name: 2oyl_IDC_1_ligand
#    Modification time : Mon Mar 24 18:01:30 2014

@<TRIPOS>MOLECULE
2oyl_IDC_1_ligand
   47    49     1     0     0
SMALL
NO_CHARGES


@<TRIPOS>ATOM
      1 C1A        28.6580   59.0970  -26.4550 C.3       1 IDC600      0.0000 
      2 C2A        29.6170   59.8630  -25.5440 C.3       1 IDC600      0.0000 
      3 C3A        31.0650   59.6880  -26.0140 C.3       1 IDC600      0.0000 
      4 C4A        31.4030   58.2110  -26.1100 C.3       1 IDC600      0.0000 
      5 C5A        30.3640   57.4790  -26.9800 C.3       1 IDC600      0.0000 
      6 C6A        30.6090   55.9670  -26.9480 C.3       1 IDC600      0.0000 
      7 O2A        29.3000   61.2320  -25.5330 O.3       1 IDC600      0.0000 
      8 O3A        31.9270   60.3160  -25.0700 O.3       1 IDC600      0.0000 
      9 O4A        32.7210   58.0680  -26.6760 O.3       1 IDC600      0.0000 
     10 O5A        29.0110   57.7000  -26.4710 O.3       1 IDC600      0.0000 
     11 O6A        30.3900   55.4390  -25.6330 O.3       1 IDC600      0.0000 
     12 C1B        24.1230   58.2290  -28.4830 C.2       1 IDC600      0.0000 
     13 C2B        24.4830   57.1950  -27.3960 C.3       1 IDC600      0.0000 
     14 C3B        25.3330   57.8290  -26.2930 C.3       1 IDC600      0.0000 
     15 C4B        26.3640   58.7810  -26.8970 C.3       1 IDC600      0.0000 
     16 C5B        25.5960   59.9910  -27.4510 C.3       1 IDC600      0.0000 
     17 C6B        26.5310   61.0610  -28.0110 C.3       1 IDC600      0.0000 
     18 O2B        23.3330   56.5350  -26.8220 O.3       1 IDC600      0.0000 
     19 O3B        25.9930   56.7910  -25.5530 O.3       1 IDC600      0.0000 
     20 O4B        27.3320   59.1620  -25.9120 O.3       1 IDC600      0.0000 
     21 N1B        24.6780   59.5290  -28.5060 N.pl3     1 IDC600      0.0000 
     22 O6B        27.3190   60.5550  -29.0880 O.3       1 IDC600      0.0000 
     23 N2B        23.3520   58.1390  -29.5630 N.2       1 IDC600      0.0000 
     24 C7B        23.3950   59.3050  -30.2150 C.2       1 IDC600      0.0000 
     25 C8B        24.1950   60.1500  -29.5720 C.2       1 IDC600      0.0000 
     26 H          28.6960   59.5132  -27.4294 H         1 IDC600      0.0000 
     27 H          29.5455   59.4326  -24.5485 H         1 IDC600      0.0000 
     28 H          31.1564   60.1293  -26.9870 H         1 IDC600      0.0000 
     29 H          31.3644   57.7885  -25.1172 H         1 IDC600      0.0000 
     30 H          30.4495   57.8145  -27.9895 H         1 IDC600      0.0000 
     31 H          31.6400   55.7894  -27.2884 H         1 IDC600      0.0000 
     32 H          29.9368   55.5050  -27.6862 H         1 IDC600      0.0000 
     33 H          25.1329   56.4360  -27.8856 H         1 IDC600      0.0000 
     34 H          24.6768   58.4008  -25.6538 H         1 IDC600      0.0000 
     35 H          26.8213   58.2730  -27.7355 H         1 IDC600      0.0000 
     36 H          25.0220   60.4240  -26.6400 H         1 IDC600      0.0000 
     37 H          27.1622   61.4199  -27.1800 H         1 IDC600      0.0000 
     38 H          25.9079   61.9141  -28.3299 H         1 IDC600      0.0000 
     39 H          22.9083   59.5033  -31.0427 H         1 IDC600      0.0000 
     40 H          24.3899   61.0642  -29.8397 H         1 IDC600      0.0000 
     41 H          29.5197   61.5410  -24.6077 H         1 IDC600      0.0000 
     42 H          32.2675   61.1335  -25.5345 H         1 IDC600      0.0000 
     43 H          32.8113   58.8301  -27.3172 H         1 IDC600      0.0000 
     44 H          31.0156   55.9485  -25.0422 H         1 IDC600      0.0000 
     45 H          22.9777   57.1779  -26.1435 H         1 IDC600      0.0000 
     46 H          26.0407   56.0151  -26.1821 H         1 IDC600      0.0000 
     47 H          26.9534   60.9982  -29.9065 H         1 IDC600      0.0000 
@<TRIPOS>BOND
     1    2    1 1    
     2   10    1 1    
     3   20    1 1    
     4   26    1 1    
     5    3    2 1    
     6    7    2 1    
     7   27    2 1    
     8    4    3 1    
     9    8    3 1    
    10   28    3 1    
    11    5    4 1    
    12    9    4 1    
    13   29    4 1    
    14    6    5 1    
    15   10    5 1    
    16   30    5 1    
    17   11    6 1    
    18   31    6 1    
    19   32    6 1    
    20   41    7 1    
    21   42    8 1    
    22   43    9 1    
    23   44   11 1    
    24   13   12 1    
    25   21   12 1    
    26   23   12 2    
    27   14   13 1    
    28   18   13 1    
    29   33   13 1    
    30   15   14 1    
    31   19   14 1    
    32   34   14 1    
    33   16   15 1    
    34   20   15 1    
    35   35   15 1    
    36   17   16 1    
    37   21   16 1    
    38   36   16 1    
    39   22   17 1    
    40   37   17 1    
    41   38   17 1    
    42   45   18 1    
    43   46   19 1    
    44   25   21 1    
    45   47   22 1    
    46   24   23 1    
    47   25   24 2    
    48   39   24 1    
    49   40   25 1    
@<TRIPOS>SUBSTRUCTURE
     1 IDC600      1 GROUP   
@<TRIPOS>SET

