#    Name: 4fkg_4CK_1_INTS_M
#    Modification time : Mon Mar 24 20:12:56 2014

@<TRIPOS>MOLECULE
4fkg_4CK_1_INTS_M
   50     0    12     0     0
SMALL
NO_CHARGES


@<TRIPOS>ATOM
      1 O           0.4475   -2.3130  -29.4530 O.2       1 ALC1        0.0000 
      2 O           0.7420   -3.6060  -28.9810 O.2       9 ALL1        0.0000 
      3 O           0.1530   -1.0200  -29.9250 O.2       5 ALP1        0.0000 
      4 N           2.7695   -3.3230  -30.0655 N.am      2 SEC2        0.0000 
      5 N           1.7410   -4.1850  -29.4630 N.am     10 SEL2        0.0000 
      6 N           3.7980   -2.4610  -30.6680 N.am      6 SEP2        0.0000 
      7 O           3.8390   -5.5865  -30.0195 O.2       1 ALC1        0.0000 
      8 O           2.6910   -6.3260  -29.4210 O.2       9 ALL1        0.0000 
      9 O           4.9870   -4.8470  -30.6180 O.2       5 ALP1        0.0000 
     10 NZ          9.0315  -12.4040  -30.5420 N.4       3 LYC4        0.0000 
     11 NZ          7.8180  -11.5870  -30.4490 N.4      11 LYL4        0.0000 
     12 NZ         10.2450  -13.2210  -30.6350 N.4       7 LYP4        0.0000 
     13 N           9.0315  -12.4040  -30.5420 N.am      2 SEC2        0.0000 
     14 N           7.8180  -11.5870  -30.4490 N.am     10 SEL2        0.0000 
     15 N          10.2450  -13.2210  -30.6350 N.am      6 SEP2        0.0000 
     16 CA          5.3295   -8.9605  -26.5590 C.3       4 GLC5        0.0000 
     17 CA          4.7750   -9.2550  -28.6590 C.3      12 GLL5        0.0000 
     18 CA          5.8840   -8.6660  -24.4590 C.3       8 GLP5        0.0000 
     19 CA          0.5475   -6.9390  -29.9355 C.3       4 GLC5        0.0000 
     20 CA          0.6100   -5.6860  -28.3120 C.3      12 GLL5        0.0000 
     21 CA          0.4850   -8.1920  -31.5590 C.3       8 GLP5        0.0000 
     22 CA         -1.0045   -4.1580  -24.6790 C.3       4 GLC5        0.0000 
     23 CA         -1.7720   -4.6760  -26.3120 C.3      12 GLL5        0.0000 
     24 CA         -0.2370   -3.6400  -23.0460 C.3       8 GLP5        0.0000 
     25 CA         -2.6795   -6.7110  -28.6540 C.3       4 GLC5        0.0000 
     26 CA         -2.4700   -5.0540  -27.6220 C.3      12 GLL5        0.0000 
     27 CA         -2.8890   -8.3680  -29.6860 C.3       8 GLP5        0.0000 
     28 CA         -0.7385   -2.1445  -27.0750 C.3       4 GLC5        0.0000 
     29 CA         -1.3140   -4.0400  -27.6310 C.3      12 GLL5        0.0000 
     30 CA         -0.1630   -0.2490  -26.5190 C.3       8 GLP5        0.0000 
     31 CA         -2.3400   -2.6720  -28.3330 C.3       4 GLC5        0.0000 
     32 CA         -3.3660   -1.3040  -29.0350 C.3       8 GLP5        0.0000 
     33 CA          6.2860   -6.8812  -31.2578 C.3       4 GLC5        0.0000 
     34 CA          5.4560   -8.9830  -31.3720 C.3      12 GLL5        0.0000 
     35 CA          7.6220   -5.1730  -31.4200 C.3       8 GLP5        0.0000 
     36 CA          2.3778   -8.2257  -30.8495 C.3       4 GLC5        0.0000 
     37 CA          4.4440   -8.1960  -30.8190 C.3      12 GLL5        0.0000 
     38 CA         -0.6800   -4.7725  -29.7585 C.3       4 GLC5        0.0000 
     39 CA         -1.6710   -4.4590  -31.2260 C.3       8 GLP5        0.0000 
     40 CA          1.3875   -4.4430  -27.1670 C.3       4 GLC5        0.0000 
     41 CA          0.0120   -4.4860  -28.2700 C.3      12 GLL5        0.0000 
     42 CA          2.4640   -3.8000  -26.0430 C.3       8 GLP5        0.0000 
     43 CA         -3.7370   -5.8290  -26.4780 C.3       4 GLC5        0.0000 
     44 CA         -5.3530   -6.7930  -25.9890 C.3       8 GLP5        0.0000 
     45 CA         -3.6545   -3.6810  -27.3835 C.3       4 GLC5        0.0000 
     46 CA         -5.1880   -2.4970  -27.8000 C.3       8 GLP5        0.0000 
     47 CA          0.4605   -4.0790  -26.5072 C.3       4 GLC5        0.0000 
     48 CA         -1.7815   -4.5030  -29.4262 C.3       4 GLC5        0.0000 
     49 CA          7.0499   -8.4525  -29.0110 C.3       4 GLC5        0.0000 
     50 CA          8.4030   -7.1210  -28.2660 C.3       8 GLP5        0.0000 
@<TRIPOS>BOND
@<TRIPOS>SUBSTRUCTURE
     1 ALC1        1 GROUP        1 X    ALC  0     ROOT ALC X 1
     2 SEC2        4 GROUP        1 X    SEC  0     **** SEC X 2
     3 LYC4       10 GROUP        1 X    LYC  0     **** LYC X 4
     4 GLC5       16 GROUP        1 X    GLC  0     **** GLC X 6
     5 ALP1        3 GROUP        1 Y    ALP  0     ROOT ALP Y 8
     6 SEP2        6 GROUP        1 Y    SEP  0     **** SEP Y 9
     7 LYP4       12 GROUP        1 Y    LYP  0     **** LYP Y 11
     8 GLP5       18 GROUP        1 Y    GLP  0     **** GLP Y 13
     9 ALL1        2 GROUP        1 Z    ALL  0     ROOT ALL Z 15
    10 SEL2        5 GROUP        1 Z    SEL  0     **** SEL Z 16
    11 LYL4       11 GROUP        1 Z    LYL  0     **** LYL Z 18
    12 GLL5       17 GROUP        1 Z    GLL  0     **** GLL Z 20
@<TRIPOS>SET

