#    Name: 4fkg_4CK_1_ligand
#    Modification time : Mon Mar 24 20:12:56 2014

@<TRIPOS>MOLECULE
4fkg_4CK_1_ligand
   32    34     1     0     0
SMALL
NO_CHARGES


@<TRIPOS>ATOM
      1 N1          0.7420   -3.6060  -28.9810 N.pl3     1 4CK300      0.0000 
      2 N2          1.7410   -4.1850  -29.4630 N.2       1 4CK300      0.0000 
      3 N3          2.6910   -6.3260  -29.4210 N.am      1 4CK300      0.0000 
      4 OAA         7.3690  -10.7430  -32.4380 O.co2     1 4CK300      0.0000 
      5 OAB         2.2660   -8.0070  -27.9470 O.2       1 4CK300      0.0000 
      6 OAC         7.8180  -11.5870  -30.4490 O.co2     1 4CK300      0.0000 
      7 CAD         5.7760  -10.0550  -29.2210 C.ar      1 4CK300      0.0000 
      8 CAE         5.4560   -8.9830  -31.3720 C.ar      1 4CK300      0.0000 
      9 CAF         4.7750   -9.2550  -28.6590 C.ar      1 4CK300      0.0000 
     10 CAG         4.4440   -8.1960  -30.8190 C.ar      1 4CK300      0.0000 
     11 CAH         0.6100   -5.6860  -28.3120 C.2       1 4CK300      0.0000 
     12 CAI        -1.7720   -4.6760  -26.3120 C.3       1 4CK300      0.0000 
     13 CAJ        -2.4700   -5.0540  -27.6220 C.3       1 4CK300      0.0000 
     14 CAN         7.2010  -10.8070  -31.2010 C.2       1 4CK300      0.0000 
     15 CAO         2.9530   -7.5100  -28.8400 C.2       1 4CK300      0.0000 
     16 CAP         6.1180   -9.9130  -30.5720 C.ar      1 4CK300      0.0000 
     17 CAQ         4.0970   -8.3230  -29.4610 C.ar      1 4CK300      0.0000 
     18 CAR         1.7100   -5.4720  -29.0760 C.2       1 4CK300      0.0000 
     19 CAS         0.0120   -4.4860  -28.2700 C.2       1 4CK300      0.0000 
     20 CAT        -1.3140   -4.0400  -27.6310 C.3       1 4CK300      0.0000 
     21 H           0.4802   -2.6526  -29.0754 H         1 4CK300      0.0000 
     22 H           3.3314   -6.0307  -30.2467 H         1 4CK300      0.0000 
     23 H           6.2624  -10.7493  -28.6413 H         1 4CK300      0.0000 
     24 H           5.7093   -8.8771  -32.3580 H         1 4CK300      0.0000 
     25 H           4.5367   -9.3470  -27.6689 H         1 4CK300      0.0000 
     26 H           3.9438   -7.5147  -31.4063 H         1 4CK300      0.0000 
     27 H           0.3393   -6.4884  -27.9114 H         1 4CK300      0.0000 
     28 H          -1.1626   -5.3673  -26.1058 H         1 4CK300      0.0000 
     29 H          -2.3197   -4.0460  -25.8705 H         1 4CK300      0.0000 
     30 H          -3.2739   -4.5618  -27.6667 H         1 4CK300      0.0000 
     31 H          -2.1167   -5.8830  -27.9020 H         1 4CK300      0.0000 
     32 H          -1.7197   -3.1735  -27.6759 H         1 4CK300      0.0000 
@<TRIPOS>BOND
     1    2    1 1    
     2   19    1 1    
     3   21    1 1    
     4   18    2 2    
     5   15    3 am   
     6   18    3 1    
     7   22    3 1    
     8   14    4 ar   
     9   15    5 2    
    10   14    6 ar   
    11    9    7 ar   
    12   16    7 ar   
    13   23    7 1    
    14   10    8 ar   
    15   16    8 ar   
    16   24    8 1    
    17   17    9 ar   
    18   25    9 1    
    19   17   10 ar   
    20   26   10 1    
    21   18   11 1    
    22   19   11 2    
    23   27   11 1    
    24   13   12 1    
    25   20   12 1    
    26   28   12 1    
    27   29   12 1    
    28   20   13 1    
    29   30   13 1    
    30   31   13 1    
    31   16   14 1    
    32   17   15 1    
    33   20   19 1    
    34   32   20 1    
@<TRIPOS>SUBSTRUCTURE
     1 4CK300      1 GROUP   
@<TRIPOS>SET

