#    Name: 2v5z_SAG_2_INTS_M
#    Modification time : Tue Mar 25 01:03:07 2014

@<TRIPOS>MOLECULE
2v5z_SAG_2_INTS_M
   61     0     6     0     0
SMALL
NO_CHARGES


@<TRIPOS>ATOM
      1 CA         13.4850  133.6535   28.9900 C.3       2 GLC5        0.0000 
      2 CA         14.0740  132.0500   29.5820 C.3       6 GLL5        0.0000 
      3 CA         12.8960  135.2570   28.3980 C.3       4 GLP5        0.0000 
      4 CA         15.6960  130.7845   30.0490 C.3       2 GLC5        0.0000 
      5 CA         17.3180  129.5190   30.5160 C.3       4 GLP5        0.0000 
      6 CA         15.4455  133.2375   29.0045 C.3       2 GLC5        0.0000 
      7 CA         16.8170  134.4250   28.4270 C.3       4 GLP5        0.0000 
      8 CA         15.6235  130.0400   29.1650 C.3       2 GLC5        0.0000 
      9 CA         13.9290  130.5610   27.8140 C.3       6 GLL5        0.0000 
     10 CA         13.3515  131.6830   26.1975 C.3       2 GLC5        0.0000 
     11 CA         12.7740  132.8050   24.5810 C.3       4 GLP5        0.0000 
     12 CA         10.4345  130.9885   27.0720 C.3       2 GLC5        0.0000 
     13 CA         11.3760  130.0540   28.4870 C.3       6 GLL5        0.0000 
     14 CA          9.4930  131.9230   25.6570 C.3       4 GLP5        0.0000 
     15 CA         13.9165  127.2430   26.5115 C.3       2 GLC5        0.0000 
     16 CA         13.8040  128.9750   25.8870 C.3       6 GLL5        0.0000 
     17 CA         14.0290  125.5110   27.1360 C.3       4 GLP5        0.0000 
     18 CA         14.9890  126.6440   21.3020 C.3       2 GLC5        0.0000 
     19 CA         16.1650  127.9450   22.3760 C.3       6 GLL5        0.0000 
     20 CA         13.8130  125.3430   20.2280 C.3       4 GLP5        0.0000 
     21 CA         14.4380  131.6665   23.9855 C.3       2 GLC5        0.0000 
     22 CA         16.1020  130.5280   23.3900 C.3       6 GLL5        0.0000 
     23 CA         16.1180  131.7175   20.8695 C.3       2 GLC5        0.0000 
     24 CA         16.9220  130.2190   22.3000 C.3       6 GLL5        0.0000 
     25 CA         15.3140  133.2160   19.4390 C.3       4 GLP5        0.0000 
     26 CA         20.6620  127.8330   20.2245 C.3       2 GLC5        0.0000 
     27 CA         18.9230  127.1770   19.4750 C.3       6 GLL5        0.0000 
     28 CA         22.4010  128.4890   20.9740 C.3       4 GLP5        0.0000 
     29 CA         20.0785  124.3690   20.8470 C.3       2 GLC5        0.0000 
     30 CA         19.4770  125.8010   19.8350 C.3       6 GLL5        0.0000 
     31 CA         20.6800  122.9370   21.8590 C.3       4 GLP5        0.0000 
     32 CA         20.9730  126.5045   20.6680 C.3       2 GLC5        0.0000 
     33 CA         22.4690  127.2080   21.5010 C.3       4 GLP5        0.0000 
     34 CA         21.0370  125.1085   18.5760 C.3       2 GLC5        0.0000 
     35 CA         22.5970  124.4160   17.3170 C.3       4 GLP5        0.0000 
     36 O          15.9510  127.0295   18.4935 O.2       1 ALC1        0.0000 
     37 O          17.1600  126.7770   17.8210 O.2       5 ALL1        0.0000 
     38 O          14.7420  127.2820   19.1660 O.2       3 ALP1        0.0000 
     39 O          16.2815  126.9470   16.3950 O.2       1 ALC1        0.0000 
     40 O          15.4030  127.1170   14.9690 O.2       3 ALP1        0.0000 
     41 CA         10.3062  130.6397   30.2668 C.3       2 GLC5        0.0000 
     42 CA         12.0930  130.9290   29.2080 C.3       6 GLL5        0.0000 
     43 CA          8.8780  130.7880   31.6860 C.3       4 GLP5        0.0000 
     44 CA         13.3800  131.5186   31.1075 C.3       2 GLC5        0.0000 
     45 CA         13.8520  131.7640   32.9970 C.3       4 GLP5        0.0000 
     46 CA         11.5776  128.4451   29.3039 C.3       2 GLC5        0.0000 
     47 CA         11.9260  129.4330   27.4320 C.3       6 GLL5        0.0000 
     48 CA         11.3250  126.9280   30.4680 C.3       4 GLP5        0.0000 
     49 CA         15.4729  128.8254   26.6151 C.3       2 GLC5        0.0000 
     50 CA         17.2610  128.1020   26.5610 C.3       4 GLP5        0.0000 
     51 CA         12.4275  130.5229   25.4594 C.3       2 GLC5        0.0000 
     52 CA         11.6710  131.7790   24.3450 C.3       4 GLP5        0.0000 
     53 CA         16.2898  128.5037   25.1452 C.3       2 GLC5        0.0000 
     54 CA         15.3020  129.5560   23.9920 C.3       6 GLL5        0.0000 
     55 CA         13.5963  129.9762   23.3573 C.3       2 GLC5        0.0000 
     56 CA         11.8740  131.0470   22.9850 C.3       4 GLP5        0.0000 
     57 CA         17.5460  128.3782   23.9165 C.3       2 GLC5        0.0000 
     58 CA         18.5240  128.3210   25.7590 C.3       4 GLP5        0.0000 
     59 CA         17.5180  129.3472   24.3020 C.3       2 GLC5        0.0000 
     60 CA         17.2660  131.9977   23.0430 C.3       2 GLC5        0.0000 
     61 CA         18.0200  133.6220   23.2410 C.3       4 GLP5        0.0000 
@<TRIPOS>BOND
@<TRIPOS>SUBSTRUCTURE
     1 ALC1       36 GROUP        1 X    ALC  0     ROOT ALC X 1
     2 GLC5        1 GROUP        1 X    GLC  0     **** GLC X 6
     3 ALP1       38 GROUP        1 Y    ALP  0     ROOT ALP Y 8
     4 GLP5        3 GROUP        1 Y    GLP  0     **** GLP Y 13
     5 ALL1       37 GROUP        1 Z    ALL  0     ROOT ALL Z 15
     6 GLL5        2 GROUP        1 Z    GLL  0     **** GLL Z 20
@<TRIPOS>SET

