#    Name: 2v5z_SAG_2_ligand
#    Modification time : Tue Mar 25 01:03:07 2014

@<TRIPOS>MOLECULE
2v5z_SAG_2_ligand
   39    40     1     0     0
SMALL
NO_CHARGES


@<TRIPOS>ATOM
      1 F3         14.0740  132.0500   29.5820 F         1 SAG1498     0.0000 
      2 C3         13.3720  131.1850   28.8740 C.ar      1 SAG1498     0.0000 
      3 C2         13.9290  130.5610   27.8140 C.ar      1 SAG1498     0.0000 
      4 C4         12.0930  130.9290   29.2080 C.ar      1 SAG1498     0.0000 
      5 C5         11.3760  130.0540   28.4870 C.ar      1 SAG1498     0.0000 
      6 C6         11.9260  129.4330   27.4320 C.ar      1 SAG1498     0.0000 
      7 C1         13.2020  129.6840   27.0890 C.ar      1 SAG1498     0.0000 
      8 C7         13.8040  128.9750   25.8870 C.3       1 SAG1498     0.0000 
      9 O8         14.5080  129.9240   25.0710 O.3       1 SAG1498     0.0000 
     10 C9         15.3020  129.5560   23.9920 C.ar      1 SAG1498     0.0000 
     11 C10        15.3350  128.2550   23.4670 C.ar      1 SAG1498     0.0000 
     12 C11        16.1650  127.9450   22.3760 C.ar      1 SAG1498     0.0000 
     13 C14        16.1020  130.5280   23.3900 C.ar      1 SAG1498     0.0000 
     14 C13        16.9220  130.2190   22.3000 C.ar      1 SAG1498     0.0000 
     15 C12        16.9710  128.9260   21.7720 C.ar      1 SAG1498     0.0000 
     16 C15        17.7630  128.7030   20.7430 C.2       1 SAG1498     0.0000 
     17 N16        17.8860  127.5800   20.4180 N.2       1 SAG1498     0.0000 
     18 C17        18.9230  127.1770   19.4750 C.3       1 SAG1498     0.0000 
     19 C18        19.4770  125.8010   19.8350 C.3       1 SAG1498     0.0000 
     20 C19        18.4280  127.1140   18.0540 C.2       1 SAG1498     0.0000 
     21 O20        19.2030  127.3620   17.1330 O.2       1 SAG1498     0.0000 
     22 N21        17.1600  126.7770   17.8210 N.am      1 SAG1498     0.0000 
     23 H          14.9189  130.7560   27.5557 H         1 SAG1498     0.0000 
     24 H          11.6624  131.4114   30.0265 H         1 SAG1498     0.0000 
     25 H          10.3821  129.8543   28.7484 H         1 SAG1498     0.0000 
     26 H          11.3621  128.7520   26.8744 H         1 SAG1498     0.0000 
     27 H          12.9905  128.4950   25.3326 H         1 SAG1498     0.0000 
     28 H          14.4722  128.1891   26.2551 H         1 SAG1498     0.0000 
     29 H          14.7474  127.5217   23.8833 H         1 SAG1498     0.0000 
     30 H          16.1834  126.9799   22.0114 H         1 SAG1498     0.0000 
     31 H          16.0893  131.4959   23.7559 H         1 SAG1498     0.0000 
     32 H          17.5038  130.9628   21.8764 H         1 SAG1498     0.0000 
     33 H          18.2265  129.5329   20.2866 H         1 SAG1498     0.0000 
     34 H          19.7610  127.8752   19.5100 H         1 SAG1498     0.0000 
     35 H          16.8737  126.7769   16.8629 H         1 SAG1498     0.0000 
     36 H          16.6089  126.5545   18.6253 H         1 SAG1498     0.0000 
     37 H          20.1887  125.5085   19.1964 H         1 SAG1498     0.0000 
     38 H          19.8816  125.7912   20.7494 H         1 SAG1498     0.0000 
     39 H          18.7650  125.0989   19.8220 H         1 SAG1498     0.0000 
@<TRIPOS>BOND
     1    2    1 1    
     2    3    2 ar   
     3    4    2 ar   
     4    7    3 ar   
     5   23    3 1    
     6    5    4 ar   
     7   24    4 1    
     8    6    5 ar   
     9   25    5 1    
    10    7    6 ar   
    11   26    6 1    
    12    8    7 1    
    13    9    8 1    
    14   27    8 1    
    15   28    8 1    
    16   10    9 1    
    17   11   10 ar   
    18   13   10 ar   
    19   12   11 ar   
    20   29   11 1    
    21   15   12 ar   
    22   30   12 1    
    23   14   13 ar   
    24   31   13 1    
    25   15   14 ar   
    26   32   14 1    
    27   16   15 1    
    28   17   16 2    
    29   33   16 1    
    30   18   17 1    
    31   19   18 1    
    32   20   18 1    
    33   34   18 1    
    34   37   19 1    
    35   38   19 1    
    36   39   19 1    
    37   21   20 2    
    38   22   20 am   
    39   35   22 1    
    40   36   22 1    
@<TRIPOS>SUBSTRUCTURE
     1 SAG1498     1 GROUP   
@<TRIPOS>SET

