#    Name: 2xx4_13I_1_INTS_M
#    Modification time : Tue Mar 25 07:02:24 2014

@<TRIPOS>MOLECULE
2xx4_13I_1_INTS_M
   53     0     6     0     0
SMALL
NO_CHARGES


@<TRIPOS>ATOM
      1 CA        -19.8355    7.1680   -4.7830 C.3       2 GLC5        0.0000 
      2 CA        -19.9290    5.5670   -3.5110 C.3       6 GLL5        0.0000 
      3 CA        -19.7420    8.7690   -6.0550 C.3       4 GLP5        0.0000 
      4 CA        -21.2650    4.0300   -3.1945 C.3       2 GLC5        0.0000 
      5 CA        -22.6010    2.4930   -2.8780 C.3       4 GLP5        0.0000 
      6 CA        -19.0890    4.1965   -6.6580 C.3       2 GLC5        0.0000 
      7 CA        -18.8970    3.4220   -4.6050 C.3       6 GLL5        0.0000 
      8 CA        -19.2810    4.9710   -8.7110 C.3       4 GLP5        0.0000 
      9 CA        -20.7490    2.9575   -3.7415 C.3       2 GLC5        0.0000 
     10 N         -21.2335    1.6850   -5.5150 N.am      1 SEC2        0.0000 
     11 N         -19.9260    1.7710   -5.9160 N.am      5 SEL2        0.0000 
     12 N         -22.5410    1.5990   -5.1140 N.am      3 SEP2        0.0000 
     13 CA        -18.2985   -0.0815   -6.7430 C.3       2 GLC5        0.0000 
     14 CA        -17.8690    1.6280   -7.8870 C.3       6 GLL5        0.0000 
     15 CA        -18.7280   -1.7910   -5.5990 C.3       4 GLP5        0.0000 
     16 CA        -15.7290    2.2560  -10.1250 C.3       2 GLC5        0.0000 
     17 CA        -16.5480    1.5590   -8.6220 C.3       6 GLL5        0.0000 
     18 CA        -14.9100    2.9530  -11.6280 C.3       4 GLP5        0.0000 
     19 CA        -16.2440   -0.3600   -4.2230 C.3       2 GLC5        0.0000 
     20 CA        -14.3810    0.5620   -4.4450 C.3       6 GLL5        0.0000 
     21 CA        -18.1070   -1.2820   -4.0010 C.3       4 GLP5        0.0000 
     22 CA        -14.7475    0.7205   -1.0645 C.3       2 GLC5        0.0000 
     23 CA        -13.6250    1.8190   -2.3470 C.3       6 GLL5        0.0000 
     24 CA        -15.8700   -0.3780    0.2180 C.3       4 GLP5        0.0000 
     25 CA        -14.1075    0.2340   -0.2305 C.3       2 GLC5        0.0000 
     26 CA        -12.3450    0.8460   -0.6790 C.3       6 GLL5        0.0000 
     27 CA        -11.0330    1.4325    1.6030 C.3       2 GLC5        0.0000 
     28 CA        -10.9580    1.3700   -0.4830 C.3       6 GLL5        0.0000 
     29 CA        -11.1080    1.4950    3.6890 C.3       4 GLP5        0.0000 
     30 CA        -16.7590    5.6325   -2.2030 C.3       2 GLC5        0.0000 
     31 CA        -17.1330    3.9160   -0.9510 C.3       6 GLL5        0.0000 
     32 CA        -16.3850    7.3490   -3.4550 C.3       4 GLP5        0.0000 
     33 CA        -16.9400    3.8225    0.5990 C.3       2 GLC5        0.0000 
     34 CA        -16.7470    3.7290    2.1490 C.3       4 GLP5        0.0000 
     35 CA        -17.9370    6.4047   -3.2008 C.3       2 GLC5        0.0000 
     36 CA        -19.0490    5.3540   -2.3820 C.3       6 GLL5        0.0000 
     37 CA        -20.4025    4.8718   -1.3982 C.3       2 GLC5        0.0000 
     38 CA        -21.3160    4.2830    0.1500 C.3       4 GLP5        0.0000 
     39 CA        -17.2280    5.5255   -3.1883 C.3       2 GLC5        0.0000 
     40 CA        -18.1010    4.1900   -2.3580 C.3       6 GLL5        0.0000 
     41 CA        -19.4665    4.1680   -0.7523 C.3       2 GLC5        0.0000 
     42 CA        -18.2447    3.2823   -8.4827 C.3       2 GLC5        0.0000 
     43 CA        -18.1232    1.4647   -9.6717 C.3       2 GLC5        0.0000 
     44 CA        -19.0380    1.3360  -11.0890 C.3       4 GLP5        0.0000 
     45 CA        -14.3845    2.6258   -9.1675 C.3       2 GLC5        0.0000 
     46 CA        -15.3470    1.1440   -7.8180 C.3       6 GLL5        0.0000 
     47 CA        -13.9170    3.6450  -10.7070 C.3       4 GLP5        0.0000 
     48 CA        -14.0145   -1.1657   -4.0215 C.3       2 GLC5        0.0000 
     49 CA        -13.4270    0.4550   -5.6310 C.3       6 GLL5        0.0000 
     50 CA        -14.1250   -2.8400   -3.0050 C.3       4 GLP5        0.0000 
     51 CA        -18.6077    1.1863   -3.5438 C.3       2 GLC5        0.0000 
     52 CA        -16.9860    2.1230   -3.4560 C.3       6 GLL5        0.0000 
     53 CA        -19.4880   -0.3480   -3.3370 C.3       4 GLP5        0.0000 
@<TRIPOS>BOND
@<TRIPOS>SUBSTRUCTURE
     1 SEC2       10 GROUP        1 X    SEC  0     ROOT SEC X 2
     2 GLC5        1 GROUP        1 X    GLC  0     **** GLC X 6
     3 SEP2       12 GROUP        1 Y    SEP  0     ROOT SEP Y 9
     4 GLP5        3 GROUP        1 Y    GLP  0     **** GLP Y 13
     5 SEL2       11 GROUP        1 Z    SEL  0     ROOT SEL Z 16
     6 GLL5        2 GROUP        1 Z    GLL  0     **** GLL Z 20
@<TRIPOS>SET

