#    Name: 2xx4_13I_1_ligand
#    Modification time : Tue Mar 25 07:02:24 2014

@<TRIPOS>MOLECULE
2xx4_13I_1_ligand
   53    54     1     0     0
SMALL
NO_CHARGES


@<TRIPOS>ATOM
      1 C01       -19.8690    4.6060   -4.6370 C.ar      1 13I1215     0.0000 
      2 C02       -19.9290    5.5670   -3.5110 C.ar      1 13I1215     0.0000 
      3 C03       -19.0490    5.3540   -2.3820 C.ar      1 13I1215     0.0000 
      4 C04       -18.1010    4.1900   -2.3580 C.ar      1 13I1215     0.0000 
      5 C05       -18.0410    3.2140   -3.4850 C.ar      1 13I1215     0.0000 
      6 C06       -18.8970    3.4220   -4.6050 C.ar      1 13I1215     0.0000 
      7 C07       -18.9320    2.4760   -5.7590 C.2       1 13I1215     0.0000 
      8 O08       -19.9260    1.7710   -5.9160 O.2       1 13I1215     0.0000 
      9 N09       -17.8310    2.4350   -6.6650 N.am      1 13I1215     0.0000 
     10 C10       -17.8690    1.6280   -7.8870 C.3       1 13I1215     0.0000 
     11 C11       -16.5480    1.5590   -8.6220 C.3       1 13I1215     0.0000 
     12 C12       -15.3470    1.1440   -7.8180 C.2       1 13I1215     0.0000 
     13 C13       -14.3570    2.0690   -7.4380 C.2       1 13I1215     0.0000 
     14 C14       -13.2240    1.6740   -6.4840 C.3       1 13I1215     0.0000 
     15 C15       -13.4270    0.4550   -5.6310 C.3       1 13I1215     0.0000 
     16 C16       -14.3810    0.5620   -4.4450 C.3       1 13I1215     0.0000 
     17 C17       -14.3050    1.8470   -3.6850 C.3       1 13I1215     0.0000 
     18 C18       -15.6050    2.6820   -3.6890 C.2       1 13I1215     0.0000 
     19 C19       -16.9860    2.1230   -3.4560 C.3       1 13I1215     0.0000 
     20 O20       -15.4790    3.8610   -3.9760 O.2       1 13I1215     0.0000 
     21 C21       -13.6250    1.8190   -2.3470 C.3       1 13I1215     0.0000 
     22 O22       -13.4100    2.9070   -1.7970 O.3       1 13I1215     0.0000 
     23 O23       -12.8610    0.8350   -2.0140 O.3       1 13I1215     0.0000 
     24 C24       -12.3450    0.8460   -0.6790 C.3       1 13I1215     0.0000 
     25 C25       -10.9580    1.3700   -0.4830 C.3       1 13I1215     0.0000 
     26 CL        -17.1330    3.9160   -0.9510 Cl        1 13I1215     0.0000 
     27 O27       -19.0420    6.2340   -1.3250 O.3       1 13I1215     0.0000 
     28 O28       -20.6540    4.7410   -5.7530 O.co2     1 13I1215     0.0000 
     29 H         -20.5600    6.3300   -3.5449 H         1 13I1215     0.0000 
     30 H         -16.9860    2.9772   -6.4710 H         1 13I1215     0.0000 
     31 H         -18.6350    2.0280   -8.5859 H         1 13I1215     0.0000 
     32 H         -18.1896    0.5905   -7.6504 H         1 13I1215     0.0000 
     33 H         -16.3464    2.5580   -9.0843 H         1 13I1215     0.0000 
     34 H         -16.6608    0.8619   -9.4902 H         1 13I1215     0.0000 
     35 H         -15.2857    0.1588   -7.5619 H         1 13I1215     0.0000 
     36 H         -14.3457    3.0250   -7.7713 H         1 13I1215     0.0000 
     37 H         -13.0081    2.5531   -5.8227 H         1 13I1215     0.0000 
     38 H         -12.2908    1.5456   -7.0917 H         1 13I1215     0.0000 
     39 H         -12.4299    0.1101   -5.2446 H         1 13I1215     0.0000 
     40 H         -13.7759   -0.3918   -6.2820 H         1 13I1215     0.0000 
     41 H         -14.1800   -0.2878   -3.7580 H         1 13I1215     0.0000 
     42 H         -15.4173    0.4113   -4.8164 H         1 13I1215     0.0000 
     43 H         -13.5807    2.5265   -4.3457 H         1 13I1215     0.0000 
     44 H         -17.2155    1.3818   -4.2287 H         1 13I1215     0.0000 
     45 H         -17.0175    1.6197   -2.4840 H         1 13I1215     0.0000 
     46 H         -14.7061    1.4643   -1.6824 H         1 13I1215     0.0000 
     47 H         -12.3829   -0.1957   -0.2384 H         1 13I1215     0.0000 
     48 H         -13.0328    1.4355   -0.0007 H         1 13I1215     0.0000 
     49 H         -10.2849    0.8421   -1.0009 H         1 13I1215     0.0000 
     50 H         -10.8751    2.3215   -0.7792 H         1 13I1215     0.0000 
     51 H         -10.6807    1.3368    0.4772 H         1 13I1215     0.0000 
     52 H         -13.0464    3.4948   -2.5197 H         1 13I1215     0.0000 
     53 H         -19.7050    6.9406   -1.5723 H         1 13I1215     0.0000 
@<TRIPOS>BOND
     1    2    1 ar   
     2    6    1 ar   
     3   28    1 ar   
     4    3    2 ar   
     5   29    2 1    
     6    4    3 ar   
     7   27    3 1    
     8    5    4 ar   
     9   26    4 1    
    10    6    5 ar   
    11   19    5 1    
    12    7    6 1    
    13    8    7 2    
    14    9    7 am   
    15   10    9 1    
    16   30    9 1    
    17   11   10 1    
    18   31   10 1    
    19   32   10 1    
    20   12   11 1    
    21   33   11 1    
    22   34   11 1    
    23   13   12 2    
    24   35   12 1    
    25   14   13 1    
    26   36   13 1    
    27   15   14 1    
    28   37   14 1    
    29   38   14 1    
    30   16   15 1    
    31   39   15 1    
    32   40   15 1    
    33   17   16 1    
    34   41   16 1    
    35   42   16 1    
    36   18   17 1    
    37   21   17 1    
    38   43   17 1    
    39   19   18 1    
    40   20   18 2    
    41   44   19 1    
    42   45   19 1    
    43   22   21 1    
    44   23   21 1    
    45   46   21 1    
    46   52   22 1    
    47   24   23 1    
    48   25   24 1    
    49   47   24 1    
    50   48   24 1    
    51   49   25 1    
    52   50   25 1    
    53   51   25 1    
    54   53   27 1    
@<TRIPOS>SUBSTRUCTURE
     1 13I1215     1 GROUP   
@<TRIPOS>SET

