#    Name: 2bkt_RPF_2_INTS_M
#    Modification time : Mon Mar 24 21:09:13 2014

@<TRIPOS>MOLECULE
2bkt_RPF_2_INTS_M
   94     0     9     0     0
SMALL
NO_CHARGES


@<TRIPOS>ATOM
      1 CA        121.9470   16.1665   46.5020 C.3       3 GLC5        0.0000 
      2 CA        123.4030   16.6760   46.9260 C.3       9 GLL5        0.0000 
      3 CA        120.4910   15.6570   46.0780 C.3       6 GLP5        0.0000 
      4 CA        123.5660   15.3140   48.1455 C.3       3 GLC5        0.0000 
      5 CA        123.7290   13.9520   49.3650 C.3       6 GLP5        0.0000 
      6 CA        124.1140   15.6085   45.9925 C.3       3 GLC5        0.0000 
      7 CA        124.8250   14.5410   45.0590 C.3       6 GLP5        0.0000 
      8 CA        127.5575   15.7670   48.7555 C.3       3 GLC5        0.0000 
      9 CA        126.1730   17.1040   49.1530 C.3       9 GLL5        0.0000 
     10 CA        128.9420   14.4300   48.3580 C.3       6 GLP5        0.0000 
     11 CA        127.9575   17.3635   50.1045 C.3       3 GLC5        0.0000 
     12 CA        129.7420   17.6230   51.0560 C.3       6 GLP5        0.0000 
     13 CA        121.0765   18.8415   51.3780 C.3       3 GLC5        0.0000 
     14 CA        122.5680   19.2530   50.3150 C.3       9 GLL5        0.0000 
     15 CA        119.5850   18.4300   52.4410 C.3       6 GLP5        0.0000 
     16 CA        121.8715   18.9580   52.3885 C.3       3 GLC5        0.0000 
     17 CA        123.5350   18.9250   51.2750 C.3       9 GLL5        0.0000 
     18 CA        120.2080   18.9910   53.5020 C.3       6 GLP5        0.0000 
     19 CA        123.8180   16.2270   43.9735 C.3       3 GLC5        0.0000 
     20 CA        122.8110   17.9130   42.8880 C.3       9 GLL5        0.0000 
     21 CA        122.5110   14.8175   38.7130 C.3       3 GLC5        0.0000 
     22 CA        123.8690   16.1250   38.5380 C.3       9 GLL5        0.0000 
     23 CA        121.1530   13.5100   38.8880 C.3       6 GLP5        0.0000 
     24 CA        121.9725   16.1175   37.4305 C.3       3 GLC5        0.0000 
     25 CA        120.0760   16.1100   36.3230 C.3       6 GLP5        0.0000 
     26 OD1       125.4310   14.6950   38.8400 O.co2     2 ASC3        0.0000 
     27 OD1       124.8550   15.7290   37.5530 O.co2     8 ASL3        0.0000 
     28 OD1       126.0070   13.6610   40.1270 O.co2     5 ASP3        0.0000 
     29 OD1       124.7720   14.2490   38.0870 O.co2     2 ASC3        0.0000 
     30 OD1       124.6890   12.7690   38.6210 O.co2     5 ASP3        0.0000 
     31 OD1       124.2975   15.5630   36.4775 O.co2     2 ASC3        0.0000 
     32 OD1       123.7400   15.3970   35.4020 O.co2     5 ASP3        0.0000 
     33 OD1       124.1935   14.5685   36.9210 O.co2     2 ASC3        0.0000 
     34 OD1       123.5320   13.4080   36.2890 O.co2     5 ASP3        0.0000 
     35 CA        126.6490   14.2070   37.0465 C.3       3 GLC5        0.0000 
     36 CA        126.2980   15.8510   37.6900 C.3       9 GLL5        0.0000 
     37 CA        127.0000   12.5630   36.4030 C.3       6 GLP5        0.0000 
     38 CA        124.1695   13.7845   40.9145 C.3       3 GLC5        0.0000 
     39 CA        123.6730   15.7180   41.0130 C.3       9 GLL5        0.0000 
     40 CA        124.6660   11.8510   40.8160 C.3       6 GLP5        0.0000 
     41 CA        124.2490   15.1295   43.0360 C.3       3 GLC5        0.0000 
     42 CA        122.4130   14.6140   39.9505 C.3       3 GLC5        0.0000 
     43 CA        128.0325   14.6360   41.3080 C.3       3 GLC5        0.0000 
     44 CA        126.9590   15.9420   42.2070 C.3       9 GLL5        0.0000 
     45 CA        129.1060   13.3300   40.4090 C.3       6 GLP5        0.0000 
     46 CA        129.6610   16.0725   45.7485 C.3       3 GLC5        0.0000 
     47 CA        128.6150   17.3460   45.9080 C.3       9 GLL5        0.0000 
     48 CA        130.7070   14.7990   45.5890 C.3       6 GLP5        0.0000 
     49 CA        129.5980   16.5010   47.6955 C.3       3 GLC5        0.0000 
     50 CA        128.8470   18.0610   47.2330 C.3       9 GLL5        0.0000 
     51 CA        130.3490   14.9410   48.1580 C.3       6 GLP5        0.0000 
     52 CA        128.2475   16.5045   48.1160 C.3       3 GLC5        0.0000 
     53 CA        127.5530   18.5790   47.8740 C.3       9 GLL5        0.0000 
     54 CA        126.8710   19.8950   49.4245 C.3       3 GLC5        0.0000 
     55 CA        126.1890   21.2110   50.9750 C.3       6 GLP5        0.0000 
     56 CA        118.0310   21.9340   45.4580 C.3       3 GLC5        0.0000 
     57 CA        118.8120   20.1310   44.7410 C.3       9 GLL5        0.0000 
     58 CA        117.2500   23.7370   46.1750 C.3       6 GLP5        0.0000 
     59 CA        116.6855   18.6595   43.4155 C.3       3 GLC5        0.0000 
     60 CA        118.0610   19.8800   43.4140 C.3       9 GLL5        0.0000 
     61 CA        115.3100   17.4390   43.4170 C.3       6 GLP5        0.0000 
     62 CA        118.1670   18.1140   44.4895 C.3       3 GLC5        0.0000 
     63 CA        118.2730   16.3480   45.5650 C.3       6 GLP5        0.0000 
     64 O         118.3075   17.7540   41.5790 O.2       1 ALC1        0.0000 
     65 O         118.7250   18.8400   42.6120 O.2       7 ALL1        0.0000 
     66 O         117.8900   16.6680   40.5460 O.2       4 ALP1        0.0000 
     67 CA        121.2615   21.4735   46.1875 C.3       3 GLC5        0.0000 
     68 CA        120.3240   20.3500   44.5010 C.3       9 GLL5        0.0000 
     69 CA        122.1990   22.5970   47.8740 C.3       6 GLP5        0.0000 
     70 CA        119.7995   19.6870   46.2920 C.3       3 GLC5        0.0000 
     71 CA        119.2750   19.0240   48.0830 C.3       6 GLP5        0.0000 
     72 CA        124.5160   15.7569   49.2360 C.3       3 GLC5        0.0000 
     73 CA        120.9718   19.0467   48.8607 C.3       3 GLC5        0.0000 
     74 CA        122.7690   18.8860   48.9620 C.3       9 GLL5        0.0000 
     75 CA        124.6202   20.1500   50.8850 C.3       3 GLC5        0.0000 
     76 CA        123.2873   20.6754   48.9860 C.3       3 GLC5        0.0000 
     77 CA        123.6120   22.4560   48.4300 C.3       6 GLP5        0.0000 
     78 CA        124.4140   17.8255   52.5452 C.3       3 GLC5        0.0000 
     79 CA        124.7100   17.0730   54.0090 C.3       6 GLP5        0.0000 
     80 CA        125.5955   19.5537   50.4862 C.3       3 GLC5        0.0000 
     81 CA        124.7010   18.2310   50.8880 C.3       9 GLL5        0.0000 
     82 CA        121.3450   21.6337   43.7215 C.3       3 GLC5        0.0000 
     83 CA        122.0760   23.4610   43.3780 C.3       6 GLP5        0.0000 
     84 CA        126.0380   15.7272   44.2110 C.3       3 GLC5        0.0000 
     85 CA        127.4150   16.3300   43.4690 C.3       9 GLL5        0.0000 
     86 CA        129.6690   19.5905   47.9312 C.3       3 GLC5        0.0000 
     87 CA        131.1380   20.8610   48.3090 C.3       6 GLP5        0.0000 
     88 CA        128.9710   17.9715   49.3047 C.3       3 GLC5        0.0000 
     89 CA        126.9850   19.4941   46.5321 C.3       3 GLC5        0.0000 
     90 CA        125.8280   20.8470   45.8420 C.3       6 GLP5        0.0000 
     91 CA        118.1653   19.8158   45.9677 C.3       3 GLC5        0.0000 
     92 CA        117.8940   19.6260   47.8580 C.3       6 GLP5        0.0000 
     93 CA        119.5950   18.2987   44.9535 C.3       3 GLC5        0.0000 
     94 CA        119.6220   16.3570   45.2860 C.3       6 GLP5        0.0000 
@<TRIPOS>BOND
@<TRIPOS>SUBSTRUCTURE
     1 ALC1       64 GROUP        1 X    ALC  0     ROOT ALC X 1
     2 ASC3       26 GROUP        1 X    ASC  0     **** ASC X 3
     3 GLC5        1 GROUP        1 X    GLC  0     **** GLC X 6
     4 ALP1       66 GROUP        1 Y    ALP  0     ROOT ALP Y 8
     5 ASP3       28 GROUP        1 Y    ASP  0     **** ASP Y 10
     6 GLP5        3 GROUP        1 Y    GLP  0     **** GLP Y 13
     7 ALL1       65 GROUP        1 Z    ALL  0     ROOT ALL Z 15
     8 ASL3       27 GROUP        1 Z    ASL  0     **** ASL Z 17
     9 GLL5        2 GROUP        1 Z    GLL  0     **** GLL Z 20
@<TRIPOS>SET

