#    Name: 2bkt_RPF_2_ligand
#    Modification time : Mon Mar 24 21:09:13 2014

@<TRIPOS>MOLECULE
2bkt_RPF_2_ligand
   75    79     1     0     0
SMALL
NO_CHARGES


@<TRIPOS>ATOM
      1 C1        123.4030   16.6760   46.9260 C.3       1 RPF567      0.0000 
      2 O1        124.1260   17.8390   47.2440 O.3       1 RPF567      0.0000 
      3 C2        123.9450   18.1870   48.5760 C.ar      1 RPF567      0.0000 
      4 C3        124.9210   17.8520   49.5460 C.ar      1 RPF567      0.0000 
      5 C4        126.1730   17.1040   49.1530 C.3       1 RPF567      0.0000 
      6 O2        127.2970   17.9520   49.1080 O.3       1 RPF567      0.0000 
      7 C5        122.7690   18.8860   48.9620 C.ar      1 RPF567      0.0000 
      8 C6        122.5680   19.2530   50.3150 C.ar      1 RPF567      0.0000 
      9 C7        123.5350   18.9250   51.2750 C.ar      1 RPF567      0.0000 
     10 C8        124.7010   18.2310   50.8880 C.ar      1 RPF567      0.0000 
     11 C9        121.9610   17.1990   41.9720 C.ar      1 RPF567      0.0000 
     12 C10       120.5990   17.5370   41.9060 C.ar      1 RPF567      0.0000 
     13 C11       120.0600   18.5470   42.7110 C.ar      1 RPF567      0.0000 
     14 C12       120.9040   19.2630   43.6290 C.ar      1 RPF567      0.0000 
     15 C13       122.2790   18.9310   43.7060 C.ar      1 RPF567      0.0000 
     16 C14       122.8110   17.9130   42.8880 C.ar      1 RPF567      0.0000 
     17 C20       124.4160   16.5610   39.9110 C.3       1 RPF567      0.0000 
     18 C21       123.8690   16.1250   38.5380 C.3       1 RPF567      0.0000 
     19 N2        124.8550   15.7290   37.5530 N.4       1 RPF567      0.0000 
     20 C22       126.2980   15.8510   37.6900 C.3       1 RPF567      0.0000 
     21 C23       126.8220   16.2310   39.0810 C.2       1 RPF567      0.0000 
     22 N3        125.9030   16.5510   40.0790 N.am      1 RPF567      0.0000 
     23 O5        128.0360   16.2350   39.2350 O.2       1 RPF567      0.0000 
     24 C24       123.6730   15.7180   41.0130 C.3       1 RPF567      0.0000 
     25 O6        122.3360   16.1690   41.0910 O.3       1 RPF567      0.0000 
     26 C25       126.2910   18.2580   41.7440 C.ar      1 RPF567      0.0000 
     27 C26       126.3890   16.9040   41.3290 C.ar      1 RPF567      0.0000 
     28 C27       126.9590   15.9420   42.2070 C.ar      1 RPF567      0.0000 
     29 C28       127.4150   16.3300   43.4690 C.ar      1 RPF567      0.0000 
     30 C29       127.3150   17.6910   43.8880 C.ar      1 RPF567      0.0000 
     31 C30       126.7530   18.6410   43.0140 C.ar      1 RPF567      0.0000 
     32 O7        127.7420   18.1540   45.1290 O.3       1 RPF567      0.0000 
     33 C31       128.6150   17.3460   45.9080 C.3       1 RPF567      0.0000 
     34 C32       128.8470   18.0610   47.2330 C.3       1 RPF567      0.0000 
     35 C33       127.5530   18.5790   47.8740 C.3       1 RPF567      0.0000 
     36 C34       118.8120   20.1310   44.7410 C.3       1 RPF567      0.0000 
     37 C35       118.0610   19.8800   43.4140 C.3       1 RPF567      0.0000 
     38 N1        118.7250   18.8400   42.6120 N.pl3     1 RPF567      0.0000 
     39 C36       120.3240   20.3500   44.5010 C.3       1 RPF567      0.0000 
     40 H         125.9828   16.6228   48.1722 H         1 RPF567      0.0000 
     41 H         126.3120   16.2771   49.8787 H         1 RPF567      0.0000 
     42 H         122.0677   19.1234   48.2592 H         1 RPF567      0.0000 
     43 H         121.7206   19.7539   50.5831 H         1 RPF567      0.0000 
     44 H         123.3999   19.1859   52.2537 H         1 RPF567      0.0000 
     45 H         125.4083   17.9953   51.6010 H         1 RPF567      0.0000 
     46 H         119.9843   17.0280   41.2488 H         1 RPF567      0.0000 
     47 H         122.8857   19.4331   44.3581 H         1 RPF567      0.0000 
     48 H         123.8001   17.6723   42.9362 H         1 RPF567      0.0000 
     49 H         124.0435   17.6096   40.0725 H         1 RPF567      0.0000 
     50 H         123.2416   16.9687   38.1516 H         1 RPF567      0.0000 
     51 H         123.1406   15.2945   38.7235 H         1 RPF567      0.0000 
     52 H         126.6960   16.6089   36.9662 H         1 RPF567      0.0000 
     53 H         126.8003   14.8929   37.3957 H         1 RPF567      0.0000 
     54 H         124.2258   15.8634   41.9389 H         1 RPF567      0.0000 
     55 H         123.7535   14.6755   40.7118 H         1 RPF567      0.0000 
     56 H         125.8826   18.9503   41.1129 H         1 RPF567      0.0000 
     57 H         127.0303   14.9680   41.9041 H         1 RPF567      0.0000 
     58 H         127.8263   15.6431   44.1083 H         1 RPF567      0.0000 
     59 H         126.6809   19.6222   43.3089 H         1 RPF567      0.0000 
     60 H         129.5822   17.2072   45.4275 H         1 RPF567      0.0000 
     61 H         128.1849   16.3693   46.1243 H         1 RPF567      0.0000 
     62 H         129.5264   18.9093   47.0721 H         1 RPF567      0.0000 
     63 H         129.3384   17.3726   47.9342 H         1 RPF567      0.0000 
     64 H         127.6583   19.6753   47.9776 H         1 RPF567      0.0000 
     65 H         126.7390   18.4103   47.1441 H         1 RPF567      0.0000 
     66 H         118.6773   19.2720   45.3938 H         1 RPF567      0.0000 
     67 H         118.3979   21.0135   45.2225 H         1 RPF567      0.0000 
     68 H         118.0201   20.8277   42.8660 H         1 RPF567      0.0000 
     69 H         117.0342   19.5870   43.6587 H         1 RPF567      0.0000 
     70 H         118.1116   18.3216   41.9449 H         1 RPF567      0.0000 
     71 H         120.4612   21.3219   44.0250 H         1 RPF567      0.0000 
     72 H         120.8293   20.3611   45.4677 H         1 RPF567      0.0000 
     73 H         123.5221   16.4150   45.9680 H         1 RPF567      0.0000 
     74 H         123.6921   15.8957   47.4805 H         1 RPF567      0.0000 
     75 H         122.4218   16.7956   47.0774 H         1 RPF567      0.0000 
@<TRIPOS>BOND
     1    2    1 1    
     2   73    1 1    
     3   74    1 1    
     4   75    1 1    
     5    3    2 1    
     6    4    3 ar   
     7    7    3 ar   
     8    5    4 1    
     9   10    4 ar   
    10    6    5 1    
    11   40    5 1    
    12   41    5 1    
    13   35    6 1    
    14    8    7 ar   
    15   42    7 1    
    16    9    8 ar   
    17   43    8 1    
    18   10    9 ar   
    19   44    9 1    
    20   45   10 1    
    21   12   11 ar   
    22   16   11 ar   
    23   25   11 1    
    24   13   12 ar   
    25   46   12 1    
    26   14   13 ar   
    27   38   13 1    
    28   15   14 ar   
    29   39   14 1    
    30   16   15 ar   
    31   47   15 1    
    32   48   16 1    
    33   18   17 1    
    34   22   17 1    
    35   24   17 1    
    36   49   17 1    
    37   19   18 1    
    38   50   18 1    
    39   51   18 1    
    40   20   19 1    
    41   21   20 1    
    42   52   20 1    
    43   53   20 1    
    44   22   21 am   
    45   23   21 2    
    46   27   22 1    
    47   25   24 1    
    48   54   24 1    
    49   55   24 1    
    50   27   26 ar   
    51   31   26 ar   
    52   56   26 1    
    53   28   27 ar   
    54   29   28 ar   
    55   57   28 1    
    56   30   29 ar   
    57   58   29 1    
    58   31   30 ar   
    59   32   30 1    
    60   59   31 1    
    61   33   32 1    
    62   34   33 1    
    63   60   33 1    
    64   61   33 1    
    65   35   34 1    
    66   62   34 1    
    67   63   34 1    
    68   64   35 1    
    69   65   35 1    
    70   37   36 1    
    71   39   36 1    
    72   66   36 1    
    73   67   36 1    
    74   38   37 1    
    75   68   37 1    
    76   69   37 1    
    77   70   38 1    
    78   71   39 1    
    79   72   39 1    
@<TRIPOS>SUBSTRUCTURE
     1 RPF567      1 GROUP   
@<TRIPOS>SET

