#    Name: 4a6d_SAM_1_INTS_M
#    Modification time : Tue Mar 25 05:10:38 2014

@<TRIPOS>MOLECULE
4a6d_SAM_1_INTS_M
   71     0     9     0     0
SMALL
NO_CHARGES


@<TRIPOS>ATOM
      1 O           1.4885   22.6405   38.4235 O.2       1 ALC1        0.0000 
      2 O           2.7280   23.2880   38.4310 O.2       7 ALL1        0.0000 
      3 O           0.2490   21.9930   38.4160 O.2       4 ALP1        0.0000 
      4 O           3.2190   23.5115   39.7180 O.2       1 ALC1        0.0000 
      5 O           3.7100   23.7350   41.0050 O.2       4 ALP1        0.0000 
      6 N           5.3830   25.7045   36.9650 N.am      2 SEC2        0.0000 
      7 N           4.3610   25.6200   38.2370 N.am      8 SEL2        0.0000 
      8 N           6.4050   25.7890   35.6930 N.am      5 SEP2        0.0000 
      9 N           4.8000   27.0870   37.8640 N.am      2 SEC2        0.0000 
     10 N           5.2390   28.5540   37.4910 N.am      5 SEP2        0.0000 
     11 N           5.0445   25.9870   35.9925 N.am      2 SEC2        0.0000 
     12 N           3.6840   26.1850   36.2920 N.am      8 SEL2        0.0000 
     13 CA          2.7510   26.3260   40.5865 C.3       3 GLC5        0.0000 
     14 CA          1.2580   25.7550   39.3600 C.3       9 GLL5        0.0000 
     15 CA          4.2440   26.8970   41.8130 C.3       6 GLP5        0.0000 
     16 CA         -1.4585   27.9315   38.7280 C.3       3 GLC5        0.0000 
     17 CA         -0.3590   26.5280   39.7260 C.3       9 GLL5        0.0000 
     18 CA         -2.5580   29.3350   37.7300 C.3       6 GLP5        0.0000 
     19 CA         -1.0430   28.9480   39.8425 C.3       3 GLC5        0.0000 
     20 CA          0.1030   27.6580   40.9740 C.3       9 GLL5        0.0000 
     21 CA         -2.1890   30.2380   38.7110 C.3       6 GLP5        0.0000 
     22 CA          2.1735   27.2775   41.3935 C.3       3 GLC5        0.0000 
     23 CA         -0.0495   23.7280   41.8105 C.3       3 GLC5        0.0000 
     24 CA         -1.1580   25.3400   40.8540 C.3       9 GLL5        0.0000 
     25 CA          1.0590   22.1160   42.7670 C.3       6 GLP5        0.0000 
     26 CA         -1.5015   22.3555   39.7075 C.3       3 GLC5        0.0000 
     27 CA         -1.8150   24.2910   39.9450 C.3       9 GLL5        0.0000 
     28 CA         -1.1880   20.4200   39.4700 C.3       6 GLP5        0.0000 
     29 O          -2.8495   23.0980   37.3650 O.2       1 ALC1        0.0000 
     30 O          -2.6460   24.4700   37.6050 O.2       7 ALL1        0.0000 
     31 O          -3.0530   21.7260   37.1250 O.2       4 ALP1        0.0000 
     32 CA         -5.2590   25.9600   38.5195 C.3       3 GLC5        0.0000 
     33 CA         -4.2270   24.4660   39.5770 C.3       9 GLL5        0.0000 
     34 CA         -6.2910   27.4540   37.4620 C.3       6 GLP5        0.0000 
     35 N          -5.2195   25.5360   38.1830 N.am      2 SEC2        0.0000 
     36 N          -5.3350   24.2800   38.6960 N.am      8 SEL2        0.0000 
     37 N          -5.1040   26.7920   37.6700 N.am      5 SEP2        0.0000 
     38 O          -5.2795   23.1040   38.1105 O.2       1 ALC1        0.0000 
     39 O          -5.3350   24.2800   38.6960 O.2       7 ALL1        0.0000 
     40 O          -5.2240   21.9280   37.5250 O.2       4 ALP1        0.0000 
     41 CA         -2.5005   21.7780   39.8510 C.3       3 GLC5        0.0000 
     42 CA         -3.8130   23.1360   40.2320 C.3       9 GLL5        0.0000 
     43 CA         -7.9215   18.5870   42.7385 C.3       3 GLC5        0.0000 
     44 CA         -6.8240   20.3290   42.9170 C.3       9 GLL5        0.0000 
     45 CA         -9.0190   16.8450   42.5600 C.3       6 GLP5        0.0000 
     46 O          -8.2650   19.3170   44.5015 O.2       1 ALC1        0.0000 
     47 O          -7.5710   20.3170   44.0470 O.2       7 ALL1        0.0000 
     48 O          -8.9590   18.3170   44.9560 O.2       4 ALP1        0.0000 
     49 N          -6.6960   17.9060   42.8450 N.am      2 SEC2        0.0000 
     50 N          -6.6360   19.1850   42.1670 N.am      8 SEL2        0.0000 
     51 N          -6.7560   16.6270   43.5230 N.am      5 SEP2        0.0000 
     52 CA         -5.4825   19.0390   39.1740 C.3       3 GLC5        0.0000 
     53 CA         -5.8980   19.1930   41.0480 C.3       9 GLL5        0.0000 
     54 CA         -5.0670   18.8850   37.3000 C.3       6 GLP5        0.0000 
     55 CA         -7.2840   20.2640   40.4845 C.3       3 GLC5        0.0000 
     56 CA         -8.6700   21.3350   39.9210 C.3       6 GLP5        0.0000 
     57 CA         -7.4585   18.0190   41.8040 C.3       3 GLC5        0.0000 
     58 CA         -5.0975   17.7600   42.4985 C.3       3 GLC5        0.0000 
     59 CA         -4.2970   16.3270   43.9490 C.3       6 GLP5        0.0000 
     60 CA          1.2110   27.3005   38.3277 C.3       3 GLC5        0.0000 
     61 CA          1.1420   25.0350   38.0110 C.3       9 GLL5        0.0000 
     62 CA          1.2220   29.2060   37.9700 C.3       6 GLP5        0.0000 
     63 CA         -2.0425   27.2965   41.2410 C.3       3 GLC5        0.0000 
     64 CA         -3.9570   27.5000   42.1320 C.3       6 GLP5        0.0000 
     65 CA          0.5470   28.1495   39.1600 C.3       3 GLC5        0.0000 
     66 CA         -2.7218   26.1578   41.2657 C.3       3 GLC5        0.0000 
     67 CA         -4.0560   26.3310   40.1277 C.3       3 GLC5        0.0000 
     68 CA         -2.8670   24.9200   38.9520 C.3       9 GLL5        0.0000 
     69 CA         -4.5650   27.9690   40.9910 C.3       6 GLP5        0.0000 
     70 CA         -7.2755   21.2564   41.0015 C.3       3 GLC5        0.0000 
     71 CA         -6.1380   21.5080   42.5690 C.3       9 GLL5        0.0000 
@<TRIPOS>BOND
@<TRIPOS>SUBSTRUCTURE
     1 ALC1        1 GROUP        1 X    ALC  0     ROOT ALC X 1
     2 SEC2        6 GROUP        1 X    SEC  0     **** SEC X 2
     3 GLC5       13 GROUP        1 X    GLC  0     **** GLC X 6
     4 ALP1        3 GROUP        1 Y    ALP  0     ROOT ALP Y 8
     5 SEP2        8 GROUP        1 Y    SEP  0     **** SEP Y 9
     6 GLP5       15 GROUP        1 Y    GLP  0     **** GLP Y 13
     7 ALL1        2 GROUP        1 Z    ALL  0     ROOT ALL Z 15
     8 SEL2        7 GROUP        1 Z    SEL  0     **** SEL Z 16
     9 GLL5       14 GROUP        1 Z    GLL  0     **** GLL Z 20
@<TRIPOS>SET

