#    Name: 4a6d_SAM_1_ligand
#    Modification time : Tue Mar 25 05:10:38 2014

@<TRIPOS>MOLECULE
4a6d_SAM_1_ligand
   50    52     1     0     0
SMALL
NO_CHARGES


@<TRIPOS>ATOM
      1 N           2.7280   23.2880   38.4310 N.4       1 SAM1350     0.0000 
      2 CA          2.4380   24.4290   37.5350 C.3       1 SAM1350     0.0000 
      3 C           3.5580   25.4720   37.3390 C.2       1 SAM1350     0.0000 
      4 O           4.3610   25.6200   38.2370 O.co2     1 SAM1350     0.0000 
      5 OXT         3.6840   26.1850   36.2920 O.co2     1 SAM1350     0.0000 
      6 CB          1.1420   25.0350   38.0110 C.3       1 SAM1350     0.0000 
      7 CG          1.2580   25.7550   39.3600 C.3       1 SAM1350     0.0000 
      8 SD         -0.3590   26.5280   39.7260 S.3       1 SAM1350     0.0000 
      9 CE          0.1030   27.6580   40.9740 C.3       1 SAM1350     0.0000 
     10 C5'        -1.1580   25.3400   40.8540 C.3       1 SAM1350     0.0000 
     11 C4'        -1.8150   24.2910   39.9450 C.3       1 SAM1350     0.0000 
     12 O4'        -2.5250   23.4390   40.8260 O.3       1 SAM1350     0.0000 
     13 C3'        -2.8670   24.9200   38.9520 C.3       1 SAM1350     0.0000 
     14 O3'        -2.6460   24.4700   37.6050 O.3       1 SAM1350     0.0000 
     15 C2'        -4.2270   24.4660   39.5770 C.3       1 SAM1350     0.0000 
     16 O2'        -5.3350   24.2800   38.6960 O.3       1 SAM1350     0.0000 
     17 C1'        -3.8130   23.1360   40.2320 C.3       1 SAM1350     0.0000 
     18 N9         -4.7470   22.7090   41.2950 N.pl3     1 SAM1350     0.0000 
     19 C8         -5.2600   23.5040   42.3170 C.2       1 SAM1350     0.0000 
     20 N7         -6.0410   22.7980   43.0790 N.2       1 SAM1350     0.0000 
     21 C5         -6.1380   21.5080   42.5690 C.ar      1 SAM1350     0.0000 
     22 C6         -6.8240   20.3290   42.9170 C.ar      1 SAM1350     0.0000 
     23 N6         -7.5710   20.3170   44.0470 N.pl3     1 SAM1350     0.0000 
     24 N1         -6.6360   19.1850   42.1670 N.ar      1 SAM1350     0.0000 
     25 C2         -5.8980   19.1930   41.0480 C.ar      1 SAM1350     0.0000 
     26 N3         -5.2440   20.3070   40.6870 N.ar      1 SAM1350     0.0000 
     27 C4         -5.2810   21.4370   41.4210 C.ar      1 SAM1350     0.0000 
     28 H           2.2086   24.0004   36.5187 H         1 SAM1350     0.0000 
     29 H           0.3773   24.2457   38.1004 H         1 SAM1350     0.0000 
     30 H           0.7745   25.7547   37.2608 H         1 SAM1350     0.0000 
     31 H           1.9025   26.5847   39.3459 H         1 SAM1350     0.0000 
     32 H           1.3851   25.1084   40.1783 H         1 SAM1350     0.0000 
     33 H          -1.8384   25.9396   41.3648 H         1 SAM1350     0.0000 
     34 H          -0.3520   24.9758   41.4026 H         1 SAM1350     0.0000 
     35 H          -1.0820   23.7804   39.3964 H         1 SAM1350     0.0000 
     36 H          -2.7967   25.9790   39.0796 H         1 SAM1350     0.0000 
     37 H          -4.4268   25.1428   40.3986 H         1 SAM1350     0.0000 
     38 H          -3.7083   22.4066   39.4750 H         1 SAM1350     0.0000 
     39 H          -5.0334   24.4513   42.4034 H         1 SAM1350     0.0000 
     40 H          -8.0230   19.4524   44.2665 H         1 SAM1350     0.0000 
     41 H          -7.6043   21.1738   44.5616 H         1 SAM1350     0.0000 
     42 H          -5.8322   18.3340   40.4584 H         1 SAM1350     0.0000 
     43 H           3.5083   22.7519   38.1090 H         1 SAM1350     0.0000 
     44 H           2.9433   23.5903   39.3596 H         1 SAM1350     0.0000 
     45 H           1.9508   22.6625   38.4993 H         1 SAM1350     0.0000 
     46 H           0.3351   27.1932   41.8285 H         1 SAM1350     0.0000 
     47 H           0.9011   28.1988   40.7084 H         1 SAM1350     0.0000 
     48 H          -0.6323   28.3031   41.1816 H         1 SAM1350     0.0000 
     49 H          -2.8501   23.4912   37.6225 H         1 SAM1350     0.0000 
     50 H          -5.0028   23.6530   37.9914 H         1 SAM1350     0.0000 
@<TRIPOS>BOND
     1    2    1 1    
     2   43    1 1    
     3   44    1 1    
     4   45    1 1    
     5    3    2 1    
     6    6    2 1    
     7   28    2 1    
     8    4    3 ar   
     9    5    3 ar   
    10    7    6 1    
    11   29    6 1    
    12   30    6 1    
    13    8    7 1    
    14   31    7 1    
    15   32    7 1    
    16    9    8 1    
    17   10    8 1    
    18   46    9 1    
    19   47    9 1    
    20   48    9 1    
    21   11   10 1    
    22   33   10 1    
    23   34   10 1    
    24   12   11 1    
    25   13   11 1    
    26   35   11 1    
    27   17   12 1    
    28   14   13 1    
    29   15   13 1    
    30   36   13 1    
    31   49   14 1    
    32   16   15 1    
    33   17   15 1    
    34   37   15 1    
    35   50   16 1    
    36   18   17 1    
    37   38   17 1    
    38   19   18 1    
    39   27   18 1    
    40   20   19 2    
    41   39   19 1    
    42   21   20 1    
    43   22   21 ar   
    44   27   21 ar   
    45   23   22 1    
    46   24   22 ar   
    47   40   23 1    
    48   41   23 1    
    49   25   24 ar   
    50   26   25 ar   
    51   42   25 1    
    52   27   26 ar   
@<TRIPOS>SUBSTRUCTURE
     1 SAM1350     1 GROUP   
@<TRIPOS>SET

