#    Name: 3nt2_NAI_2_INTS_M
#    Modification time : Tue Mar 25 02:06:12 2014

@<TRIPOS>MOLECULE
3nt2_NAI_2_INTS_M
   63     0     9     0     0
SMALL
NO_CHARGES


@<TRIPOS>ATOM
      1 N           1.7405   15.2810   29.2975 N.am      2 SEC2        0.0000 
      2 N           1.2820   15.8830   27.9030 N.am      8 SEL2        0.0000 
      3 N           2.1990   14.6790   30.6920 N.am      5 SEP2        0.0000 
      4 O           7.3210   17.1090   26.4800 O.2       1 ALC1        0.0000 
      5 O           5.5870   17.1170   26.6880 O.2       7 ALL1        0.0000 
      6 O           9.0550   17.1010   26.2720 O.2       4 ALP1        0.0000 
      7 O           7.7310   16.2120   25.7850 O.2       1 ALC1        0.0000 
      8 O           7.0260   17.3250   24.6400 O.2       7 ALL1        0.0000 
      9 O           8.4360   15.0990   26.9300 O.2       4 ALP1        0.0000 
     10 O           8.0405   17.2130   25.4560 O.2       1 ALC1        0.0000 
     11 CA          7.3880   13.3190   25.7525 C.3       3 GLC5        0.0000 
     12 CA          6.6820   14.9120   24.6440 C.3       9 GLL5        0.0000 
     13 CA          8.0940   11.7260   26.8610 C.3       6 GLP5        0.0000 
     14 CA          6.2775   12.9890   24.1235 C.3       3 GLC5        0.0000 
     15 CA          5.8730   11.0660   23.6030 C.3       6 GLP5        0.0000 
     16 CA         10.3440   10.6135   23.5510 C.3       3 GLC5        0.0000 
     17 CA         10.1250   12.5060   23.1100 C.3       9 GLL5        0.0000 
     18 CA         10.5630    8.7210   23.9920 C.3       6 GLP5        0.0000 
     19 CA          9.1095   12.1160   24.9855 C.3       3 GLC5        0.0000 
     20 CA         10.7750   13.6685   24.5085 C.3       3 GLC5        0.0000 
     21 CA         11.4250   14.8310   25.9070 C.3       6 GLP5        0.0000 
     22 CA         10.5490   14.6205   22.8835 C.3       3 GLC5        0.0000 
     23 CA         10.9730   16.7350   22.6570 C.3       6 GLP5        0.0000 
     24 N           9.9845   14.5625   23.7480 N.am      2 SEC2        0.0000 
     25 N           9.1660   13.2610   23.6860 N.am      8 SEL2        0.0000 
     26 N          10.8030   15.8640   23.8100 N.am      5 SEP2        0.0000 
     27 CA          8.0515   12.6265   24.9595 C.3       3 GLC5        0.0000 
     28 CA          8.0090   13.5270   23.0580 C.3       9 GLL5        0.0000 
     29 N           0.8350   12.6785   30.2520 N.am      2 SEC2        0.0000 
     30 N           0.6010   13.2040   28.9090 N.am      8 SEL2        0.0000 
     31 N           1.0690   12.1530   31.5950 N.am      5 SEP2        0.0000 
     32 O          -1.2720    7.2940   23.8250 O.2       1 ALC1        0.0000 
     33 O          -0.6830    8.5760   23.5980 O.2       7 ALL1        0.0000 
     34 O          -1.8610    6.0120   24.0520 O.2       4 ALP1        0.0000 
     35 O          -2.5350    7.3170   24.1915 O.2       1 ALC1        0.0000 
     36 O          -3.2090    8.6220   24.3310 O.2       7 ALL1        0.0000 
     37 CA         -0.5475    6.9180   26.7755 C.3       3 GLC5        0.0000 
     38 CA         -1.8730    8.6420   26.4230 C.3       9 GLL5        0.0000 
     39 CA          0.7780    5.1940   27.1280 C.3       6 GLP5        0.0000 
     40 CA         -1.8415    8.2860   30.0555 C.3       3 GLC5        0.0000 
     41 CA         -3.1180    7.7480   28.3490 C.3       9 GLL5        0.0000 
     42 CA         -0.5650    8.8240   31.7620 C.3       6 GLP5        0.0000 
     43 CA          4.2905   12.8113   25.0180 C.3       3 GLC5        0.0000 
     44 CA          4.7000   14.9880   25.9670 C.3       9 GLL5        0.0000 
     45 CA          4.5550   10.8530   24.3460 C.3       6 GLP5        0.0000 
     46 CA          4.4383   15.0869   27.6025 C.3       3 GLC5        0.0000 
     47 CA          3.3520   14.5510   25.4130 C.3       9 GLL5        0.0000 
     48 CA          4.3430   14.5810   29.5700 C.3       6 GLP5        0.0000 
     49 CA          7.5768   16.7188   23.3312 C.3       3 GLC5        0.0000 
     50 CA          8.7780   17.8340   22.1020 C.3       6 GLP5        0.0000 
     51 CA          8.8142   14.9775   22.0670 C.3       3 GLC5        0.0000 
     52 CA          9.7320   16.7020   21.7470 C.3       6 GLP5        0.0000 
     53 CA          7.1450   11.5910   20.2135 C.3       3 GLC5        0.0000 
     54 CA          7.7840   12.9790   21.7160 C.3       9 GLL5        0.0000 
     55 CA          5.9600   10.6100   18.9940 C.3       6 GLP5        0.0000 
     56 CA          7.0213   12.0578   22.9243 C.3       3 GLC5        0.0000 
     57 CA         -3.1065    7.2745   25.7823 C.3       3 GLC5        0.0000 
     58 CA         -2.3470    9.3820   25.1700 C.3       9 GLL5        0.0000 
     59 CA         -4.1030    5.5370   25.7680 C.3       6 GLP5        0.0000 
     60 CA         -3.8693    6.6792   27.2925 C.3       3 GLC5        0.0000 
     61 CA         -2.9359    9.4142   30.8774 C.3       3 GLC5        0.0000 
     62 CA         -4.1530    7.8950   29.2850 C.3       9 GLL5        0.0000 
     63 CA         -1.7610    9.4200   32.4730 C.3       6 GLP5        0.0000 
@<TRIPOS>BOND
@<TRIPOS>SUBSTRUCTURE
     1 ALC1        4 GROUP        1 X    ALC  0     ROOT ALC X 1
     2 SEC2        1 GROUP        1 X    SEC  0     **** SEC X 2
     3 GLC5       11 GROUP        1 X    GLC  0     **** GLC X 6
     4 ALP1        6 GROUP        1 Y    ALP  0     ROOT ALP Y 8
     5 SEP2        3 GROUP        1 Y    SEP  0     **** SEP Y 9
     6 GLP5       13 GROUP        1 Y    GLP  0     **** GLP Y 13
     7 ALL1        5 GROUP        1 Z    ALL  0     ROOT ALL Z 15
     8 SEL2        2 GROUP        1 Z    SEL  0     **** SEL Z 16
     9 GLL5       12 GROUP        1 Z    GLL  0     **** GLL Z 20
@<TRIPOS>SET

