#    Name: 3nt2_NAI_2_ligand
#    Modification time : Tue Mar 25 02:06:12 2014

@<TRIPOS>MOLECULE
3nt2_NAI_2_ligand
   71    75     1     0     0
SMALL
NO_CHARGES


@<TRIPOS>ATOM
      1 PA          1.2180   14.9990   26.6750 P.3       1 NAI400      0.0000 
      2 O1A         1.0760   15.8420   25.4330 O.co2     1 NAI400      0.0000 
      3 O2A         1.2820   15.8830   27.9030 O.co2     1 NAI400      0.0000 
      4 O5B         2.5110   14.2470   26.5160 O.3       1 NAI400      0.0000 
      5 C5B         3.3520   14.5510   25.4130 C.3       1 NAI400      0.0000 
      6 C4B         4.7000   14.9880   25.9670 C.3       1 NAI400      0.0000 
      7 O4B         5.7590   14.2000   25.4520 O.3       1 NAI400      0.0000 
      8 C3B         5.0410   16.4160   25.5800 C.3       1 NAI400      0.0000 
      9 O3B         5.5870   17.1170   26.6880 O.3       1 NAI400      0.0000 
     10 C2B         6.0690   16.2950   24.4770 C.3       1 NAI400      0.0000 
     11 O2B         7.0260   17.3250   24.6400 O.3       1 NAI400      0.0000 
     12 C1B         6.6820   14.9120   24.6440 C.3       1 NAI400      0.0000 
     13 N9A         6.9050   14.2170   23.3530 N.pl3     1 NAI400      0.0000 
     14 C8A         6.0400   14.1290   22.3190 C.2       1 NAI400      0.0000 
     15 N7A         6.5740   13.3810   21.3210 N.2       1 NAI400      0.0000 
     16 C5A         7.7840   12.9790   21.7160 C.ar      1 NAI400      0.0000 
     17 C6A         8.8760   12.1650   21.1500 C.ar      1 NAI400      0.0000 
     18 N6A         8.7230   11.6220   19.8810 N.pl3     1 NAI400      0.0000 
     19 N1A         9.9860   11.9730   21.8790 N.ar      1 NAI400      0.0000 
     20 C2A        10.1250   12.5060   23.1100 C.ar      1 NAI400      0.0000 
     21 N3A         9.1660   13.2610   23.6860 N.ar      1 NAI400      0.0000 
     22 C4A         8.0090   13.5270   23.0580 C.ar      1 NAI400      0.0000 
     23 O3          0.0520   14.0240   26.6680 O.3       1 NAI400      0.0000 
     24 PN         -0.3510   13.0380   27.7420 P.3       1 NAI400      0.0000 
     25 O1N        -1.7740   13.2850   28.1430 O.co2     1 NAI400      0.0000 
     26 O2N         0.6010   13.2040   28.9090 O.co2     1 NAI400      0.0000 
     27 O5D        -0.2670   11.6240   27.2000 O.3       1 NAI400      0.0000 
     28 C5D         0.2350   11.3090   25.9050 C.3       1 NAI400      0.0000 
     29 C4D        -0.0160    9.8510   25.5360 C.3       1 NAI400      0.0000 
     30 O4D        -0.5470    9.1180   26.6340 O.3       1 NAI400      0.0000 
     31 C3D        -1.0500    9.6710   24.4350 C.3       1 NAI400      0.0000 
     32 O3D        -0.6830    8.5760   23.5980 O.3       1 NAI400      0.0000 
     33 C2D        -2.3470    9.3820   25.1700 C.3       1 NAI400      0.0000 
     34 O2D        -3.2090    8.6220   24.3310 O.3       1 NAI400      0.0000 
     35 C1D        -1.8730    8.6420   26.4230 C.3       1 NAI400      0.0000 
     36 N1N        -2.7110    8.8100   27.6250 N.pl3     1 NAI400      0.0000 
     37 C2N        -3.1180    7.7480   28.3490 C.2       1 NAI400      0.0000 
     38 C3N        -4.1530    7.8950   29.2850 C.2       1 NAI400      0.0000 
     39 C7N        -4.9850    6.7370   29.7950 C.2       1 NAI400      0.0000 
     40 O7N        -5.9920    6.9930   30.4450 O.2       1 NAI400      0.0000 
     41 N7N        -4.6700    5.4600   29.5520 N.am      1 NAI400      0.0000 
     42 C4N        -4.4900    9.1870   29.6960 C.3       1 NAI400      0.0000 
     43 C5N        -3.9000   10.2760   29.0730 C.2       1 NAI400      0.0000 
     44 C6N        -3.1220   10.0550   27.9410 C.2       1 NAI400      0.0000 
     45 H           2.9566   15.3664   24.8085 H         1 NAI400      0.0000 
     46 H           3.5165   13.6856   24.7721 H         1 NAI400      0.0000 
     47 H           4.6752   14.9378   27.0454 H         1 NAI400      0.0000 
     48 H           4.1681   16.8748   25.1811 H         1 NAI400      0.0000 
     49 H           5.5608   16.3347   23.5437 H         1 NAI400      0.0000 
     50 H           7.6191   15.0349   25.1702 H         1 NAI400      0.0000 
     51 H           5.1566   14.5431   22.2908 H         1 NAI400      0.0000 
     52 H           9.4861   11.0710   19.5432 H         1 NAI400      0.0000 
     53 H           7.8630   11.8289   19.4146 H         1 NAI400      0.0000 
     54 H          11.0209   12.3254   23.6456 H         1 NAI400      0.0000 
     55 H           1.3245   11.4870   25.8372 H         1 NAI400      0.0000 
     56 H          -0.2341   11.9359   25.1238 H         1 NAI400      0.0000 
     57 H           0.9055    9.4002   25.1977 H         1 NAI400      0.0000 
     58 H          -1.1490   10.5876   23.9142 H         1 NAI400      0.0000 
     59 H          -2.7568   10.3201   25.4723 H         1 NAI400      0.0000 
     60 H          -1.8189    7.5768   26.1498 H         1 NAI400      0.0000 
     61 H          -2.6846    6.8177   28.2332 H         1 NAI400      0.0000 
     62 H          -3.8320    5.3054   29.0287 H         1 NAI400      0.0000 
     63 H          -5.3008    4.7744   29.9154 H         1 NAI400      0.0000 
     64 H          -4.3239    9.2681   30.8375 H         1 NAI400      0.0000 
     65 H          -5.6397    9.3023   29.6512 H         1 NAI400      0.0000 
     66 H          -4.0321   11.2195   29.4349 H         1 NAI400      0.0000 
     67 H          -2.8657   10.8677   27.3468 H         1 NAI400      0.0000 
     68 H           6.4453   17.5044   26.3515 H         1 NAI400      0.0000 
     69 H           7.8702   16.8553   24.8985 H         1 NAI400      0.0000 
     70 H          -1.1876    7.7926   23.9609 H         1 NAI400      0.0000 
     71 H          -2.7444    7.7449   24.2095 H         1 NAI400      0.0000 
@<TRIPOS>BOND
     1    2    1 ar   
     2    3    1 ar   
     3    4    1 1    
     4   23    1 1    
     5    5    4 1    
     6    6    5 1    
     7   45    5 1    
     8   46    5 1    
     9    7    6 1    
    10    8    6 1    
    11   47    6 1    
    12   12    7 1    
    13    9    8 1    
    14   10    8 1    
    15   48    8 1    
    16   68    9 1    
    17   11   10 1    
    18   12   10 1    
    19   49   10 1    
    20   69   11 1    
    21   13   12 1    
    22   50   12 1    
    23   14   13 1    
    24   22   13 1    
    25   15   14 2    
    26   51   14 1    
    27   16   15 1    
    28   17   16 ar   
    29   22   16 ar   
    30   18   17 1    
    31   19   17 ar   
    32   52   18 1    
    33   53   18 1    
    34   20   19 ar   
    35   21   20 ar   
    36   54   20 1    
    37   22   21 ar   
    38   24   23 1    
    39   25   24 ar   
    40   26   24 ar   
    41   27   24 1    
    42   28   27 1    
    43   29   28 1    
    44   55   28 1    
    45   56   28 1    
    46   30   29 1    
    47   31   29 1    
    48   57   29 1    
    49   35   30 1    
    50   32   31 1    
    51   33   31 1    
    52   58   31 1    
    53   70   32 1    
    54   34   33 1    
    55   35   33 1    
    56   59   33 1    
    57   71   34 1    
    58   36   35 1    
    59   60   35 1    
    60   37   36 1    
    61   44   36 1    
    62   38   37 2    
    63   61   37 1    
    64   39   38 1    
    65   42   38 1    
    66   40   39 2    
    67   41   39 am   
    68   62   41 1    
    69   63   41 1    
    70   43   42 1    
    71   64   42 1    
    72   65   42 1    
    73   44   43 2    
    74   66   43 1    
    75   67   44 1    
@<TRIPOS>SUBSTRUCTURE
     1 NAI400      1 GROUP   
@<TRIPOS>SET

