#    Name: 1b6k_PI5_1_INTS_M
#    Modification time : Mon Mar 24 19:25:23 2014

@<TRIPOS>MOLECULE
1b6k_PI5_1_INTS_M
  102     0    12     0     0
SMALL
NO_CHARGES


@<TRIPOS>ATOM
      1 CA          4.3885    0.6345    8.7910 C.3       4 GLC5        0.0000 
      2 CA          3.3590    2.3660    9.1930 C.3      12 GLL5        0.0000 
      3 CA          5.4180   -1.0970    8.3890 C.3       8 GLP5        0.0000 
      4 N           2.6705    5.4200   12.6740 N.am      2 SEC2        0.0000 
      5 N           3.5450    4.7720   11.7270 N.am     10 SEL2        0.0000 
      6 N           1.7960    6.0680   13.6210 N.am      6 SEP2        0.0000 
      7 CA          2.6850    3.1925   13.4745 C.3       4 GLC5        0.0000 
      8 CA          2.9040    2.0930   11.8060 C.3      12 GLL5        0.0000 
      9 CA          2.4660    4.2920   15.1430 C.3       8 GLP5        0.0000 
     10 CA         -0.8420    0.3650   12.4145 C.3       4 GLC5        0.0000 
     11 CA          1.2720    0.4580   12.8120 C.3      12 GLL5        0.0000 
     12 CA         -2.9560    0.2720   12.0170 C.3       8 GLP5        0.0000 
     13 CA          0.5595   -0.8285   14.1185 C.3       4 GLC5        0.0000 
     14 CA         -0.1530   -2.1150   15.4250 C.3       8 GLP5        0.0000 
     15 CA          0.4785   -1.4135   12.3040 C.3       4 GLC5        0.0000 
     16 CA         -0.3150   -3.2850   11.7960 C.3       8 GLP5        0.0000 
     17 CA         -1.0875    3.7370   11.3755 C.3       4 GLC5        0.0000 
     18 CA          0.4560    2.1860   11.2480 C.3      12 GLL5        0.0000 
     19 CA         -2.6310    5.2880   11.5030 C.3       8 GLP5        0.0000 
     20 CA         -1.2500    1.2290   11.6325 C.3       4 GLC5        0.0000 
     21 CA         -0.6590    1.1405    9.8140 C.3       4 GLC5        0.0000 
     22 CA         -1.7740    0.0950    8.3800 C.3       8 GLP5        0.0000 
     23 O           5.1055    2.8790   13.9075 O.2       1 ALC1        0.0000 
     24 O           4.9930    1.7390   12.9650 O.2       9 ALL1        0.0000 
     25 O           5.2180    4.0190   14.8500 O.2       5 ALP1        0.0000 
     26 CA          8.1610    3.4295   14.1320 C.3       4 GLC5        0.0000 
     27 CA          7.4370    1.8970   13.1060 C.3      12 GLL5        0.0000 
     28 CA          8.8850    4.9620   15.1580 C.3       8 GLP5        0.0000 
     29 CA          9.0800    1.0125   13.7000 C.3       4 GLC5        0.0000 
     30 CA         10.7230    0.1280   14.2940 C.3       8 GLP5        0.0000 
     31 CA          8.1995    4.2990   13.2240 C.3       4 GLC5        0.0000 
     32 CA          7.5140    3.6360   11.2900 C.3      12 GLL5        0.0000 
     33 CA          5.9345    2.5055   15.9905 C.3       4 GLC5        0.0000 
     34 CA          6.1730    0.6200   14.8240 C.3      12 GLL5        0.0000 
     35 CA          5.6960    4.3910   17.1570 C.3       8 GLP5        0.0000 
     36 O           7.5555    0.2735   16.3395 O.2       1 ALC1        0.0000 
     37 O           7.3840   -0.0730   15.1370 O.2       9 ALL1        0.0000 
     38 O           7.7270    0.6200   17.5420 O.2       5 ALP1        0.0000 
     39 OD1         4.4460    0.6330   17.4830 O.co2     3 ASC3        0.0000 
     40 OD1         5.0220   -0.6580   16.5240 O.co2    11 ASL3        0.0000 
     41 OD1         3.8700    1.9240   18.4420 O.co2     7 ASP3        0.0000 
     42 OD1         3.8765   -0.2055   17.0840 O.co2     3 ASC3        0.0000 
     43 OD1         2.7310    0.2470   17.6440 O.co2     7 ASP3        0.0000 
     44 OD1         5.7105    0.3480   17.8130 O.co2     3 ASC3        0.0000 
     45 OD1         6.3990    1.3540   19.1020 O.co2     7 ASP3        0.0000 
     46 OD1         6.3745   -0.0190   17.0330 O.co2     3 ASC3        0.0000 
     47 OD1         7.7270    0.6200   17.5420 O.co2     7 ASP3        0.0000 
     48 CA          4.7535   -1.4495   18.8680 C.3       4 GLC5        0.0000 
     49 CA          4.8090   -2.1090   16.8080 C.3      12 GLL5        0.0000 
     50 CA          4.6980   -0.7900   20.9280 C.3       8 GLP5        0.0000 
     51 CA          2.4445   -3.7730   19.2685 C.3       4 GLC5        0.0000 
     52 CA          3.2090   -4.6630   17.7790 C.3      12 GLL5        0.0000 
     53 CA          1.6800   -2.8830   20.7580 C.3       8 GLP5        0.0000 
     54 O           5.8540   -3.3610   18.4900 O.2       1 ALC1        0.0000 
     55 O           6.3990   -3.8970   17.1670 O.2       9 ALL1        0.0000 
     56 O           5.3090   -2.8250   19.8130 O.2       5 ALP1        0.0000 
     57 CA          7.7190   -3.6900   18.5070 C.3       4 GLC5        0.0000 
     58 CA          7.3890   -4.9310   16.8300 C.3      12 GLL5        0.0000 
     59 CA          8.0490   -2.4490   20.1840 C.3       8 GLP5        0.0000 
     60 N           7.9190   -5.1620   20.1615 N.am      2 SEC2        0.0000 
     61 N           7.2130   -5.7790   19.0760 N.am     10 SEL2        0.0000 
     62 N           8.6250   -4.5450   21.2470 N.am      6 SEP2        0.0000 
     63 CA         11.7035   -4.7370   16.2400 C.3       4 GLC5        0.0000 
     64 CA          9.8250   -5.6170   16.8520 C.3      12 GLL5        0.0000 
     65 CA         13.5820   -3.8570   15.6280 C.3       8 GLP5        0.0000 
     66 CA         11.2775   -6.3125   15.6835 C.3       4 GLC5        0.0000 
     67 CA         12.7300   -7.0080   14.5150 C.3       8 GLP5        0.0000 
     68 CA         10.4475   -3.1780   12.9255 C.3       4 GLC5        0.0000 
     69 CA          9.5520   -3.7930   14.6950 C.3      12 GLL5        0.0000 
     70 CA         11.3430   -2.5630   11.1560 C.3       8 GLP5        0.0000 
     71 O           6.7515   -7.3360   15.9035 O.2       1 ALC1        0.0000 
     72 O           6.5900   -7.1610   17.4020 O.2       9 ALL1        0.0000 
     73 O           6.9130   -7.5110   14.4050 O.2       5 ALP1        0.0000 
     74 CA          1.4255    2.0715   13.8662 C.3       4 GLC5        0.0000 
     75 CA          1.4080    3.2820   15.5400 C.3       8 GLP5        0.0000 
     76 CA          6.6425    0.2130    9.2040 C.3       4 GLC5        0.0000 
     77 CA          7.8070    1.3430   10.6840 C.3      12 GLL5        0.0000 
     78 CA          9.5960    2.3775   10.7990 C.3       4 GLC5        0.0000 
     79 CA          7.9270    1.7030    9.3540 C.3      12 GLL5        0.0000 
     80 CA         11.3250    3.2320   11.5790 C.3       8 GLP5        0.0000 
     81 CA          9.4202    3.0495   11.7090 C.3       4 GLC5        0.0000 
     82 CA          9.6498    4.2193    9.7672 C.3       4 GLC5        0.0000 
     83 CA          7.6330    4.0090    9.9640 C.3      12 GLL5        0.0000 
     84 CA         11.5640    4.9160   10.0520 C.3       8 GLP5        0.0000 
     85 CA          1.3978   -4.8333   17.5838 C.3       4 GLC5        0.0000 
     86 CA          3.2560   -4.0520   16.5240 C.3      12 GLL5        0.0000 
     87 CA         -0.4370   -5.3090   18.0160 C.3       8 GLP5        0.0000 
     88 CA          1.3975   -5.8693   17.6743 C.3       4 GLC5        0.0000 
     89 CA          3.2090   -6.0390   17.9030 C.3      12 GLL5        0.0000 
     90 CA          1.5776   -3.1001   15.6766 C.3       4 GLC5        0.0000 
     91 CA          3.2850   -4.8640   15.3950 C.3      12 GLL5        0.0000 
     92 CA          4.6175   -5.7660   13.8735 C.3       4 GLC5        0.0000 
     93 CA          5.9490   -5.9810   12.2950 C.3       8 GLP5        0.0000 
     94 CA          2.0513   -7.0732   15.1615 C.3       4 GLC5        0.0000 
     95 CA          3.2870   -6.2380   15.5090 C.3      12 GLL5        0.0000 
     96 CA          0.8320   -7.9610   14.2160 C.3       8 GLP5        0.0000 
     97 CA          9.0920   -2.7785   18.0358 C.3       4 GLC5        0.0000 
     98 CA          8.8560   -4.4570   17.0510 C.3      12 GLL5        0.0000 
     99 CA          9.1480   -1.6630   19.5040 C.3       8 GLP5        0.0000 
    100 CA         11.4830   -3.7095   15.5087 C.3       4 GLC5        0.0000 
    101 CA          9.2160   -3.3310   16.0840 C.3      12 GLL5        0.0000 
    102 CA         10.0535   -1.7170   14.8418 C.3       4 GLC5        0.0000 
@<TRIPOS>BOND
@<TRIPOS>SUBSTRUCTURE
     1 ALC1       23 GROUP        1 X    ALC  0     ROOT ALC X 1
     2 SEC2        4 GROUP        1 X    SEC  0     **** SEC X 2
     3 ASC3       39 GROUP        1 X    ASC  0     **** ASC X 3
     4 GLC5        1 GROUP        1 X    GLC  0     **** GLC X 6
     5 ALP1       25 GROUP        1 Y    ALP  0     ROOT ALP Y 8
     6 SEP2        6 GROUP        1 Y    SEP  0     **** SEP Y 9
     7 ASP3       41 GROUP        1 Y    ASP  0     **** ASP Y 10
     8 GLP5        3 GROUP        1 Y    GLP  0     **** GLP Y 13
     9 ALL1       24 GROUP        1 Z    ALL  0     ROOT ALL Z 15
    10 SEL2        5 GROUP        1 Z    SEL  0     **** SEL Z 16
    11 ASL3       40 GROUP        1 Z    ASL  0     **** ASL Z 17
    12 GLL5        2 GROUP        1 Z    GLL  0     **** GLL Z 20
@<TRIPOS>SET

