#    Name: 1b6k_PI5_1_ligand
#    Modification time : Mon Mar 24 19:25:23 2014

@<TRIPOS>MOLECULE
1b6k_PI5_1_ligand
  101   104     1     0     0
SMALL
NO_CHARGES


@<TRIPOS>ATOM
      1 C1          3.9510    3.5910    8.4490 C.3       1 PI5201      0.0000 
      2 C2          3.3590    2.3660    9.1930 C.3       1 PI5201      0.0000 
      3 C3          3.5310    4.1510   10.6590 C.2       1 PI5201      0.0000 
      4 O4          3.5450    4.7720   11.7270 O.2       1 PI5201      0.0000 
      5 C5          3.8500    4.8040    9.3470 C.3       1 PI5201      0.0000 
      6 N6          3.2290    2.8450   10.5950 N.am      1 PI5201      0.0000 
      7 C7          2.9040    2.0930   11.8060 C.3       1 PI5201      0.0000 
      8 C8          1.6140    1.2640   11.5730 C.3       1 PI5201      0.0000 
      9 C9          1.2720    0.4580   12.8120 C.3       1 PI5201      0.0000 
     10 C10         0.4560    2.1860   11.2480 C.3       1 PI5201      0.0000 
     11 C11         4.1080    1.2140   12.1230 C.2       1 PI5201      0.0000 
     12 O12         4.2510    0.1030   11.5900 O.2       1 PI5201      0.0000 
     13 N13         4.9930    1.7390   12.9650 N.am      1 PI5201      0.0000 
     14 C14         6.2090    1.0250   13.3620 C.3       1 PI5201      0.0000 
     15 C15         7.4370    1.8970   13.1060 C.3       1 PI5201      0.0000 
     16 C16         7.5970    2.2990   11.6700 C.ar      1 PI5201      0.0000 
     17 C17         7.8070    1.3430   10.6840 C.ar      1 PI5201      0.0000 
     18 C18         7.5140    3.6360   11.2900 C.ar      1 PI5201      0.0000 
     19 C19         7.9270    1.7030    9.3540 C.ar      1 PI5201      0.0000 
     20 C20         7.6330    4.0090    9.9640 C.ar      1 PI5201      0.0000 
     21 C21         7.8380    3.0360    9.0010 C.ar      1 PI5201      0.0000 
     22 C22         6.1730    0.6200   14.8240 C.3       1 PI5201      0.0000 
     23 C23         4.9850   -0.2890   15.1060 C.3       1 PI5201      0.0000 
     24 O24         7.3840   -0.0730   15.1370 O.3       1 PI5201      0.0000 
     25 O25         7.9460    3.3900    7.6750 O.3       1 PI5201      0.0000 
     26 N26         5.0220   -0.6580   16.5240 N.4       1 PI5201      0.0000 
     27 C27         4.8090   -2.1090   16.8080 C.3       1 PI5201      0.0000 
     28 C28         3.4070   -2.5610   16.3990 C.3       1 PI5201      0.0000 
     29 C29         3.2560   -4.0520   16.5240 C.ar      1 PI5201      0.0000 
     30 C30         3.2090   -4.6630   17.7790 C.ar      1 PI5201      0.0000 
     31 C31         3.2090   -6.0390   17.9030 C.ar      1 PI5201      0.0000 
     32 C32         3.2850   -4.8640   15.3950 C.ar      1 PI5201      0.0000 
     33 C33         3.2870   -6.2380   15.5090 C.ar      1 PI5201      0.0000 
     34 C34         3.2550   -6.8200   16.7620 C.ar      1 PI5201      0.0000 
     35 O35         3.2990   -8.1900   16.8510 O.3       1 PI5201      0.0000 
     36 C36         3.8180   -8.8460   17.9920 C.3       1 PI5201      0.0000 
     37 C37         5.8340   -3.1040   16.2610 C.2       1 PI5201      0.0000 
     38 O38         6.0910   -3.1640   15.0560 O.2       1 PI5201      0.0000 
     39 N39         6.3990   -3.8970   17.1670 N.am      1 PI5201      0.0000 
     40 C40         7.3890   -4.9310   16.8300 C.3       1 PI5201      0.0000 
     41 C41         7.0690   -6.0100   17.8670 C.2       1 PI5201      0.0000 
     42 O42         7.2130   -5.7790   19.0760 O.2       1 PI5201      0.0000 
     43 C43         8.8560   -4.4570   17.0510 C.3       1 PI5201      0.0000 
     44 C44         9.2160   -3.3310   16.0840 C.3       1 PI5201      0.0000 
     45 C45         9.8250   -5.6170   16.8520 C.3       1 PI5201      0.0000 
     46 C46         9.5520   -3.7930   14.6950 C.3       1 PI5201      0.0000 
     47 N47         6.5900   -7.1610   17.4020 N.am      1 PI5201      0.0000 
     48 C48         6.2670   -8.2470   18.3150 C.3       1 PI5201      0.0000 
     49 C49         5.2680   -9.2710   17.7810 C.3       1 PI5201      0.0000 
     50 H           3.3863    3.7505    7.5426 H         1 PI5201      0.0000 
     51 H           4.9849    3.3861    8.2147 H         1 PI5201      0.0000 
     52 H           4.0481    1.5622    9.1241 H         1 PI5201      0.0000 
     53 H           2.4103    2.1413    8.7744 H         1 PI5201      0.0000 
     54 H           3.0508    5.4156    9.0360 H         1 PI5201      0.0000 
     55 H           4.7815    5.2933    9.3960 H         1 PI5201      0.0000 
     56 H           2.7389    2.7653   12.6247 H         1 PI5201      0.0000 
     57 H           1.7794    0.5985   10.7501 H         1 PI5201      0.0000 
     58 H           4.8700    2.6845   13.3872 H         1 PI5201      0.0000 
     59 H           6.3216    0.1217   12.7633 H         1 PI5201      0.0000 
     60 H           8.3335    1.3462   13.4387 H         1 PI5201      0.0000 
     61 H           7.3641    2.7991   13.7374 H         1 PI5201      0.0000 
     62 H           7.8745    0.3432   10.9526 H         1 PI5201      0.0000 
     63 H           7.3605    4.3599   12.0159 H         1 PI5201      0.0000 
     64 H           8.0809    0.9855    8.6356 H         1 PI5201      0.0000 
     65 H           7.5701    4.9975    9.6955 H         1 PI5201      0.0000 
     66 H           6.0733    1.5096   15.4230 H         1 PI5201      0.0000 
     67 H           5.0625   -1.1677   14.4743 H         1 PI5201      0.0000 
     68 H           4.0727    0.2482   14.8685 H         1 PI5201      0.0000 
     69 H           4.8252   -2.2401   17.9372 H         1 PI5201      0.0000 
     70 H           3.2259   -2.2558   15.3649 H         1 PI5201      0.0000 
     71 H           2.6748   -2.0597   17.0376 H         1 PI5201      0.0000 
     72 H           3.1737   -4.0687   18.6274 H         1 PI5201      0.0000 
     73 H           3.1753   -6.4772   18.8296 H         1 PI5201      0.0000 
     74 H           3.3053   -4.4243   14.4560 H         1 PI5201      0.0000 
     75 H           3.3122   -6.8284   14.6663 H         1 PI5201      0.0000 
     76 H           3.2403   -9.7544   18.2425 H         1 PI5201      0.0000 
     77 H           3.7903   -8.1981   18.8871 H         1 PI5201      0.0000 
     78 H           6.1653   -3.8269   18.1886 H         1 PI5201      0.0000 
     79 H           7.2524   -5.3180   15.8809 H         1 PI5201      0.0000 
     80 H           8.9474   -4.0949   18.0596 H         1 PI5201      0.0000 
     81 H          10.0725   -2.7693   16.5032 H         1 PI5201      0.0000 
     82 H           8.3682   -2.6208   16.0415 H         1 PI5201      0.0000 
     83 H           6.4272   -7.3387   16.3986 H         1 PI5201      0.0000 
     84 H           5.8570   -7.8428   19.2714 H         1 PI5201      0.0000 
     85 H           7.1925   -8.7989   18.6066 H         1 PI5201      0.0000 
     86 H           5.4462   -9.4194   16.7085 H         1 PI5201      0.0000 
     87 H           5.4372  -10.2319   18.2832 H         1 PI5201      0.0000 
     88 H           2.0025   -0.1811   13.0526 H         1 PI5201      0.0000 
     89 H           1.1225    1.0452   13.6075 H         1 PI5201      0.0000 
     90 H           0.4399   -0.0820   12.6858 H         1 PI5201      0.0000 
     91 H           0.2794    2.8354   11.9876 H         1 PI5201      0.0000 
     92 H           0.6289    2.7225   10.4220 H         1 PI5201      0.0000 
     93 H          -0.3917    1.6780   11.0954 H         1 PI5201      0.0000 
     94 H          10.7743   -5.3363   16.9934 H         1 PI5201      0.0000 
     95 H           9.6429   -6.3664   17.4886 H         1 PI5201      0.0000 
     96 H           9.7659   -5.9960   15.9285 H         1 PI5201      0.0000 
     97 H           9.7793   -3.0270   14.0936 H         1 PI5201      0.0000 
     98 H          10.3367   -4.4129   14.6894 H         1 PI5201      0.0000 
     99 H           8.7893   -4.2818   14.2715 H         1 PI5201      0.0000 
    100 H           7.3207   -0.2761   16.1141 H         1 PI5201      0.0000 
    101 H           7.1270    3.0160    7.2399 H         1 PI5201      0.0000 
@<TRIPOS>BOND
     1    2    1 1    
     2    5    1 1    
     3   50    1 1    
     4   51    1 1    
     5    6    2 1    
     6   52    2 1    
     7   53    2 1    
     8    4    3 2    
     9    5    3 1    
    10    6    3 am   
    11   54    5 1    
    12   55    5 1    
    13    7    6 1    
    14    8    7 1    
    15   11    7 1    
    16   56    7 1    
    17    9    8 1    
    18   10    8 1    
    19   57    8 1    
    20   88    9 1    
    21   89    9 1    
    22   90    9 1    
    23   91   10 1    
    24   92   10 1    
    25   93   10 1    
    26   12   11 2    
    27   13   11 am   
    28   14   13 1    
    29   58   13 1    
    30   15   14 1    
    31   22   14 1    
    32   59   14 1    
    33   16   15 1    
    34   60   15 1    
    35   61   15 1    
    36   17   16 ar   
    37   18   16 ar   
    38   19   17 ar   
    39   62   17 1    
    40   20   18 ar   
    41   63   18 1    
    42   21   19 ar   
    43   64   19 1    
    44   21   20 ar   
    45   65   20 1    
    46   25   21 1    
    47   23   22 1    
    48   24   22 1    
    49   66   22 1    
    50   26   23 1    
    51   67   23 1    
    52   68   23 1    
    53  100   24 1    
    54  101   25 1    
    55   27   26 1    
    56   28   27 1    
    57   37   27 1    
    58   69   27 1    
    59   29   28 1    
    60   70   28 1    
    61   71   28 1    
    62   30   29 ar   
    63   32   29 ar   
    64   31   30 ar   
    65   72   30 1    
    66   34   31 ar   
    67   73   31 1    
    68   33   32 ar   
    69   74   32 1    
    70   34   33 ar   
    71   75   33 1    
    72   35   34 1    
    73   36   35 1    
    74   49   36 1    
    75   76   36 1    
    76   77   36 1    
    77   38   37 2    
    78   39   37 am   
    79   40   39 1    
    80   78   39 1    
    81   41   40 1    
    82   43   40 1    
    83   79   40 1    
    84   42   41 2    
    85   47   41 am   
    86   44   43 1    
    87   45   43 1    
    88   80   43 1    
    89   46   44 1    
    90   81   44 1    
    91   82   44 1    
    92   94   45 1    
    93   95   45 1    
    94   96   45 1    
    95   97   46 1    
    96   98   46 1    
    97   99   46 1    
    98   48   47 1    
    99   83   47 1    
   100   49   48 1    
   101   84   48 1    
   102   85   48 1    
   103   86   49 1    
   104   87   49 1    
@<TRIPOS>SUBSTRUCTURE
     1 PI5201      1 GROUP   
@<TRIPOS>SET

