#    Name: 1wkl_ADP_1_INTS_M
#    Modification time : Tue Mar 25 09:06:32 2014

@<TRIPOS>MOLECULE
1wkl_ADP_1_INTS_M
   44     0     9     0     0
SMALL
NO_CHARGES


@<TRIPOS>ATOM
      1 NZ         15.2485   63.4380   37.0875 N.4       2 LYC4        0.0000 
      2 NZ         15.9280   62.7970   36.2500 N.4       8 LYL4        0.0000 
      3 NZ         13.8120   65.1240   37.6190 N.4       5 LYP4        0.0000 
      4 N          15.2485   63.4380   37.0875 N.am      1 SEC2        0.0000 
      5 N          15.9280   62.7970   36.2500 N.am      7 SEL2        0.0000 
      6 N          14.5690   64.0790   37.9250 N.am      4 SEP2        0.0000 
      7 NZ         18.3380   64.5385   37.7980 N.4       2 LYC4        0.0000 
      8 NZ         17.3190   64.8660   36.1330 N.4       8 LYL4        0.0000 
      9 NZ         19.3570   64.2110   39.4630 N.4       5 LYP4        0.0000 
     10 NZ         15.5655   64.9950   36.8760 N.4       2 LYC4        0.0000 
     11 N          17.1590   65.8365   36.9400 N.am      1 SEC2        0.0000 
     12 N          17.3190   64.8660   36.1330 N.am      7 SEL2        0.0000 
     13 N          16.9990   66.8070   37.7470 N.am      4 SEP2        0.0000 
     14 NZ         18.8950   63.3980   37.8975 N.4       2 LYC4        0.0000 
     15 NZ         18.4330   62.5850   36.3320 N.4       8 LYL4        0.0000 
     16 N          15.8910   60.2685   34.1910 N.am      1 SEC2        0.0000 
     17 N          17.4140   60.7570   34.0760 N.am      7 SEL2        0.0000 
     18 N          14.3680   59.7800   34.3060 N.am      4 SEP2        0.0000 
     19 N          16.0685   64.2340   33.6175 N.am      1 SEC2        0.0000 
     20 N          17.1720   63.2690   34.2420 N.am      7 SEL2        0.0000 
     21 N          14.9650   65.1990   32.9930 N.am      4 SEP2        0.0000 
     22 CA         18.3185   64.9840   33.3890 C.3       3 GLC5        0.0000 
     23 CA         19.7930   63.4490   33.0670 C.3       9 GLL5        0.0000 
     24 CA         16.8440   66.5190   33.7110 C.3       6 GLP5        0.0000 
     25 CA         22.4115   62.4005   33.0580 C.3       3 GLC5        0.0000 
     26 CA         20.9890   63.4530   34.0400 C.3       9 GLL5        0.0000 
     27 CA         23.8340   61.3480   32.0760 C.3       6 GLP5        0.0000 
     28 CA         24.0860   65.4170   33.0560 C.3       3 GLC5        0.0000 
     29 CA         22.2690   65.4660   34.2650 C.3       9 GLL5        0.0000 
     30 CA         25.9030   65.3680   31.8470 C.3       6 GLP5        0.0000 
     31 CA         23.8825   64.5320   34.9880 C.3       3 GLC5        0.0000 
     32 CA         25.4960   63.5980   35.7110 C.3       6 GLP5        0.0000 
     33 CA         25.9930   68.9330   33.8715 C.3       3 GLC5        0.0000 
     34 CA         24.2110   69.3500   34.8250 C.3       9 GLL5        0.0000 
     35 CA         27.7750   68.5160   32.9180 C.3       6 GLP5        0.0000 
     36 CA         22.0865   69.7810   34.6405 C.3       3 GLC5        0.0000 
     37 CA         19.9620   70.2120   34.4560 C.3       6 GLP5        0.0000 
     38 CA         23.3135   70.1510   36.6280 C.3       3 GLC5        0.0000 
     39 CA         22.4160   70.9520   38.4310 C.3       6 GLP5        0.0000 
     40 CA         21.9555   62.3128   35.8390 C.3       3 GLC5        0.0000 
     41 CA         20.7850   64.0340   35.4540 C.3       9 GLL5        0.0000 
     42 CA         23.0240   60.8820   36.9310 C.3       6 GLP5        0.0000 
     43 CA         21.4596   69.4154   33.8085 C.3       3 GLC5        0.0000 
     44 CA         22.6890   68.7170   32.6150 C.3       9 GLL5        0.0000 
@<TRIPOS>BOND
@<TRIPOS>SUBSTRUCTURE
     1 SEC2        4 GROUP        1 X    SEC  0     ROOT SEC X 2
     2 LYC4        1 GROUP        1 X    LYC  0     **** LYC X 4
     3 GLC5       22 GROUP        1 X    GLC  0     **** GLC X 6
     4 SEP2        6 GROUP        1 Y    SEP  0     ROOT SEP Y 9
     5 LYP4        3 GROUP        1 Y    LYP  0     **** LYP Y 11
     6 GLP5       24 GROUP        1 Y    GLP  0     **** GLP Y 13
     7 SEL2        5 GROUP        1 Z    SEL  0     ROOT SEL Z 16
     8 LYL4        2 GROUP        1 Z    LYL  0     **** LYL Z 18
     9 GLL5       23 GROUP        1 Z    GLL  0     **** GLL Z 20
@<TRIPOS>SET

