#    Name: 1wkl_ADP_1_ligand
#    Modification time : Tue Mar 25 09:06:32 2014

@<TRIPOS>MOLECULE
1wkl_ADP_1_ligand
   39    41     1     0     0
SMALL
NO_CHARGES


@<TRIPOS>ATOM
      1 PB         17.2070   63.4050   35.8220 P.3       1 ADP646      0.0000 
      2 O1B        15.9280   62.7970   36.2500 O.co2     1 ADP646      0.0000 
      3 O2B        17.3190   64.8660   36.1330 O.co2     1 ADP646      0.0000 
      4 O3B        18.4330   62.5850   36.3320 O.co2     1 ADP646      0.0000 
      5 PA         17.5040   62.0480   33.2980 P.3       1 ADP646      0.0000 
      6 O1A        17.4140   60.7570   34.0760 O.co2     1 ADP646      0.0000 
      7 O2A        16.6360   62.1040   32.0610 O.co2     1 ADP646      0.0000 
      8 O3A        17.1720   63.2690   34.2420 O.3       1 ADP646      0.0000 
      9 O5'        19.0780   62.1670   33.0380 O.3       1 ADP646      0.0000 
     10 C5'        19.7930   63.4490   33.0670 C.3       1 ADP646      0.0000 
     11 C4'        20.9890   63.4530   34.0400 C.3       1 ADP646      0.0000 
     12 O4'        22.1050   64.2410   33.5370 O.3       1 ADP646      0.0000 
     13 C3'        20.7850   64.0340   35.4540 C.3       1 ADP646      0.0000 
     14 O3'        21.6550   63.3120   36.3470 O.3       1 ADP646      0.0000 
     15 C2'        21.1180   65.5090   35.2590 C.3       1 ADP646      0.0000 
     16 O2'        21.4990   66.2170   36.4500 O.3       1 ADP646      0.0000 
     17 C1'        22.2690   65.4660   34.2650 C.3       1 ADP646      0.0000 
     18 N9         22.2820   66.6920   33.3860 N.pl3     1 ADP646      0.0000 
     19 C8         21.6800   66.8840   32.1850 C.2       1 ADP646      0.0000 
     20 N7         21.9050   68.1170   31.6800 N.2       1 ADP646      0.0000 
     21 C5         22.6890   68.7170   32.6150 C.ar      1 ADP646      0.0000 
     22 C6         23.2700   70.0480   32.6690 C.ar      1 ADP646      0.0000 
     23 N6         23.1440   70.9650   31.7770 N.pl3     1 ADP646      0.0000 
     24 N1         24.0250   70.2900   33.8140 N.ar      1 ADP646      0.0000 
     25 C2         24.2110   69.3500   34.8250 C.ar      1 ADP646      0.0000 
     26 N3         23.6780   68.1230   34.7870 N.ar      1 ADP646      0.0000 
     27 C4         22.9350   67.8550   33.6800 C.ar      1 ADP646      0.0000 
     28 H          19.1140   64.2666   33.3658 H         1 ADP646      0.0000 
     29 H          20.1756   63.7040   32.0633 H         1 ADP646      0.0000 
     30 H          21.3492   62.4218   34.1744 H         1 ADP646      0.0000 
     31 H          19.7562   63.9317   35.6813 H         1 ADP646      0.0000 
     32 H          20.2852   65.9673   34.7465 H         1 ADP646      0.0000 
     33 H          23.1874   65.4329   34.8484 H         1 ADP646      0.0000 
     34 H          21.1346   66.1923   31.7297 H         1 ADP646      0.0000 
     35 H          22.5901   70.7290   30.9786 H         1 ADP646      0.0000 
     36 H          23.6117   71.8287   31.9648 H         1 ADP646      0.0000 
     37 H          24.8043   69.6413   35.6509 H         1 ADP646      0.0000 
     38 H          22.5531   63.3348   35.9078 H         1 ADP646      0.0000 
     39 H          22.1967   66.8683   36.1517 H         1 ADP646      0.0000 
@<TRIPOS>BOND
     1    2    1 ar   
     2    3    1 ar   
     3    4    1 ar   
     4    8    1 1    
     5    6    5 ar   
     6    7    5 ar   
     7    8    5 1    
     8    9    5 1    
     9   10    9 1    
    10   11   10 1    
    11   28   10 1    
    12   29   10 1    
    13   12   11 1    
    14   13   11 1    
    15   30   11 1    
    16   17   12 1    
    17   14   13 1    
    18   15   13 1    
    19   31   13 1    
    20   38   14 1    
    21   16   15 1    
    22   17   15 1    
    23   32   15 1    
    24   39   16 1    
    25   18   17 1    
    26   33   17 1    
    27   19   18 1    
    28   27   18 1    
    29   20   19 2    
    30   34   19 1    
    31   21   20 1    
    32   22   21 ar   
    33   27   21 ar   
    34   23   22 1    
    35   24   22 ar   
    36   35   23 1    
    37   36   23 1    
    38   25   24 ar   
    39   26   25 ar   
    40   37   25 1    
    41   27   26 ar   
@<TRIPOS>SUBSTRUCTURE
     1 ADP646      1 GROUP   
@<TRIPOS>SET

