#    Name: 1u8x_NAD_1_INTS_M
#    Modification time : Tue Mar 25 06:19:46 2014

@<TRIPOS>MOLECULE
1u8x_NAD_1_INTS_M
  107     0    12     0     0
SMALL
NO_CHARGES


@<TRIPOS>ATOM
      1 N          26.4230   80.7725   24.9750 N.am      2 SEC2        0.0000 
      2 N          27.7940   80.7280   24.4420 N.am     10 SEL2        0.0000 
      3 N          25.0520   80.8170   25.5080 N.am      6 SEP2        0.0000 
      4 N          27.4725   80.4875   25.8475 N.am      2 SEC2        0.0000 
      5 N          27.1510   80.2470   27.2530 N.am      6 SEP2        0.0000 
      6 N          28.6190   81.3395   25.6215 N.am      2 SEC2        0.0000 
      7 N          29.4440   81.9510   26.8010 N.am      6 SEP2        0.0000 
      8 CA         25.2765   80.0430   20.7545 C.3       4 GLC5        0.0000 
      9 CA         25.0300   79.3270   22.2690 C.3      12 GLL5        0.0000 
     10 CA         25.5230   80.7590   19.2400 C.3       8 GLP5        0.0000 
     11 CA         22.7015   77.4655   23.4265 C.3       4 GLC5        0.0000 
     12 CA         24.5250   77.9580   22.6950 C.3      12 GLL5        0.0000 
     13 CA         20.8780   76.9730   24.1580 C.3       8 GLP5        0.0000 
     14 N          23.4060   78.6560   20.5055 N.am      2 SEC2        0.0000 
     15 N          23.5160   77.5530   21.7400 N.am     10 SEL2        0.0000 
     16 N          23.2960   79.7590   19.2710 N.am      6 SEP2        0.0000 
     17 CA         25.6965   77.7445   24.3885 C.3       4 GLC5        0.0000 
     18 CA         25.6530   76.9260   22.5960 C.3      12 GLL5        0.0000 
     19 CA         25.7400   78.5630   26.1810 C.3       8 GLP5        0.0000 
     20 O          24.6155   75.2705   24.0260 O.2       1 ALC1        0.0000 
     21 O          25.7440   76.2350   23.8300 O.2       9 ALL1        0.0000 
     22 O          23.4870   74.3060   24.2220 O.2       5 ALP1        0.0000 
     23 CA         27.1685   75.6815   20.8660 C.3       4 GLC5        0.0000 
     24 CA         25.1710   75.9360   21.5520 C.3      12 GLL5        0.0000 
     25 CA         29.1660   75.4270   20.1800 C.3       8 GLP5        0.0000 
     26 O          24.5400   73.6365   22.3870 O.2       1 ALC1        0.0000 
     27 O          25.5150   74.5950   21.9310 O.2       9 ALL1        0.0000 
     28 O          23.5650   72.6780   22.8430 O.2       5 ALP1        0.0000 
     29 O          24.5010   74.4505   23.0765 O.2       1 ALC1        0.0000 
     30 CA         22.2680   76.5585   22.8595 C.3       4 GLC5        0.0000 
     31 CA         23.6580   76.1440   21.5610 C.3      12 GLL5        0.0000 
     32 CA         22.4230   77.8895   20.9935 C.3       4 GLC5        0.0000 
     33 CA         21.1880   79.6350   20.4260 C.3       8 GLP5        0.0000 
     34 CA         21.1790   76.7395   19.1235 C.3       4 GLC5        0.0000 
     35 CA         21.9890   74.9110   18.5810 C.3      12 GLL5        0.0000 
     36 CA         20.3690   78.5680   19.6660 C.3       8 GLP5        0.0000 
     37 O          19.6335   74.1530   16.6830 O.2       1 ALC1        0.0000 
     38 O          20.8570   74.0730   16.7120 O.2       9 ALL1        0.0000 
     39 O          18.4100   74.2330   16.6540 O.2       5 ALP1        0.0000 
     40 N          18.9875   72.4675   18.6415 N.am      2 SEC2        0.0000 
     41 N          20.0340   73.6180   18.8370 N.am     10 SEL2        0.0000 
     42 N          17.9410   71.3170   18.4460 N.am      6 SEP2        0.0000 
     43 CA         20.5075   72.8335   22.0630 C.3       4 GLC5        0.0000 
     44 CA         20.1360   73.7440   20.1500 C.3      12 GLL5        0.0000 
     45 CA         20.8790   71.9230   23.9760 C.3       8 GLP5        0.0000 
     46 CA         21.1045   71.7875   19.9060 C.3       4 GLC5        0.0000 
     47 CA         22.0730   69.8310   19.6620 C.3       8 GLP5        0.0000 
     48 CA         19.8430   75.7405   20.4020 C.3       4 GLC5        0.0000 
     49 CA         19.5500   77.7370   20.6540 C.3       8 GLP5        0.0000 
     50 CA         18.4005   74.9545   19.6320 C.3       4 GLC5        0.0000 
     51 CA         16.6650   76.1650   19.1140 C.3       8 GLP5        0.0000 
     52 CA         20.8090   76.3805   20.3045 C.3       4 GLC5        0.0000 
     53 CA         22.0680   75.0240   19.9550 C.3      12 GLL5        0.0000 
     54 N          27.2560   82.7095   21.4260 N.am      2 SEC2        0.0000 
     55 N          26.8240   82.1700   22.6790 N.am     10 SEL2        0.0000 
     56 N          27.6880   83.2490   20.1730 N.am      6 SEP2        0.0000 
     57 N          25.9795   82.6620   26.5885 N.am      2 SEC2        0.0000 
     58 N          26.0100   82.9340   24.9760 N.am     10 SEL2        0.0000 
     59 N          25.9490   82.3900   28.2010 N.am      6 SEP2        0.0000 
     60 NZ         27.5280   84.9290   22.1990 N.4       3 LYC4        0.0000 
     61 NZ         27.5330   84.4040   23.5920 N.4      11 LYL4        0.0000 
     62 NZ         27.4960   84.5280   19.8530 N.4       7 LYP4        0.0000 
     63 N          27.5280   84.9290   22.1990 N.am      2 SEC2        0.0000 
     64 N          27.5330   84.4040   23.5920 N.am     10 SEL2        0.0000 
     65 N          27.5230   85.4540   20.8060 N.am      6 SEP2        0.0000 
     66 N          28.6940   83.9430   23.8440 N.am      2 SEC2        0.0000 
     67 N          29.8550   83.4820   24.0960 N.am      6 SEP2        0.0000 
     68 CA         24.9860   83.0980   19.5080 C.3       4 GLC5        0.0000 
     69 CA         23.7060   84.2820   20.3620 C.3      12 GLL5        0.0000 
     70 CA         26.2660   81.9140   18.6540 C.3       8 GLP5        0.0000 
     71 CA         24.0870   84.1235   18.1670 C.3       4 GLC5        0.0000 
     72 CA         24.4680   83.9650   15.9720 C.3       8 GLP5        0.0000 
     73 N          21.6680   84.8890   18.4335 N.am      2 SEC2        0.0000 
     74 N          22.7960   84.0720   19.2810 N.am     10 SEL2        0.0000 
     75 N          20.5400   85.7060   17.5860 N.am      6 SEP2        0.0000 
     76 O          23.4540   83.8295   18.2640 O.2       1 ALC1        0.0000 
     77 O          22.7960   84.0720   19.2810 O.2       9 ALL1        0.0000 
     78 O          24.1120   83.5870   17.2470 O.2       5 ALP1        0.0000 
     79 CA         23.0080   86.6520   18.7915 C.3       4 GLC5        0.0000 
     80 CA         23.9550   85.7620   20.5830 C.3      12 GLL5        0.0000 
     81 CA         22.0610   87.5420   17.0000 C.3       8 GLP5        0.0000 
     82 N          23.2605   87.8875   18.9600 N.am      2 SEC2        0.0000 
     83 N          24.0630   86.4520   19.3350 N.am     10 SEL2        0.0000 
     84 N          22.4580   89.3230   18.5850 N.am      6 SEP2        0.0000 
     85 O          25.2630   86.9865   18.9570 O.2       1 ALC1        0.0000 
     86 O          24.0630   86.4520   19.3350 O.2       9 ALL1        0.0000 
     87 O          26.4630   87.5210   18.5790 O.2       5 ALP1        0.0000 
     88 CA         20.8720   85.2350   20.1715 C.3       4 GLC5        0.0000 
     89 CA         22.6400   86.0860   21.2690 C.3      12 GLL5        0.0000 
     90 CA         19.1040   84.3840   19.0740 C.3       8 GLP5        0.0000 
     91 N          19.3965   92.5350   22.5910 N.am      2 SEC2        0.0000 
     92 N          19.9950   91.4900   22.0270 N.am     10 SEL2        0.0000 
     93 N          18.7980   93.5800   23.1550 N.am      6 SEP2        0.0000 
     94 O          19.5065   88.3145   20.4635 O.2       1 ALC1        0.0000 
     95 O          19.5920   89.8520   20.3990 O.2       9 ALL1        0.0000 
     96 O          19.4210   86.7770   20.5280 O.2       5 ALP1        0.0000 
     97 O          18.0730   90.0715   20.3990 O.2       1 ALC1        0.0000 
     98 O          16.5540   90.2910   20.3990 O.2       5 ALP1        0.0000 
     99 CA         24.6857   79.0838   24.1750 C.3       4 GLC5        0.0000 
    100 CA         24.5940   79.5250   25.8680 C.3       8 GLP5        0.0000 
    101 CA         22.9827   79.1388   21.4540 C.3       4 GLC5        0.0000 
    102 CA         21.9850   83.2750   23.0643 C.3       4 GLC5        0.0000 
    103 CA         24.0020   83.2410   22.7030 C.3      12 GLL5        0.0000 
    104 CA         20.4550   82.9870   23.9370 C.3       8 GLP5        0.0000 
    105 CA         19.6520   88.1290   22.2670 C.3       4 GLC5        0.0000 
    106 CA         21.5540   88.2150   21.4510 C.3      12 GLL5        0.0000 
    107 CA         17.8280   87.4140   22.8190 C.3       8 GLP5        0.0000 
@<TRIPOS>BOND
@<TRIPOS>SUBSTRUCTURE
     1 ALC1       20 GROUP        1 X    ALC  0     ROOT ALC X 1
     2 SEC2        1 GROUP        1 X    SEC  0     **** SEC X 2
     3 LYC4       60 GROUP        1 X    LYC  0     **** LYC X 4
     4 GLC5        8 GROUP        1 X    GLC  0     **** GLC X 6
     5 ALP1       22 GROUP        1 Y    ALP  0     ROOT ALP Y 8
     6 SEP2        3 GROUP        1 Y    SEP  0     **** SEP Y 9
     7 LYP4       62 GROUP        1 Y    LYP  0     **** LYP Y 11
     8 GLP5       10 GROUP        1 Y    GLP  0     **** GLP Y 13
     9 ALL1       21 GROUP        1 Z    ALL  0     ROOT ALL Z 15
    10 SEL2        2 GROUP        1 Z    SEL  0     **** SEL Z 16
    11 LYL4       61 GROUP        1 Z    LYL  0     **** LYL Z 18
    12 GLL5        9 GROUP        1 Z    GLL  0     **** GLL Z 20
@<TRIPOS>SET

