#    Name: 1u8x_NAD_1_ligand
#    Modification time : Tue Mar 25 06:19:46 2014

@<TRIPOS>MOLECULE
1u8x_NAD_1_ligand
   70    74     1     0     0
SMALL
NO_CHARGES


@<TRIPOS>ATOM
      1 PA         27.0880   80.6660   23.1430 P.3       1 NAD900      0.0000 
      2 O1A        27.7940   80.7280   24.4420 O.co2     1 NAD900      0.0000 
      3 O2A        27.6810   79.8810   22.0310 O.co2     1 NAD900      0.0000 
      4 O5B        25.5990   80.0850   23.3210 O.3       1 NAD900      0.0000 
      5 C5B        25.0300   79.3270   22.2690 C.3       1 NAD900      0.0000 
      6 C4B        24.5250   77.9580   22.6950 C.3       1 NAD900      0.0000 
      7 O4B        23.5160   77.5530   21.7400 O.3       1 NAD900      0.0000 
      8 C3B        25.6530   76.9260   22.5960 C.3       1 NAD900      0.0000 
      9 O3B        25.7440   76.2350   23.8300 O.3       1 NAD900      0.0000 
     10 C2B        25.1710   75.9360   21.5520 C.3       1 NAD900      0.0000 
     11 O2B        25.5150   74.5950   21.9310 O.3       1 NAD900      0.0000 
     12 C1B        23.6580   76.1440   21.5610 C.3       1 NAD900      0.0000 
     13 N9A        23.1460   75.7590   20.2240 N.pl3     1 NAD900      0.0000 
     14 C8A        23.7150   76.0860   19.0640 C.2       1 NAD900      0.0000 
     15 N7A        23.0130   75.5710   18.0590 N.2       1 NAD900      0.0000 
     16 C5A        21.9890   74.9110   18.5810 C.ar      1 NAD900      0.0000 
     17 C6A        20.9440   74.1900   18.0290 C.ar      1 NAD900      0.0000 
     18 N6A        20.8570   74.0730   16.7120 N.pl3     1 NAD900      0.0000 
     19 N1A        20.0340   73.6180   18.8370 N.ar      1 NAD900      0.0000 
     20 C2A        20.1360   73.7440   20.1500 C.ar      1 NAD900      0.0000 
     21 N3A        21.1250   74.4290   20.7080 N.ar      1 NAD900      0.0000 
     22 C4A        22.0680   75.0240   19.9550 C.ar      1 NAD900      0.0000 
     23 O3         26.8240   82.1700   22.6790 O.3       1 NAD900      0.0000 
     24 PN         26.4520   83.4010   23.6530 P.3       1 NAD900      0.0000 
     25 O1N        26.0100   82.9340   24.9760 O.co2     1 NAD900      0.0000 
     26 O2N        27.5330   84.4040   23.5920 O.co2     1 NAD900      0.0000 
     27 O5D        25.1900   84.0000   22.8600 O.3       1 NAD900      0.0000 
     28 C5D        24.0020   83.2410   22.7030 C.3       1 NAD900      0.0000 
     29 C4D        23.0280   83.8850   21.6800 C.3       1 NAD900      0.0000 
     30 O4D        22.5260   85.0910   22.2750 O.3       1 NAD900      0.0000 
     31 C3D        23.7060   84.2820   20.3620 C.3       1 NAD900      0.0000 
     32 O3D        22.7960   84.0720   19.2810 O.3       1 NAD900      0.0000 
     33 C2D        23.9550   85.7620   20.5830 C.3       1 NAD900      0.0000 
     34 O2D        24.0630   86.4520   19.3350 O.3       1 NAD900      0.0000 
     35 C1D        22.6400   86.0860   21.2690 C.3       1 NAD900      0.0000 
     36 N1N        22.5690   87.4010   21.8930 N.pl3     1 NAD900      0.0000 
     37 C2N        21.5540   88.2150   21.4510 C.ar      1 NAD900      0.0000 
     38 C3N        21.3980   89.4730   21.9790 C.ar      1 NAD900      0.0000 
     39 C7N        20.2690   90.3210   21.4440 C.2       1 NAD900      0.0000 
     40 O7N        19.9950   91.4900   22.0270 O.2       1 NAD900      0.0000 
     41 N7N        19.5920   89.8520   20.3990 N.am      1 NAD900      0.0000 
     42 C4N        22.2640   89.9340   22.9670 C.ar      1 NAD900      0.0000 
     43 C5N        23.2940   89.1060   23.4200 C.ar      1 NAD900      0.0000 
     44 C6N        23.4520   87.8300   22.8880 C.ar      1 NAD900      0.0000 
     45 H          25.7615   79.1671   21.4407 H         1 NAD900      0.0000 
     46 H          24.1722   79.8646   21.7978 H         1 NAD900      0.0000 
     47 H          24.1533   77.9888   23.6708 H         1 NAD900      0.0000 
     48 H          26.5229   77.3813   22.2822 H         1 NAD900      0.0000 
     49 H          25.5450   76.2271   20.6110 H         1 NAD900      0.0000 
     50 H          23.2391   75.5874   22.3238 H         1 NAD900      0.0000 
     51 H          24.5288   76.6253   18.9680 H         1 NAD900      0.0000 
     52 H          19.9331   73.9972   16.3371 H         1 NAD900      0.0000 
     53 H          21.7231   74.0711   16.2122 H         1 NAD900      0.0000 
     54 H          19.4093   73.2862   20.7732 H         1 NAD900      0.0000 
     55 H          23.4454   83.1387   23.6521 H         1 NAD900      0.0000 
     56 H          24.2077   82.2158   22.3455 H         1 NAD900      0.0000 
     57 H          22.2365   83.2016   21.4800 H         1 NAD900      0.0000 
     58 H          24.6113   83.7801   20.2871 H         1 NAD900      0.0000 
     59 H          24.7275   85.8835   21.2496 H         1 NAD900      0.0000 
     60 H          21.8482   85.9536   20.5455 H         1 NAD900      0.0000 
     61 H          20.9052   87.8785   20.7178 H         1 NAD900      0.0000 
     62 H          18.8227   90.4095   20.0870 H         1 NAD900      0.0000 
     63 H          19.9135   88.9843   20.0199 H         1 NAD900      0.0000 
     64 H          22.1487   90.8720   23.3597 H         1 NAD900      0.0000 
     65 H          23.9364   89.4430   24.1492 H         1 NAD900      0.0000 
     66 H          24.1968   87.2174   23.2158 H         1 NAD900      0.0000 
     67 H          24.9583   75.6164   23.8386 H         1 NAD900      0.0000 
     68 H          24.8225   74.3301   22.6021 H         1 NAD900      0.0000 
     69 H          23.2867   84.3806   18.4662 H         1 NAD900      0.0000 
     70 H          25.0106   86.7689   19.2958 H         1 NAD900      0.0000 
@<TRIPOS>BOND
     1    2    1 ar   
     2    3    1 ar   
     3    4    1 1    
     4   23    1 1    
     5    5    4 1    
     6    6    5 1    
     7   45    5 1    
     8   46    5 1    
     9    7    6 1    
    10    8    6 1    
    11   47    6 1    
    12   12    7 1    
    13    9    8 1    
    14   10    8 1    
    15   48    8 1    
    16   67    9 1    
    17   11   10 1    
    18   12   10 1    
    19   49   10 1    
    20   68   11 1    
    21   13   12 1    
    22   50   12 1    
    23   14   13 1    
    24   22   13 1    
    25   15   14 2    
    26   51   14 1    
    27   16   15 1    
    28   17   16 ar   
    29   22   16 ar   
    30   18   17 1    
    31   19   17 ar   
    32   52   18 1    
    33   53   18 1    
    34   20   19 ar   
    35   21   20 ar   
    36   54   20 1    
    37   22   21 ar   
    38   24   23 1    
    39   25   24 ar   
    40   26   24 ar   
    41   27   24 1    
    42   28   27 1    
    43   29   28 1    
    44   55   28 1    
    45   56   28 1    
    46   30   29 1    
    47   31   29 1    
    48   57   29 1    
    49   35   30 1    
    50   32   31 1    
    51   33   31 1    
    52   58   31 1    
    53   69   32 1    
    54   34   33 1    
    55   35   33 1    
    56   59   33 1    
    57   70   34 1    
    58   36   35 1    
    59   60   35 1    
    60   37   36 ar   
    61   44   36 ar   
    62   38   37 ar   
    63   61   37 1    
    64   39   38 1    
    65   42   38 ar   
    66   40   39 2    
    67   41   39 am   
    68   62   41 1    
    69   63   41 1    
    70   43   42 ar   
    71   64   42 1    
    72   44   43 ar   
    73   65   43 1    
    74   66   44 1    
@<TRIPOS>SUBSTRUCTURE
     1 NAD900      1 GROUP   
@<TRIPOS>SET

