#    Name: 1lbc_CYZ_3_INTS_M
#    Modification time : Mon Apr  7 13:59:03 2014

@<TRIPOS>MOLECULE
1lbc_CYZ_3_INTS_M
   62     0     9     0     0
SMALL
NO_CHARGES


@<TRIPOS>ATOM
      1 CA         62.1685   23.3160   45.8325 C.3       3 GLC5        0.0000 
      2 CA         64.0140   22.2820   46.0380 C.3       9 GLL5        0.0000 
      3 CA         60.3230   24.3500   45.6270 C.3       6 GLP5        0.0000 
      4 CA         65.7700   24.5215   46.6250 C.3       3 GLC5        0.0000 
      5 CA         65.0870   23.0600   45.2220 C.3       9 GLL5        0.0000 
      6 CA         66.4530   25.9830   48.0280 C.3       6 GLP5        0.0000 
      7 CA         65.8130   22.8445   43.5520 C.3       3 GLC5        0.0000 
      8 CA         66.5390   22.6290   41.8820 C.3       6 GLP5        0.0000 
      9 CA         66.1385   24.6165   44.1285 C.3       3 GLC5        0.0000 
     10 CA         67.1900   26.1730   43.0350 C.3       6 GLP5        0.0000 
     11 CA         67.2230   23.2565   46.8595 C.3       3 GLC5        0.0000 
     12 CA         66.2520   22.4160   45.5160 C.3       9 GLL5        0.0000 
     13 CA         68.1940   24.0970   48.2030 C.3       6 GLP5        0.0000 
     14 CA         64.9565   21.8390   42.9020 C.3       3 GLC5        0.0000 
     15 CA         63.3740   21.0490   43.9220 C.3       9 GLL5        0.0000 
     16 O          61.3090   21.3680   44.6035 O.2       1 ALC1        0.0000 
     17 O          62.2260   21.6950   43.6070 O.2       7 ALL1        0.0000 
     18 O          60.3920   21.0410   45.6000 O.2       4 ALP1        0.0000 
     19 O          64.0710   18.6660   43.4865 O.2       1 ALC1        0.0000 
     20 O          63.1980   19.8690   43.2270 O.2       7 ALL1        0.0000 
     21 O          64.9440   17.4630   43.7460 O.2       4 ALP1        0.0000 
     22 CA         59.8230   22.3525   39.4850 C.3       3 GLC5        0.0000 
     23 CA         60.7930   20.5380   40.1620 C.3       9 GLL5        0.0000 
     24 CA         58.8530   24.1670   38.8080 C.3       6 GLP5        0.0000 
     25 CA         59.0220   19.8240   40.4800 C.3       3 GLC5        0.0000 
     26 CA         60.7710   19.1500   39.5220 C.3       9 GLL5        0.0000 
     27 CA         57.2730   20.4980   41.4380 C.3       6 GLP5        0.0000 
     28 CA         61.5310   15.0260   38.6815 C.3       3 GLC5        0.0000 
     29 CA         61.5770   16.4520   39.4810 C.3       9 GLL5        0.0000 
     30 CA         61.4850   13.6000   37.8820 C.3       6 GLP5        0.0000 
     31 N          60.1610   23.4350   40.8885 N.am      2 SEC2        0.0000 
     32 N          60.3310   22.9960   42.1810 N.am      8 SEL2        0.0000 
     33 N          59.9910   23.8740   39.5960 N.am      5 SEP2        0.0000 
     34 N          58.2375   21.2595   38.9950 N.am      2 SEC2        0.0000 
     35 N          58.8430   20.1420   38.0380 N.am      8 SEL2        0.0000 
     36 N          57.6320   22.3770   39.9520 N.am      5 SEP2        0.0000 
     37 CA         64.4537   18.5962   45.1235 C.3       3 GLC5        0.0000 
     38 CA         63.7840   20.9070   45.3080 C.3       9 GLL5        0.0000 
     39 CA         64.4530   16.6400   44.7930 C.3       6 GLP5        0.0000 
     40 CA         63.2245   22.2812   48.1165 C.3       3 GLC5        0.0000 
     41 CA         62.0920   22.4570   49.5430 C.3       6 GLP5        0.0000 
     42 CA         66.4107   22.4810   48.1362 C.3       3 GLC5        0.0000 
     43 CA         65.8130   21.3090   46.4750 C.3       9 GLL5        0.0000 
     44 CA         67.5650   23.3430   49.3640 C.3       6 GLP5        0.0000 
     45 CA         66.6949   21.5466   44.1584 C.3       3 GLC5        0.0000 
     46 CA         67.8110   22.0630   42.5190 C.3       6 GLP5        0.0000 
     47 CA         65.2682   20.5546   48.1349 C.3       3 GLC5        0.0000 
     48 CA         65.4520   19.7680   49.5800 C.3       6 GLP5        0.0000 
     49 CA         63.2120   20.2745   40.0520 C.3       3 GLC5        0.0000 
     50 CA         62.4610   19.6350   42.1010 C.3       9 GLL5        0.0000 
     51 CA         64.3770   20.3600   38.3430 C.3       6 GLP5        0.0000 
     52 CA         59.2430   20.5693   41.1148 C.3       3 GLC5        0.0000 
     53 CA         61.6330   20.7430   41.4210 C.3       9 GLL5        0.0000 
     54 CA         63.4498   17.7883   43.2860 C.3       3 GLC5        0.0000 
     55 CA         61.6958   17.5463   42.9760 C.3       3 GLC5        0.0000 
     56 CA         62.4320   18.2380   41.4570 C.3       9 GLL5        0.0000 
     57 CA         60.9450   16.1560   44.1730 C.3       6 GLP5        0.0000 
     58 CA         62.5795   20.1020   39.0925 C.3       3 GLC5        0.0000 
     59 CA         63.1937   19.2435   39.5815 C.3       3 GLC5        0.0000 
     60 CA         61.5890   18.0160   40.1830 C.3       9 GLL5        0.0000 
     61 CA         61.1475   15.9605   41.0025 C.3       3 GLC5        0.0000 
     62 CA         60.7120   14.6870   42.1730 C.3       6 GLP5        0.0000 
@<TRIPOS>BOND
@<TRIPOS>SUBSTRUCTURE
     1 ALC1       16 GROUP        1 X    ALC  0     ROOT ALC X 1
     2 SEC2       31 GROUP        1 X    SEC  0     **** SEC X 2
     3 GLC5        1 GROUP        1 X    GLC  0     **** GLC X 6
     4 ALP1       18 GROUP        1 Y    ALP  0     ROOT ALP Y 8
     5 SEP2       33 GROUP        1 Y    SEP  0     **** SEP Y 9
     6 GLP5        3 GROUP        1 Y    GLP  0     **** GLP Y 13
     7 ALL1       17 GROUP        1 Z    ALL  0     ROOT ALL Z 15
     8 SEL2       32 GROUP        1 Z    SEL  0     **** SEL Z 16
     9 GLL5        2 GROUP        1 Z    GLL  0     **** GLL Z 20
@<TRIPOS>SET

