#    Name: 1lbc_CYZ_3_ligand
#    Modification time : Mon Apr  7 13:59:03 2014

@<TRIPOS>MOLECULE
1lbc_CYZ_3_ligand
   39    42     1     0     0
SMALL
NO_CHARGES


@<TRIPOS>ATOM
      1 C1         63.7840   20.9070   45.3080 C.3       1 CYZ331      0.0000 
      2 C2         64.0140   22.2820   46.0380 C.3       1 CYZ331      0.0000 
      3 C3         65.0870   23.0600   45.2220 C.2       1 CYZ331      0.0000 
      4 C4         66.2520   22.4160   45.5160 C.2       1 CYZ331      0.0000 
      5 C5         65.8130   21.3090   46.4750 C.3       1 CYZ331      0.0000 
      6 C6         65.1250   20.1980   45.6000 C.3       1 CYZ331      0.0000 
      7 C7         64.7000   21.9290   47.3420 C.3       1 CYZ331      0.0000 
      8 C8         63.3740   21.0490   43.9220 C.3       1 CYZ331      0.0000 
      9 N1         62.2260   21.6950   43.6070 N.pl3     1 CYZ331      0.0000 
     10 S1         61.6530   22.3470   42.1570 S.o2      1 CYZ331      0.0000 
     11 C9         61.6330   20.7430   41.4210 C.ar      1 CYZ331      0.0000 
     12 C10        62.4610   19.6350   42.1010 C.ar      1 CYZ331      0.0000 
     13 N2         63.1980   19.8690   43.2270 N.pl3     1 CYZ331      0.0000 
     14 C11        60.7930   20.5380   40.1620 C.ar      1 CYZ331      0.0000 
     15 C12        60.7710   19.1500   39.5220 C.ar      1 CYZ331      0.0000 
     16 C13        61.5890   18.0160   40.1830 C.ar      1 CYZ331      0.0000 
     17 C14        62.4320   18.2380   41.4570 C.ar      1 CYZ331      0.0000 
     18 CL         61.5770   16.4520   39.4810 Cl        1 CYZ331      0.0000 
     19 S2         59.7680   18.9930   38.0510 S.o2      1 CYZ331      0.0000 
     20 O1         62.6740   23.1930   41.5000 O.2       1 CYZ331      0.0000 
     21 O2         60.3310   22.9960   42.1810 O.2       1 CYZ331      0.0000 
     22 O3         58.8430   20.1420   38.0380 O.2       1 CYZ331      0.0000 
     23 O4         59.0220   17.7200   38.1450 O.2       1 CYZ331      0.0000 
     24 N3         60.9840   19.2610   36.9050 N.pl3     1 CYZ331      0.0000 
     25 H          63.0315   20.3984   45.9239 H         1 CYZ331      0.0000 
     26 H          63.1716   22.7935   46.1542 H         1 CYZ331      0.0000 
     27 H          64.8683   23.7609   44.7071 H         1 CYZ331      0.0000 
     28 H          67.1069   22.5306   45.2663 H         1 CYZ331      0.0000 
     29 H          66.5661   20.9392   47.0217 H         1 CYZ331      0.0000 
     30 H          65.6639   20.0757   44.7231 H         1 CYZ331      0.0000 
     31 H          64.9656   19.3570   46.1846 H         1 CYZ331      0.0000 
     32 H          64.2009   21.1993   47.8139 H         1 CYZ331      0.0000 
     33 H          65.0484   22.7553   47.7892 H         1 CYZ331      0.0000 
     34 H          64.2227   21.5951   43.3676 H         1 CYZ331      0.0000 
     35 H          61.4581   21.8825   44.3557 H         1 CYZ331      0.0000 
     36 H          63.7265   19.0003   43.6416 H         1 CYZ331      0.0000 
     37 H          60.2859   21.2700   39.7777 H         1 CYZ331      0.0000 
     38 H          62.9364   17.5044   41.8450 H         1 CYZ331      0.0000 
     39 H          61.1699   20.2426   36.9498 H         1 CYZ331      0.0000 
@<TRIPOS>BOND
     1    2    1 1    
     2    6    1 1    
     3    8    1 1    
     4   25    1 1    
     5    3    2 1    
     6    7    2 1    
     7   26    2 1    
     8    4    3 2    
     9   27    3 1    
    10    5    4 1    
    11   28    4 1    
    12    6    5 1    
    13    7    5 1    
    14   29    5 1    
    15   30    6 1    
    16   31    6 1    
    17   32    7 1    
    18   33    7 1    
    19    9    8 1    
    20   13    8 1    
    21   34    8 1    
    22   10    9 1    
    23   35    9 1    
    24   11   10 1    
    25   20   10 2    
    26   21   10 2    
    27   12   11 ar   
    28   14   11 ar   
    29   13   12 1    
    30   17   12 ar   
    31   36   13 1    
    32   15   14 ar   
    33   37   14 1    
    34   16   15 ar   
    35   19   15 1    
    36   17   16 ar   
    37   18   16 1    
    38   38   17 1    
    39   22   19 2    
    40   23   19 2    
    41   24   19 1    
    42   39   24 1    
@<TRIPOS>SUBSTRUCTURE
     1 CYZ331      1 GROUP   
@<TRIPOS>SET

