#    Name: 1kqb_FMN_4_INTS_M
#    Modification time : Tue Mar 25 10:23:50 2014

@<TRIPOS>MOLECULE
1kqb_FMN_4_INTS_M
   88     0    12     0     0
SMALL
NO_CHARGES


@<TRIPOS>ATOM
      1 N          -2.6785   38.3120   -6.7450 N.am      2 SEC2        0.0000 
      2 N          -1.6040   37.6870   -7.2910 N.am     10 SEL2        0.0000 
      3 N          -3.7530   38.9370   -6.1990 N.am      6 SEP2        0.0000 
      4 N          -1.3090   38.0640   -8.6880 N.am      2 SEC2        0.0000 
      5 N          -1.0140   38.4410  -10.0850 N.am      6 SEP2        0.0000 
      6 O           0.0750   35.9415   -8.5740 O.2       1 ALC1        0.0000 
      7 O          -0.3150   35.7790   -7.1820 O.2       9 ALL1        0.0000 
      8 O           0.4650   36.1040   -9.9660 O.2       5 ALP1        0.0000 
      9 N           0.9945   33.9010   -8.4910 N.am      2 SEC2        0.0000 
     10 N           0.9480   33.8660   -6.9940 N.am     10 SEL2        0.0000 
     11 N           1.0410   33.9360   -9.9880 N.am      6 SEP2        0.0000 
     12 N           2.2265   33.2340   -6.1530 N.am      2 SEC2        0.0000 
     13 N           3.5050   32.6020   -5.3120 N.am      6 SEP2        0.0000 
     14 N           1.7265   32.5990   -7.1200 N.am      2 SEC2        0.0000 
     15 N           2.5050   31.3320   -7.2460 N.am      6 SEP2        0.0000 
     16 N           2.2545   33.3595   -4.7290 N.am      2 SEC2        0.0000 
     17 N           1.0040   34.1170   -4.1460 N.am     10 SEL2        0.0000 
     18 CA          2.1025   32.3810   -3.4260 C.3       4 GLC5        0.0000 
     19 CA          1.2320   34.2200   -2.7910 C.3      12 GLL5        0.0000 
     20 CA          2.9730   30.5420   -4.0610 C.3       8 GLP5        0.0000 
     21 CA          0.9335   32.2675   -1.0440 C.3       4 GLC5        0.0000 
     22 CA          2.1900   33.4670   -2.0310 C.3      12 GLL5        0.0000 
     23 CA         -0.3230   31.0680   -0.0570 C.3       8 GLP5        0.0000 
     24 CA          1.5975   31.9880   -0.0255 C.3       4 GLC5        0.0000 
     25 CA          3.5180   32.9080    0.0060 C.3      12 GLL5        0.0000 
     26 CA          4.1800   33.9750    1.6560 C.3       4 GLC5        0.0000 
     27 CA          4.8420   35.0420    3.3060 C.3       8 GLP5        0.0000 
     28 CA          4.6460   31.7885    0.8205 C.3       4 GLC5        0.0000 
     29 CA          5.7740   30.6690    1.6350 C.3       8 GLP5        0.0000 
     30 CA          1.0545   37.0770    2.2475 C.3       4 GLC5        0.0000 
     31 CA          1.8960   35.2640    1.3900 C.3      12 GLL5        0.0000 
     32 CA          0.2130   38.8900    3.1050 C.3       8 GLP5        0.0000 
     33 CA          0.4240   33.8275    0.7875 C.3       4 GLC5        0.0000 
     34 CA         -1.0480   32.3910    0.1850 C.3       8 GLP5        0.0000 
     35 CA          3.3690   35.1530    2.3480 C.3       4 GLC5        0.0000 
     36 CA         -1.2510   39.0960   -2.6570 C.3       4 GLC5        0.0000 
     37 CA         -1.2090   37.1770   -2.3790 C.3      12 GLL5        0.0000 
     38 CA         -1.2930   41.0150   -2.9350 C.3       8 GLP5        0.0000 
     39 CA          0.7625   37.5990   -1.8640 C.3       4 GLC5        0.0000 
     40 CA          2.7340   38.0210   -1.3490 C.3       8 GLP5        0.0000 
     41 CA         -1.9075   39.4170   -1.6765 C.3       4 GLC5        0.0000 
     42 CA         -2.5220   37.8190   -0.4180 C.3      12 GLL5        0.0000 
     43 CA         -2.3155   38.5685    2.8245 C.3       4 GLC5        0.0000 
     44 CA         -4.0310   38.9150    1.4410 C.3      12 GLL5        0.0000 
     45 CA         -0.6000   38.2220    4.2080 C.3       8 GLP5        0.0000 
     46 NZ         -0.3680   41.5345    0.8450 N.4       3 LYC4        0.0000 
     47 NZ         -1.5440   40.7180    0.6370 N.4      11 LYL4        0.0000 
     48 NZ          0.8100   42.9580    2.2340 N.4       7 LYP4        0.0000 
     49 N          -0.8610   41.7230    1.8665 N.am      2 SEC2        0.0000 
     50 N          -1.5440   40.7180    0.6370 N.am     10 SEL2        0.0000 
     51 N          -0.1780   42.7280    3.0960 N.am      6 SEP2        0.0000 
     52 N          -0.3680   41.5345    0.8450 N.am      2 SEC2        0.0000 
     53 N           0.8080   42.3510    1.0530 N.am      6 SEP2        0.0000 
     54 N          -1.0750   40.4845   -0.6635 N.am      2 SEC2        0.0000 
     55 N          -0.6060   40.2510   -1.9640 N.am      6 SEP2        0.0000 
     56 NZ         -1.5485   42.2375    2.6920 N.4       3 LYC4        0.0000 
     57 NZ         -2.9190   41.7470    2.2880 N.4      11 LYL4        0.0000 
     58 NZ         -3.4155   43.0160    2.5745 N.4       3 LYC4        0.0000 
     59 NZ         -3.9120   44.2850    2.8610 N.4       7 LYP4        0.0000 
     60 NZ         -3.2300   41.0300    3.4620 N.4       3 LYC4        0.0000 
     61 NZ         -4.7140   39.8890    5.0910 N.4       7 LYP4        0.0000 
     62 N          -1.5485   42.2375    2.6920 N.am      2 SEC2        0.0000 
     63 N          -2.9190   41.7470    2.2880 N.am     10 SEL2        0.0000 
     64 N          -3.4155   43.0160    2.5745 N.am      2 SEC2        0.0000 
     65 N          -3.9120   44.2850    2.8610 N.am      6 SEP2        0.0000 
     66 N          -3.2300   41.0300    3.4620 N.am      2 SEC2        0.0000 
     67 N          -3.5410   40.3130    4.6360 N.am      6 SEP2        0.0000 
     68 NZ         -3.6295   43.3010    1.3920 N.4       3 LYC4        0.0000 
     69 NZ         -3.3470   42.3170   -0.0770 N.4      11 LYL4        0.0000 
     70 N          -2.3560   42.7630   -0.9665 N.am      2 SEC2        0.0000 
     71 N          -3.3470   42.3170   -0.0770 N.am     10 SEL2        0.0000 
     72 N          -1.3650   43.2090   -1.8560 N.am      6 SEP2        0.0000 
     73 CA          2.8580   34.3987   -4.0145 C.3       4 GLC5        0.0000 
     74 CA          4.0050   34.9540   -5.6180 C.3       8 GLP5        0.0000 
     75 CA          3.1975   35.4915   -1.4595 C.3       4 GLC5        0.0000 
     76 CA          4.0770   37.3890   -1.5550 C.3       8 GLP5        0.0000 
     77 CA          3.3320   31.8185   -1.7210 C.3       4 GLC5        0.0000 
     78 CA          2.4460   33.7210   -0.6970 C.3      12 GLL5        0.0000 
     79 CA          3.7460   30.3860   -2.7630 C.3       8 GLP5        0.0000 
     80 CA          2.2748   36.5187   -0.3310 C.3       4 GLC5        0.0000 
     81 CA          0.2766   34.8806    1.6515 C.3       4 GLC5        0.0000 
     82 CA          0.7830   35.4920   -0.7390 C.3      12 GLL5        0.0000 
     83 CA         -0.7460   34.5070    3.3290 C.3       8 GLP5        0.0000 
     84 CA          1.7781   36.5716   -1.4748 C.3       4 GLC5        0.0000 
     85 CA         -5.1732   36.9818    1.3190 C.3       4 GLC5        0.0000 
     86 CA         -3.7740   37.7640    0.4750 C.3      12 GLL5        0.0000 
     87 CA         -6.4440   35.6240    1.6800 C.3       8 GLP5        0.0000 
     88 CA          0.2042   33.5373   -0.3968 C.3       4 GLC5        0.0000 
@<TRIPOS>BOND
@<TRIPOS>SUBSTRUCTURE
     1 ALC1        6 GROUP        1 X    ALC  0     ROOT ALC X 1
     2 SEC2        1 GROUP        1 X    SEC  0     **** SEC X 2
     3 LYC4       46 GROUP        1 X    LYC  0     **** LYC X 4
     4 GLC5       18 GROUP        1 X    GLC  0     **** GLC X 6
     5 ALP1        8 GROUP        1 Y    ALP  0     ROOT ALP Y 8
     6 SEP2        3 GROUP        1 Y    SEP  0     **** SEP Y 9
     7 LYP4       48 GROUP        1 Y    LYP  0     **** LYP Y 11
     8 GLP5       20 GROUP        1 Y    GLP  0     **** GLP Y 13
     9 ALL1        7 GROUP        1 Z    ALL  0     ROOT ALL Z 15
    10 SEL2        2 GROUP        1 Z    SEL  0     **** SEL Z 16
    11 LYL4       47 GROUP        1 Z    LYL  0     **** LYL Z 18
    12 GLL5       19 GROUP        1 Z    GLL  0     **** GLL Z 20
@<TRIPOS>SET

