#    Name: 1kqb_FMN_4_ligand
#    Modification time : Tue Mar 25 10:23:50 2014

@<TRIPOS>MOLECULE
1kqb_FMN_4_ligand
   50    52     1     0     0
SMALL
NO_CHARGES


@<TRIPOS>ATOM
      1 N1         -1.0610   36.8690   -5.1890 N.2       1 FMN521      0.0000 
      2 C2         -1.0440   36.8410   -6.5840 C.2       1 FMN521      0.0000 
      3 O2         -1.6040   37.6870   -7.2910 O.2       1 FMN521      0.0000 
      4 N3         -0.3150   35.7790   -7.1820 N.am      1 FMN521      0.0000 
      5 C4          0.3540   34.7980   -6.4660 C.2       1 FMN521      0.0000 
      6 O4          0.9480   33.8660   -6.9940 O.2       1 FMN521      0.0000 
      7 C4A         0.3120   34.8870   -4.9670 C.2       1 FMN521      0.0000 
      8 N5          1.0040   34.1170   -4.1460 N.2       1 FMN521      0.0000 
      9 C5A         1.2320   34.2200   -2.7910 C.ar      1 FMN521      0.0000 
     10 C6          2.1900   33.4670   -2.0310 C.ar      1 FMN521      0.0000 
     11 C7          2.4460   33.7210   -0.6970 C.ar      1 FMN521      0.0000 
     12 C7M         3.5180   32.9080    0.0060 C.3       1 FMN521      0.0000 
     13 C8          1.7350   34.7690   -0.0160 C.ar      1 FMN521      0.0000 
     14 C8M         1.8960   35.2640    1.3900 C.3       1 FMN521      0.0000 
     15 C9          0.7830   35.4920   -0.7390 C.ar      1 FMN521      0.0000 
     16 C9A         0.4910   35.2850   -2.1330 C.ar      1 FMN521      0.0000 
     17 N10        -0.4170   36.0410   -2.9960 N.pl3     1 FMN521      0.0000 
     18 C10        -0.4390   35.9890   -4.3860 C.2       1 FMN521      0.0000 
     19 C1'        -1.2090   37.1770   -2.3790 C.3       1 FMN521      0.0000 
     20 C2'        -2.3550   36.6550   -1.4720 C.3       1 FMN521      0.0000 
     21 O2'        -3.4900   36.3940   -2.2430 O.3       1 FMN521      0.0000 
     22 C3'        -2.5220   37.8190   -0.4180 C.3       1 FMN521      0.0000 
     23 O3'        -1.3490   38.0180    0.4300 O.3       1 FMN521      0.0000 
     24 C4'        -3.7740   37.7640    0.4750 C.3       1 FMN521      0.0000 
     25 O4'        -4.9680   37.6060   -0.3220 O.3       1 FMN521      0.0000 
     26 C5'        -4.0310   38.9150    1.4410 C.3       1 FMN521      0.0000 
     27 O5'        -4.0570   40.1280    0.7120 O.3       1 FMN521      0.0000 
     28 P          -2.8760   41.2230    0.9230 P.3       1 FMN521      0.0000 
     29 O1P        -1.5440   40.7180    0.6370 O.co2     1 FMN521      0.0000 
     30 O2P        -2.9190   41.7470    2.2880 O.co2     1 FMN521      0.0000 
     31 O3P        -3.3470   42.3170   -0.0770 O.co2     1 FMN521      0.0000 
     32 H          -0.2891   35.7465   -8.2339 H         1 FMN521      0.0000 
     33 H           2.6993   32.7054   -2.5244 H         1 FMN521      0.0000 
     34 H           0.2342   36.2413   -0.2469 H         1 FMN521      0.0000 
     35 H          -1.6465   37.7938   -3.1664 H         1 FMN521      0.0000 
     36 H          -0.5494   37.8029   -1.7749 H         1 FMN521      0.0000 
     37 H          -1.9610   35.8134   -0.9427 H         1 FMN521      0.0000 
     38 H          -2.6391   38.7680   -1.0355 H         1 FMN521      0.0000 
     39 H          -3.6843   36.8369    1.1056 H         1 FMN521      0.0000 
     40 H          -3.2355   38.9028    2.1928 H         1 FMN521      0.0000 
     41 H          -4.9809   38.7184    1.9482 H         1 FMN521      0.0000 
     42 H           4.4137   33.0245   -0.4231 H         1 FMN521      0.0000 
     43 H           3.6158   33.1730    0.9653 H         1 FMN521      0.0000 
     44 H           3.3113   31.9297   -0.0082 H         1 FMN521      0.0000 
     45 H           2.8207   35.6046    1.5602 H         1 FMN521      0.0000 
     46 H           1.2655   36.0127    1.5946 H         1 FMN521      0.0000 
     47 H           1.7215   34.5425    2.0600 H         1 FMN521      0.0000 
     48 H          -4.2533   36.7636   -1.7131 H         1 FMN521      0.0000 
     49 H          -1.2885   39.0077    0.5597 H         1 FMN521      0.0000 
     50 H          -5.6732   37.3132    0.3237 H         1 FMN521      0.0000 
@<TRIPOS>BOND
     1    2    1 1    
     2   18    1 2    
     3    3    2 2    
     4    4    2 am   
     5    5    4 am   
     6   32    4 1    
     7    6    5 2    
     8    7    5 1    
     9    8    7 2    
    10   18    7 1    
    11    9    8 1    
    12   10    9 ar   
    13   16    9 ar   
    14   11   10 ar   
    15   33   10 1    
    16   12   11 1    
    17   13   11 ar   
    18   42   12 1    
    19   43   12 1    
    20   44   12 1    
    21   14   13 1    
    22   15   13 ar   
    23   45   14 1    
    24   46   14 1    
    25   47   14 1    
    26   16   15 ar   
    27   34   15 1    
    28   17   16 1    
    29   18   17 1    
    30   19   17 1    
    31   20   19 1    
    32   35   19 1    
    33   36   19 1    
    34   21   20 1    
    35   22   20 1    
    36   37   20 1    
    37   48   21 1    
    38   23   22 1    
    39   24   22 1    
    40   38   22 1    
    41   49   23 1    
    42   25   24 1    
    43   26   24 1    
    44   39   24 1    
    45   50   25 1    
    46   27   26 1    
    47   40   26 1    
    48   41   26 1    
    49   28   27 1    
    50   29   28 ar   
    51   30   28 ar   
    52   31   28 ar   
@<TRIPOS>SUBSTRUCTURE
     1 FMN521      1 GROUP   
@<TRIPOS>SET

