#    Name: 3g75_B48_2_INTS_M
#    Modification time : Tue Mar 25 07:17:31 2014

@<TRIPOS>MOLECULE
3g75_B48_2_INTS_M
   33     0     3     0     0
SMALL
NO_CHARGES


@<TRIPOS>ATOM
      1 CA         12.5345   -3.5465   -0.6225 C.3       1 GLC5        0.0000 
      2 CA         11.6510   -5.3020   -1.3300 C.3       3 GLL5        0.0000 
      3 CA         13.4180   -1.7910    0.0850 C.3       2 GLP5        0.0000 
      4 CA         11.5420   -7.2735   -1.5325 C.3       1 GLC5        0.0000 
      5 CA         11.4330   -9.2450   -1.7350 C.3       2 GLP5        0.0000 
      6 CA          7.9805   -3.7700   -1.3300 C.3       1 GLC5        0.0000 
      7 CA         10.0400   -4.5620   -1.7330 C.3       3 GLL5        0.0000 
      8 CA          5.9210   -2.9780   -0.9270 C.3       2 GLP5        0.0000 
      9 CA          9.6060   -7.6095   -2.4705 C.3       1 GLC5        0.0000 
     10 CA          7.8730   -6.4120   -1.7600 C.3       3 GLL5        0.0000 
     11 CA         11.3390   -8.8070   -3.1810 C.3       2 GLP5        0.0000 
     12 CA          5.8450   -8.9430    1.5270 C.3       1 GLC5        0.0000 
     13 CA          5.6610   -9.5600   -0.1120 C.3       3 GLL5        0.0000 
     14 CA          6.0290   -8.3260    3.1660 C.3       2 GLP5        0.0000 
     15 CA          3.7985  -13.1490    2.3805 C.3       1 GLC5        0.0000 
     16 CA          3.2430  -12.1010    0.5350 C.3       3 GLL5        0.0000 
     17 CA          4.3540  -14.1970    4.2260 C.3       2 GLP5        0.0000 
     18 CA         10.8592   -3.1500   -2.2868 C.3       1 GLC5        0.0000 
     19 CA         10.8730   -1.3680   -3.0420 C.3       2 GLP5        0.0000 
     20 CA         11.4958   -4.9860   -3.3508 C.3       1 GLC5        0.0000 
     21 CA         12.1460   -5.0400   -5.1700 C.3       2 GLP5        0.0000 
     22 CA          6.7135   -4.8840   -1.1133 C.3       1 GLC5        0.0000 
     23 CA          6.2947   -7.9817    1.1027 C.3       1 GLC5        0.0000 
     24 CA          7.1390   -7.1680   -0.8390 C.3       3 GLL5        0.0000 
     25 CA          6.3271   -8.8085   -3.3450 C.3       1 GLC5        0.0000 
     26 CA          5.9820   -8.1070   -1.0820 C.3       3 GLL5        0.0000 
     27 CA          7.4800  -10.1110   -4.3640 C.3       2 GLP5        0.0000 
     28 CA          3.3825  -12.3980   -2.7428 C.3       1 GLC5        0.0000 
     29 CA          3.3250  -11.0730   -0.8900 C.3       3 GLL5        0.0000 
     30 CA          3.9000  -13.5070   -4.1430 C.3       2 GLP5        0.0000 
     31 CA          2.3715  -13.7270   -2.3380 C.3       1 GLC5        0.0000 
     32 CA          1.6650  -12.5940   -1.3910 C.3       3 GLL5        0.0000 
     33 CA          2.9300  -14.6270   -3.8910 C.3       2 GLP5        0.0000 
@<TRIPOS>BOND
@<TRIPOS>SUBSTRUCTURE
     1 GLC5        1 GROUP        1 X    GLC  0     ROOT GLC X 6
     2 GLP5        3 GROUP        1 Y    GLP  0     ROOT GLP Y 13
     3 GLL5        2 GROUP        1 Z    GLL  0     ROOT GLL Z 20
@<TRIPOS>SET

