#    Name: 3g75_B48_2_ligand
#    Modification time : Tue Mar 25 07:17:31 2014

@<TRIPOS>MOLECULE
3g75_B48_2_ligand
   29    31     1     0     0
SMALL
NO_CHARGES


@<TRIPOS>ATOM
      1 C1         11.6510   -5.3020   -1.3300 C.3       1 B481        0.0000 
      2 S2         10.0400   -4.5620   -1.7330 S.3       1 B481        0.0000 
      3 C3          8.8470   -5.6880   -1.0450 C.2       1 B481        0.0000 
      4 C4          7.8730   -6.4120   -1.7600 C.2       1 B481        0.0000 
      5 C5          7.1390   -7.1680   -0.8390 C.2       1 B481        0.0000 
      6 N6          7.6740   -6.8970    0.3890 N.pl3     1 B481        0.0000 
      7 N8          8.7230   -5.9830    0.2270 N.2       1 B481        0.0000 
      8 C9          5.9820   -8.1070   -1.0820 C.2       1 B481        0.0000 
      9 S10         5.6610   -9.5600   -0.1120 S.3       1 B481        0.0000 
     10 C11         4.2350   -9.9210   -1.0820 C.2       1 B481        0.0000 
     11 N12         4.0990   -9.0020   -2.0010 N.2       1 B481        0.0000 
     12 C13         4.9830   -8.0350   -2.0440 C.2       1 B481        0.0000 
     13 C14         4.8660   -6.9410   -3.0890 C.3       1 B481        0.0000 
     14 C15         3.3250  -11.0730   -0.8900 C.2       1 B481        0.0000 
     15 C16         2.4050  -11.5050   -1.7950 C.2       1 B481        0.0000 
     16 C17         1.6650  -12.5940   -1.3910 C.2       1 B481        0.0000 
     17 C18         1.9610  -13.0600   -0.1790 C.2       1 B481        0.0000 
     18 S19         3.2430  -12.1010    0.5350 S.3       1 B481        0.0000 
     19 H           7.7432   -6.3880   -2.6912 H         1 B481        0.0000 
     20 H           7.3945   -7.2586    1.2259 H         1 B481        0.0000 
     21 H           2.2704  -11.0713   -2.6859 H         1 B481        0.0000 
     22 H           0.9563  -12.9925   -1.9860 H         1 B481        0.0000 
     23 H           1.6820  -13.7381    0.3806 H         1 B481        0.0000 
     24 H          12.4101   -4.7493   -1.6741 H         1 B481        0.0000 
     25 H          11.7803   -5.3953   -0.3428 H         1 B481        0.0000 
     26 H          11.7499   -6.2148   -1.7261 H         1 B481        0.0000 
     27 H           5.6712   -6.9051   -3.6809 H         1 B481        0.0000 
     28 H           4.0723   -7.0771   -3.6819 H         1 B481        0.0000 
     29 H           4.7686   -6.0375   -2.6716 H         1 B481        0.0000 
@<TRIPOS>BOND
     1    2    1 1    
     2   24    1 1    
     3   25    1 1    
     4   26    1 1    
     5    3    2 1    
     6    4    3 1    
     7    7    3 2    
     8    5    4 2    
     9   19    4 1    
    10    6    5 1    
    11    8    5 1    
    12    7    6 1    
    13   20    6 1    
    14    9    8 1    
    15   12    8 2    
    16   10    9 1    
    17   11   10 2    
    18   14   10 1    
    19   12   11 1    
    20   13   12 1    
    21   27   13 1    
    22   28   13 1    
    23   29   13 1    
    24   15   14 2    
    25   18   14 1    
    26   16   15 1    
    27   21   15 1    
    28   17   16 2    
    29   22   16 1    
    30   18   17 1    
    31   23   17 1    
@<TRIPOS>SUBSTRUCTURE
     1 B481        1 GROUP   
@<TRIPOS>SET

