#    Name: 3LTW_2_CAVITY_N1_6.mol2
#    Modification time : Tue Mar 11 12:16:21 2014

@<TRIPOS>MOLECULE
3LTW_2_CAVITY_N1_6.mol2
   75     0     5     0     0
SMALL
NO_CHARGES


@<TRIPOS>ATOM
      1 O         -23.1469   -5.9963  -27.0358 O.2       2 ALA2        0.0000 
      2 CA        -24.2527   -5.0019  -26.8404 C.3       4 GLY6        0.0000 
      3 CA        -24.0226   -7.0795  -26.4792 C.3       4 GLY6        0.0000 
      4 NZ        -25.1284   -6.0850  -26.2838 N.2       3 LYS4        0.0000 
      5 NZ        -24.6182   -5.7888  -24.9046 N.2       3 LYS4        0.0000 
      6 N         -27.9094   -5.4887  -33.5405 N.2       2 ALA2        0.0000 
      7 CA        -25.4177   -5.1037  -32.9135 C.3       4 GLY6        0.0000 
      8 DU        -26.2934   -6.1869  -32.3568 H         5 CUB7        0.0000 
      9 N         -27.3992   -5.1925  -32.1614 N.2       2 ALA2        0.0000 
     10 CA        -27.1691   -7.2701  -31.8002 C.3       4 GLY6        0.0000 
     11 N         -28.2749   -6.2757  -31.6048 N.2       2 ALA2        0.0000 
     12 N         -28.0448   -8.3533  -31.2436 N.2       2 ALA2        0.0000 
     13 DU        -29.1506   -7.3589  -31.0481 H         5 CUB7        0.0000 
     14 N         -30.2565   -6.3644  -30.8527 N.2       2 ALA2        0.0000 
     15 CA        -31.3623   -5.3700  -30.6572 C.3       4 GLY6        0.0000 
     16 N         -28.9205   -9.4365  -30.6869 N.2       2 ALA2        0.0000 
     17 DU        -30.0263   -8.4420  -30.4915 H         5 CUB7        0.0000 
     18 DU        -31.1322   -7.4476  -30.2960 H         5 CUB7        0.0000 
     19 DU        -32.2380   -6.4532  -30.1006 H         5 CUB7        0.0000 
     20 DU        -30.9020   -9.5252  -29.9348 H         5 CUB7        0.0000 
     21 DU        -32.0079   -8.5308  -29.7394 H         5 CUB7        0.0000 
     22 N         -33.1137   -7.5363  -29.5439 N.2       2 ALA2        0.0000 
     23 CA        -32.8836   -9.6140  -29.1827 C.3       4 GLY6        0.0000 
     24 CA        -24.6774   -6.8851  -31.1732 C.3       4 GLY6        0.0000 
     25 OG        -25.7832   -5.8907  -30.9777 O.2       1 SER1        0.0000 
     26 N         -26.8891   -4.8962  -30.7823 N.2       2 ALA2        0.0000 
     27 CA        -25.5531   -7.9683  -30.6165 C.3       4 GLY6        0.0000 
     28 O         -26.6589   -6.9738  -30.4211 O.2       2 ALA2        0.0000 
     29 N         -27.7648   -5.9794  -30.2256 N.2       2 ALA2        0.0000 
     30 N         -28.8706   -4.9850  -30.0302 N.2       2 ALA2        0.0000 
     31 O         -27.5346   -8.0570  -29.8645 O.2       2 ALA2        0.0000 
     32 DU        -28.6405   -7.0626  -29.6690 H         5 CUB7        0.0000 
     33 DU        -29.7463   -6.0681  -29.4736 H         5 CUB7        0.0000 
     34 CA        -30.8521   -5.0737  -29.2781 C.3       4 GLY6        0.0000 
     35 CA        -31.9580   -4.0792  -29.0827 C.3       4 GLY6        0.0000 
     36 CA        -33.0638   -3.0848  -28.8872 C.3       4 GLY6        0.0000 
     37 N         -28.4103   -9.1402  -29.3078 N.2       2 ALA2        0.0000 
     38 N         -29.5162   -8.1458  -29.1124 N.2       2 ALA2        0.0000 
     39 DU        -30.6220   -7.1513  -28.9169 H         5 CUB7        0.0000 
     40 N         -31.7278   -6.1569  -28.7215 N.2       2 ALA2        0.0000 
     41 N         -32.8337   -5.1624  -28.5260 N.2       2 ALA2        0.0000 
     42 N         -33.9395   -4.1680  -28.3306 N.2       2 ALA2        0.0000 
     43 N         -30.3919   -9.2290  -28.5557 N.2       2 ALA2        0.0000 
     44 CA        -31.4977   -8.2345  -28.3603 C.3       4 GLY6        0.0000 
     45 N         -32.6035   -7.2401  -28.1648 N.2       2 ALA2        0.0000 
     46 OG        -24.1672   -6.5888  -29.7941 O.2       1 SER1        0.0000 
     47 OG        -25.2731   -5.5944  -29.5986 O.2       1 SER1        0.0000 
     48 N         -26.3789   -4.5999  -29.4032 N.2       2 ALA2        0.0000 
     49 O         -25.0429   -7.6720  -29.2374 O.2       2 ALA2        0.0000 
     50 O         -26.1488   -6.6776  -29.0420 O.2       2 ALA2        0.0000 
     51 N         -27.2546   -5.6831  -28.8465 N.2       2 ALA2        0.0000 
     52 N         -28.3604   -4.6887  -28.6511 N.2       2 ALA2        0.0000 
     53 N         -29.4663   -3.6942  -28.4556 N.2       2 ALA2        0.0000 
     54 O         -30.5721   -2.6998  -28.2602 O.2       2 ALA2        0.0000 
     55 O         -27.0245   -7.7608  -28.4853 O.2       2 ALA2        0.0000 
     56 CA        -28.1303   -6.7663  -28.2899 C.3       4 GLY6        0.0000 
     57 CA        -29.2361   -5.7719  -28.0944 C.3       4 GLY6        0.0000 
     58 DU        -30.3420   -4.7774  -27.8990 H         5 CUB7        0.0000 
     59 CA        -31.4478   -3.7830  -27.7036 C.3       4 GLY6        0.0000 
     60 CA        -32.5536   -2.7885  -27.5081 C.3       4 GLY6        0.0000 
     61 CA        -29.0060   -7.8495  -27.7333 C.3       4 GLY6        0.0000 
     62 CA        -30.1118   -6.8551  -27.5378 C.3       4 GLY6        0.0000 
     63 N         -31.2177   -5.8606  -27.3424 N.2       2 ALA2        0.0000 
     64 CA        -22.5512   -7.2870  -28.6104 C.3       4 GLY6        0.0000 
     65 O         -23.6570   -6.2926  -28.4150 O.2       2 ALA2        0.0000 
     66 O         -24.7629   -5.2981  -28.2195 O.2       2 ALA2        0.0000 
     67 CA        -24.5327   -7.3758  -27.8583 C.3       4 GLY6        0.0000 
     68 NZ        -25.6386   -6.3813  -27.6629 N.2       3 LYS4        0.0000 
     69 NZ        -26.7444   -5.3869  -27.4674 N.2       3 LYS4        0.0000 
     70 NZ        -27.8503   -4.3924  -27.2720 N.2       3 LYS4        0.0000 
     71 NZ        -28.9561   -3.3980  -27.0765 N.2       3 LYS4        0.0000 
     72 CA        -30.0619   -2.4035  -26.8811 C.3       4 GLY6        0.0000 
     73 NZ        -26.5143   -7.4645  -27.1062 N.2       3 LYS4        0.0000 
     74 NZ        -29.8318   -4.4812  -26.5199 N.2       3 LYS4        0.0000 
     75 CA        -30.9376   -3.4867  -26.3244 C.3       4 GLY6        0.0000 
@<TRIPOS>BOND
@<TRIPOS>SUBSTRUCTURE
     1 SER1       25 GROUP   
     2 ALA2        1 GROUP   
     3 LYS4        4 GROUP   
     4 GLY6        2 GROUP   
     5 CUB7        8 GROUP   
@<TRIPOS>SET

