#    Name: 3ltw_HLZ_2_INTS_M
#    Modification time : Mon Mar 24 22:16:21 2014

@<TRIPOS>MOLECULE
3ltw_HLZ_2_INTS_M
   22     0     6     0     0
SMALL
NO_CHARGES


@<TRIPOS>ATOM
      1 CA        -31.3850   -8.2430  -27.1585 C.3       2 GLC5        0.0000 
      2 CA        -31.0530   -8.4960  -29.3530 C.3       6 GLL5        0.0000 
      3 CA        -31.7170   -7.9900  -24.9640 C.3       4 GLP5        0.0000 
      4 CA        -31.9300   -9.4745  -27.8200 C.3       2 GLC5        0.0000 
      5 CA        -32.8070  -10.4530  -26.2870 C.3       4 GLP5        0.0000 
      6 N         -27.1725   -9.5640  -29.3900 N.am      1 SEC2        0.0000 
      7 N         -28.6720   -8.8050  -29.2010 N.am      5 SEL2        0.0000 
      8 N         -25.6730  -10.3230  -29.5790 N.am      3 SEP2        0.0000 
      9 CA        -31.8140   -7.0925  -26.8775 C.3       2 GLC5        0.0000 
     10 CA        -31.9110   -6.1950  -28.7910 C.3       6 GLL5        0.0000 
     11 CA        -29.5311   -7.3631  -27.0161 C.3       2 GLC5        0.0000 
     12 CA        -29.4740   -6.6320  -28.6690 C.3       6 GLL5        0.0000 
     13 CA        -29.1580   -7.6410  -25.1920 C.3       4 GLP5        0.0000 
     14 CA        -31.4115   -4.1840  -30.0295 C.3       2 GLC5        0.0000 
     15 CA        -31.0450   -2.8270  -31.4660 C.3       4 GLP5        0.0000 
     16 CA        -31.9682   -4.5180  -26.4820 C.3       2 GLC5        0.0000 
     17 CA        -31.6450   -4.8870  -28.3950 C.3       6 GLL5        0.0000 
     18 CA        -32.9430   -4.3640  -24.6950 C.3       4 GLP5        0.0000 
     19 CA        -29.4785   -6.2642  -26.7010 C.3       2 GLC5        0.0000 
     20 CA        -30.3420   -4.4570  -28.1430 C.3       6 GLL5        0.0000 
     21 CA        -30.4220   -3.8572  -29.8380 C.3       2 GLC5        0.0000 
     22 CA        -29.2560   -5.3180  -28.2770 C.3       6 GLL5        0.0000 
@<TRIPOS>BOND
@<TRIPOS>SUBSTRUCTURE
     1 SEC2        6 GROUP        1 X    SEC  0     ROOT SEC X 2
     2 GLC5        1 GROUP        1 X    GLC  0     **** GLC X 6
     3 SEP2        8 GROUP        1 Y    SEP  0     ROOT SEP Y 9
     4 GLP5        3 GROUP        1 Y    GLP  0     **** GLP Y 13
     5 SEL2        7 GROUP        1 Z    SEL  0     ROOT SEL Z 16
     6 GLL5        2 GROUP        1 Z    GLL  0     **** GLL Z 20
@<TRIPOS>SET

