#    Name: 3ltw_HLZ_2_ligand
#    Modification time : Mon Mar 24 22:16:21 2014

@<TRIPOS>MOLECULE
3ltw_HLZ_2_ligand
   18    19     1     0     0
SMALL
NO_CHARGES


@<TRIPOS>ATOM
      1 C1        -31.0530   -8.4960  -29.3530 C.ar      1 HLZ302      0.0000 
      2 N2        -29.9650   -9.2900  -29.4670 N.ar      1 HLZ302      0.0000 
      3 N3        -28.6720   -8.8050  -29.2010 N.ar      1 HLZ302      0.0000 
      4 C4        -28.4310   -7.5390  -28.8200 C.ar      1 HLZ302      0.0000 
      5 C5        -29.4740   -6.6320  -28.6690 C.ar      1 HLZ302      0.0000 
      6 C6        -30.8560   -7.0850  -28.9360 C.ar      1 HLZ302      0.0000 
      7 C7        -31.9110   -6.1950  -28.7910 C.ar      1 HLZ302      0.0000 
      8 C8        -31.6450   -4.8870  -28.3950 C.ar      1 HLZ302      0.0000 
      9 C9        -30.3420   -4.4570  -28.1430 C.ar      1 HLZ302      0.0000 
     10 C10       -29.2560   -5.3180  -28.2770 C.ar      1 HLZ302      0.0000 
     11 N11       -32.2890   -8.9730  -29.6120 N.pl3     1 HLZ302      0.0000 
     12 N12       -33.5700   -8.1390  -29.3390 N.3       1 HLZ302      0.0000 
     13 H         -27.4601   -7.2138  -28.6309 H         1 HLZ302      0.0000 
     14 H         -32.8718   -6.4940  -28.9721 H         1 HLZ302      0.0000 
     15 H         -32.4295   -4.2188  -28.2849 H         1 HLZ302      0.0000 
     16 H         -30.1801   -3.4757  -27.8499 H         1 HLZ302      0.0000 
     17 H         -28.3070   -4.9838  -28.0880 H         1 HLZ302      0.0000 
     18 H         -32.4774   -9.9049  -30.0017 H         1 HLZ302      0.0000 
@<TRIPOS>BOND
     1    2    1 ar   
     2    6    1 ar   
     3   11    1 1    
     4    3    2 ar   
     5    4    3 ar   
     6    5    4 ar   
     7   13    4 1    
     8    6    5 ar   
     9   10    5 ar   
    10    7    6 ar   
    11    8    7 ar   
    12   14    7 1    
    13    9    8 ar   
    14   15    8 1    
    15   10    9 ar   
    16   16    9 1    
    17   17   10 1    
    18   12   11 1    
    19   18   11 1    
@<TRIPOS>SUBSTRUCTURE
     1 HLZ302      1 GROUP   
@<TRIPOS>SET

