#    Name: 1fd0_254_1_INTS_M
#    Modification time : Tue Mar 25 01:05:28 2014

@<TRIPOS>MOLECULE
1fd0_254_1_INTS_M
   84     0     6     0     0
SMALL
NO_CHARGES


@<TRIPOS>ATOM
      1 CA         36.2410   19.6330   85.8305 C.3       2 GLC5        0.0000 
      2 CA         36.3270   17.6400   86.8010 C.3       6 GLL5        0.0000 
      3 CA         36.1550   21.6260   84.8600 C.3       4 GLP5        0.0000 
      4 CA         37.2570   18.2650   88.5065 C.3       2 GLC5        0.0000 
      5 CA         38.1870   18.8900   90.2120 C.3       4 GLP5        0.0000 
      6 CA         44.7820   12.4910   78.6390 C.3       2 GLC5        0.0000 
      7 CA         44.6680   13.7450   80.3470 C.3       6 GLL5        0.0000 
      8 CA         44.8960   11.2370   76.9310 C.3       4 GLP5        0.0000 
      9 CA         46.4435   16.4730   79.5365 C.3       2 GLC5        0.0000 
     10 CA         44.9870   15.1890   80.4830 C.3       6 GLL5        0.0000 
     11 CA         47.9000   17.7570   78.5900 C.3       4 GLP5        0.0000 
     12 CA         41.2385   15.3090   80.1510 C.3       2 GLC5        0.0000 
     13 CA         42.2530   13.7000   79.6710 C.3       6 GLL5        0.0000 
     14 CA         40.2240   16.9180   80.6310 C.3       4 GLP5        0.0000 
     15 CA         41.5495   14.5920   77.7640 C.3       2 GLC5        0.0000 
     16 CA         40.8460   15.4840   75.8570 C.3       4 GLP5        0.0000 
     17 CA         41.2320   12.7890   78.2400 C.3       2 GLC5        0.0000 
     18 CA         40.2110   11.8780   76.8090 C.3       4 GLP5        0.0000 
     19 CA         43.5100   14.9245   78.3395 C.3       2 GLC5        0.0000 
     20 CA         44.7670   16.1490   77.0080 C.3       4 GLP5        0.0000 
     21 CA         42.4115   10.5130   82.3645 C.3       2 GLC5        0.0000 
     22 CA         43.2180   11.8570   81.0480 C.3       6 GLL5        0.0000 
     23 CA         41.6050    9.1690   83.6810 C.3       4 GLP5        0.0000 
     24 CA         41.1460   11.5135   81.0780 C.3       2 GLC5        0.0000 
     25 CA         39.0740   11.1700   81.1080 C.3       4 GLP5        0.0000 
     26 CA         43.0335    9.9110   80.4935 C.3       2 GLC5        0.0000 
     27 CA         42.8490    7.9650   79.9390 C.3       4 GLP5        0.0000 
     28 CA         44.4140   10.4555   81.4200 C.3       2 GLC5        0.0000 
     29 CA         45.6100    9.0540   81.7920 C.3       4 GLP5        0.0000 
     30 CA         44.0570   11.5470   78.9895 C.3       2 GLC5        0.0000 
     31 CA         44.5950   18.5410   80.3770 C.3       2 GLC5        0.0000 
     32 CA         44.7610   17.2230   81.7530 C.3       6 GLL5        0.0000 
     33 CA         44.4290   19.8590   79.0010 C.3       4 GLP5        0.0000 
     34 CA         46.5720   17.8545   80.9370 C.3       2 GLC5        0.0000 
     35 CA         48.3830   18.4860   80.1210 C.3       4 GLP5        0.0000 
     36 CA         47.4550   14.6850   81.5920 C.3       2 GLC5        0.0000 
     37 CA         46.0920   15.3970   82.8230 C.3       6 GLL5        0.0000 
     38 CA         48.8180   13.9730   80.3610 C.3       4 GLP5        0.0000 
     39 CA         46.0740   15.5180   84.7750 C.3       2 GLC5        0.0000 
     40 CA         46.0560   15.6390   86.7270 C.3       4 GLP5        0.0000 
     41 CA         47.7950   14.7415   83.5340 C.3       2 GLC5        0.0000 
     42 CA         49.4980   14.0860   84.2450 C.3       4 GLP5        0.0000 
     43 N          32.4100   17.3215   89.4020 N.am      1 SEC2        0.0000 
     44 N          33.9460   17.8990   89.4960 N.am      5 SEL2        0.0000 
     45 N          30.8740   16.7440   89.3080 N.am      3 SEP2        0.0000 
     46 N          32.8960   19.5390   87.9495 N.am      1 SEC2        0.0000 
     47 N          34.3440   19.3010   87.8490 N.am      5 SEL2        0.0000 
     48 N          31.4480   19.7770   88.0500 N.am      3 SEP2        0.0000 
     49 CA         39.9985   17.7105   84.9065 C.3       2 GLC5        0.0000 
     50 CA         38.9400   16.1130   84.7060 C.3       6 GLL5        0.0000 
     51 CA         41.0570   19.3080   85.1070 C.3       4 GLP5        0.0000 
     52 CA         44.6240   15.7215   85.2370 C.3       2 GLC5        0.0000 
     53 CA         43.1920   15.8040   83.7470 C.3       6 GLL5        0.0000 
     54 CA         42.2955   15.3675   86.4110 C.3       2 GLC5        0.0000 
     55 CA         42.0870   15.4270   84.4090 C.3       6 GLL5        0.0000 
     56 CA         42.5040   15.3080   88.4130 C.3       4 GLP5        0.0000 
     57 CA         34.3865   15.4898   86.7750 C.3       2 GLC5        0.0000 
     58 CA         35.5970   15.9690   88.4400 C.3       6 GLL5        0.0000 
     59 CA         33.2220   14.3530   85.3930 C.3       4 GLP5        0.0000 
     60 CA         35.8700   14.2490   89.7485 C.3       2 GLC5        0.0000 
     61 CA         35.6850   12.9740   91.3310 C.3       4 GLP5        0.0000 
     62 CA         36.7615   16.6764   89.5952 C.3       2 GLC5        0.0000 
     63 CA         36.5130   15.0790   87.8920 C.3       6 GLL5        0.0000 
     64 CA         37.4910   17.5000   91.1660 C.3       4 GLP5        0.0000 
     65 CA         38.9207   18.4080   85.9415 C.3       2 GLC5        0.0000 
     66 CA         37.2450   16.7270   86.2600 C.3       6 GLL5        0.0000 
     67 CA         40.1790   19.9240   86.1650 C.3       4 GLP5        0.0000 
     68 CA         38.6330   15.9810   87.9980 C.3       2 GLC5        0.0000 
     69 CA         40.1790   15.9730   89.1910 C.3       4 GLP5        0.0000 
     70 CA         46.8227   14.2200   80.3880 C.3       2 GLC5        0.0000 
     71 CA         44.7973   15.3080   78.7115 C.3       2 GLC5        0.0000 
     72 CA         46.3795   17.3969   83.0791 C.3       2 GLC5        0.0000 
     73 CA         47.3040   18.8650   83.8250 C.3       4 GLP5        0.0000 
     74 CA         39.7057   14.1055   87.2173 C.3       2 GLC5        0.0000 
     75 CA         39.0980   14.7970   85.2080 C.3       6 GLL5        0.0000 
     76 CA         40.7320   13.5700   88.6950 C.3       4 GLP5        0.0000 
     77 CA         36.2540   13.6610   86.4507 C.3       2 GLC5        0.0000 
     78 CA         38.2610   14.4850   86.2710 C.3       6 GLL5        0.0000 
     79 CA         34.9130   12.4540   86.0910 C.3       4 GLP5        0.0000 
     80 CA         42.7130   13.1630   84.6955 C.3       2 GLC5        0.0000 
     81 CA         41.3030   14.3980   83.9430 C.3       6 GLL5        0.0000 
     82 CA         43.9270   12.2600   86.0440 C.3       4 GLP5        0.0000 
     83 CA         41.8483   17.4618   84.5925 C.3       2 GLC5        0.0000 
     84 CA         43.2833   13.9377   85.0610 C.3       2 GLC5        0.0000 
@<TRIPOS>BOND
@<TRIPOS>SUBSTRUCTURE
     1 SEC2       43 GROUP        1 X    SEC  0     ROOT SEC X 2
     2 GLC5        1 GROUP        1 X    GLC  0     **** GLC X 6
     3 SEP2       45 GROUP        1 Y    SEP  0     ROOT SEP Y 9
     4 GLP5        3 GROUP        1 Y    GLP  0     **** GLP Y 13
     5 SEL2       44 GROUP        1 Z    SEL  0     ROOT SEL Z 16
     6 GLL5        2 GROUP        1 Z    GLL  0     **** GLL Z 20
@<TRIPOS>SET

