#    Name: 1fd0_254_1_ligand
#    Modification time : Tue Mar 25 01:05:28 2014

@<TRIPOS>MOLECULE
1fd0_254_1_ligand
   56    59     1     0     0
SMALL
NO_CHARGES


@<TRIPOS>ATOM
      1 C1         34.5290   18.2070   88.4740 C.2       1 254450      0.0000 
      2 C2         35.5050   17.2840   87.8740 C.ar      1 254450      0.0000 
      3 C3         35.5970   15.9690   88.4400 C.ar      1 254450      0.0000 
      4 C4         36.5130   15.0790   87.8920 C.ar      1 254450      0.0000 
      5 C5         37.3450   15.4230   86.8080 C.ar      1 254450      0.0000 
      6 C10        37.2450   16.7270   86.2600 C.ar      1 254450      0.0000 
      7 C11        36.3270   17.6400   86.8010 C.ar      1 254450      0.0000 
      8 C15        42.8340   14.1030   82.0500 C.ar      1 254450      0.0000 
      9 C16        43.2380   13.3710   80.7710 C.3       1 254450      0.0000 
     10 C17        44.6680   13.7450   80.3470 C.3       1 254450      0.0000 
     11 C18        44.9870   15.1890   80.4830 C.3       1 254450      0.0000 
     12 C19        44.8750   15.6980   81.9340 C.3       1 254450      0.0000 
     13 C20        43.6020   15.1700   82.5710 C.ar      1 254450      0.0000 
     14 C23        42.2530   13.7000   79.6710 C.3       1 254450      0.0000 
     15 C24        43.2180   11.8570   81.0480 C.3       1 254450      0.0000 
     16 C25        44.7610   17.2230   81.7530 C.3       1 254450      0.0000 
     17 C26        46.0920   15.3970   82.8230 C.3       1 254450      0.0000 
     18 O1         33.9460   17.8990   89.4960 O.co2     1 254450      0.0000 
     19 O2         34.3440   19.3010   87.8490 O.co2     1 254450      0.0000 
     20 C6         38.2610   14.4850   86.2710 C.ar      1 254450      0.0000 
     21 C7         39.0980   14.7970   85.2080 C.ar      1 254450      0.0000 
     22 C8         38.9400   16.1130   84.7060 C.ar      1 254450      0.0000 
     23 C9         38.0800   17.0570   85.1760 C.ar      1 254450      0.0000 
     24 C13        41.3030   14.3980   83.9430 C.ar      1 254450      0.0000 
     25 C14        41.6950   13.7340   82.7510 C.ar      1 254450      0.0000 
     26 C21        43.1920   15.8040   83.7470 C.ar      1 254450      0.0000 
     27 C22        42.0870   15.4270   84.4090 C.ar      1 254450      0.0000 
     28 C12        40.0980   13.8980   84.5460 C.2       1 254450      0.0000 
     29 N1         39.9290   12.5750   84.4770 N.2       1 254450      0.0000 
     30 O3         38.8160   12.0060   85.0150 O.3       1 254450      0.0000 
     31 H          35.0029   15.7168   89.2157 H         1 254450      0.0000 
     32 H          36.5937   14.1196   88.2919 H         1 254450      0.0000 
     33 H          36.2595   18.5881   86.3989 H         1 254450      0.0000 
     34 H          44.8080   13.4229   79.2967 H         1 254450      0.0000 
     35 H          45.3724   13.1422   80.9528 H         1 254450      0.0000 
     36 H          44.3076   15.7902   79.8579 H         1 254450      0.0000 
     37 H          46.0117   15.3881   80.1305 H         1 254450      0.0000 
     38 H          38.2985   13.5368   86.6944 H         1 254450      0.0000 
     39 H          39.5695   16.3690   83.8744 H         1 254450      0.0000 
     40 H          38.0252   17.9903   84.7663 H         1 254450      0.0000 
     41 H          41.1052   12.9542   82.4064 H         1 254450      0.0000 
     42 H          43.7813   16.5952   84.1035 H         1 254450      0.0000 
     43 H          41.8067   15.9123   85.2907 H         1 254450      0.0000 
     44 H          42.2261   14.6808   79.4776 H         1 254450      0.0000 
     45 H          42.4849   13.2386   78.8146 H         1 254450      0.0000 
     46 H          41.3225   13.4229   79.9106 H         1 254450      0.0000 
     47 H          43.4787   11.3282   80.2403 H         1 254450      0.0000 
     48 H          43.8509   11.6050   81.7801 H         1 254450      0.0000 
     49 H          42.3100   11.5419   81.3241 H         1 254450      0.0000 
     50 H          45.5594   17.6022   81.2852 H         1 254450      0.0000 
     51 H          43.9580   17.4738   81.2124 H         1 254450      0.0000 
     52 H          44.6832   17.6963   82.6304 H         1 254450      0.0000 
     53 H          46.9279   15.8088   82.4601 H         1 254450      0.0000 
     54 H          45.9704   15.7496   83.7509 H         1 254450      0.0000 
     55 H          46.2599   14.4144   82.9025 H         1 254450      0.0000 
     56 H          39.0032   11.0237   85.0176 H         1 254450      0.0000 
@<TRIPOS>BOND
     1    2    1 1    
     2   18    1 ar   
     3   19    1 ar   
     4    3    2 ar   
     5    7    2 ar   
     6    4    3 ar   
     7   31    3 1    
     8    5    4 ar   
     9   32    4 1    
    10    6    5 ar   
    11   20    5 ar   
    12    7    6 ar   
    13   23    6 ar   
    14   33    7 1    
    15    9    8 1    
    16   13    8 ar   
    17   25    8 ar   
    18   10    9 1    
    19   14    9 1    
    20   15    9 1    
    21   11   10 1    
    22   34   10 1    
    23   35   10 1    
    24   12   11 1    
    25   36   11 1    
    26   37   11 1    
    27   13   12 1    
    28   16   12 1    
    29   17   12 1    
    30   26   13 ar   
    31   44   14 1    
    32   45   14 1    
    33   46   14 1    
    34   47   15 1    
    35   48   15 1    
    36   49   15 1    
    37   50   16 1    
    38   51   16 1    
    39   52   16 1    
    40   53   17 1    
    41   54   17 1    
    42   55   17 1    
    43   21   20 ar   
    44   38   20 1    
    45   22   21 ar   
    46   28   21 1    
    47   23   22 ar   
    48   39   22 1    
    49   40   23 1    
    50   25   24 ar   
    51   27   24 ar   
    52   28   24 1    
    53   41   25 1    
    54   27   26 ar   
    55   42   26 1    
    56   43   27 1    
    57   29   28 2    
    58   30   29 1    
    59   56   30 1    
@<TRIPOS>SUBSTRUCTURE
     1 254450      1 GROUP   
@<TRIPOS>SET

