#    Name: 3vs5_VSG_1_INTS_M
#    Modification time : Tue Mar 25 01:26:46 2014

@<TRIPOS>MOLECULE
3vs5_VSG_1_INTS_M
   78     0     9     0     0
SMALL
NO_CHARGES


@<TRIPOS>ATOM
      1 CA         -8.6065   -3.2155   13.3230 C.3       3 GLC5        0.0000 
      2 CA         -8.8300   -2.8460   15.0910 C.3       9 GLL5        0.0000 
      3 CA         -8.3830   -3.5850   11.5550 C.3       6 GLP5        0.0000 
      4 CA         -7.6150   -1.4690   14.2780 C.3       3 GLC5        0.0000 
      5 CA         -6.4000   -0.0920   13.4650 C.3       6 GLP5        0.0000 
      6 CA        -11.1565   -1.8145   13.8880 C.3       3 GLC5        0.0000 
      7 CA        -10.2090   -2.3810   15.5450 C.3       9 GLL5        0.0000 
      8 CA        -12.1040   -1.2480   12.2310 C.3       6 GLP5        0.0000 
      9 CA        -12.0725   -2.6755   13.9565 C.3       3 GLC5        0.0000 
     10 CA        -12.0410   -4.1030   15.6820 C.3       9 GLL5        0.0000 
     11 CA         -7.1230   -3.5125   18.6995 C.3       3 GLC5        0.0000 
     12 CA         -8.7680   -3.5710   17.5090 C.3       9 GLL5        0.0000 
     13 CA         -5.4780   -3.4540   19.8900 C.3       6 GLP5        0.0000 
     14 CA         -5.7090   -3.6715   14.0255 C.3       3 GLC5        0.0000 
     15 CA         -5.5050   -3.4340   16.1340 C.3       9 GLL5        0.0000 
     16 CA         -5.9130   -3.9090   11.9170 C.3       6 GLP5        0.0000 
     17 CA         -5.4915   -3.4440   18.0120 C.3       3 GLC5        0.0000 
     18 CA         -4.8940   -4.4590   13.7300 C.3       3 GLC5        0.0000 
     19 CA         -3.8750   -5.0090   15.5430 C.3       9 GLL5        0.0000 
     20 CA         -2.3515   -5.8430   16.3985 C.3       3 GLC5        0.0000 
     21 CA         -0.8280   -6.6770   17.2540 C.3       6 GLP5        0.0000 
     22 CA         -5.2865   -6.3715   16.6250 C.3       3 GLC5        0.0000 
     23 CA         -6.6980   -7.7340   17.7070 C.3       6 GLP5        0.0000 
     24 N          -1.6985   -4.9130   16.0280 N.am      2 SEC2        0.0000 
     25 N          -2.8930   -4.1400   15.8140 N.am      8 SEL2        0.0000 
     26 N          -0.5040   -5.6860   16.2420 N.am      5 SEP2        0.0000 
     27 CA         -2.3240   -4.4365   17.3485 C.3       3 GLC5        0.0000 
     28 CA         -3.1670   -2.8820   16.2460 C.3       9 GLL5        0.0000 
     29 CA         -1.4810   -5.9910   18.4510 C.3       6 GLP5        0.0000 
     30 O          -0.6115   -2.2715   16.3905 O.2       1 ALC1        0.0000 
     31 O          -2.1180   -2.0570   16.5000 O.2       7 ALL1        0.0000 
     32 O           0.8950   -2.4860   16.2810 O.2       4 ALP1        0.0000 
     33 CA         -2.4920   -0.4660   15.0245 C.3       3 GLC5        0.0000 
     34 CA         -3.4910    0.4980   16.6340 C.3       9 GLL5        0.0000 
     35 CA         -1.4930   -1.4300   13.4150 C.3       6 GLP5        0.0000 
     36 CA         -3.9415    3.2770   15.6900 C.3       3 GLC5        0.0000 
     37 CA         -2.9810    1.7560   16.9420 C.3       9 GLL5        0.0000 
     38 CA         -4.9020    4.7980   14.4380 C.3       6 GLP5        0.0000 
     39 CA         -9.5780   -4.6378   19.1227 C.3       3 GLC5        0.0000 
     40 CA         -9.6670   -5.4560   20.7790 C.3       6 GLP5        0.0000 
     41 CA         -5.6680   -2.4663   18.3552 C.3       3 GLC5        0.0000 
     42 CA         -6.5390   -1.6220   16.7840 C.3       9 GLL5        0.0000 
     43 CA         -2.6650   -2.0583   14.8735 C.3       3 GLC5        0.0000 
     44 CA         -4.5070   -2.4910   16.4180 C.3       9 GLL5        0.0000 
     45 CA         -3.4915   -2.6258   18.0310 C.3       3 GLC5        0.0000 
     46 CA         -3.1460   -2.5650   19.7300 C.3       6 GLP5        0.0000 
     47 CA         -5.2332    0.0813   15.2033 C.3       3 GLC5        0.0000 
     48 CA         -4.6420    0.0110   17.2490 C.3       9 GLL5        0.0000 
     49 CA         -3.9199   -1.0076   18.6361 C.3       3 GLC5        0.0000 
     50 CA         -4.6757    1.0485   20.1630 C.3       3 GLC5        0.0000 
     51 CA         -5.3210    0.8450   18.1430 C.3       9 GLL5        0.0000 
     52 CA         -4.2860    0.6180   22.0290 C.3       6 GLP5        0.0000 
     53 CA         -5.3187    3.6255   17.2943 C.3       3 GLC5        0.0000 
     54 CA         -4.8100    2.1130   18.4510 C.3       9 GLL5        0.0000 
     55 CA         -6.4210    4.9110   16.4280 C.3       6 GLP5        0.0000 
     56 CA         -1.5777    2.3265   17.1575 C.3       3 GLC5        0.0000 
     57 CA         -3.6230    2.5670   17.8700 C.3       9 GLL5        0.0000 
     58 CA          0.2740    2.8060   16.9860 C.3       6 GLP5        0.0000 
     59 CA         -1.8652    5.6915   17.8332 C.3       3 GLC5        0.0000 
     60 CA         -2.6430    4.3320   19.3090 C.3       9 GLL5        0.0000 
     61 CA         -0.9940    6.3720   16.2180 C.3       6 GLP5        0.0000 
     62 CA         -1.0140    3.3720   18.3773 C.3       3 GLC5        0.0000 
     63 CA         -3.8083    4.9915   21.1532 C.3       3 GLC5        0.0000 
     64 CA         -4.8800    4.9720   22.8580 C.3       6 GLP5        0.0000 
     65 CA         -3.5188    7.5720   20.4053 C.3       3 GLC5        0.0000 
     66 CA         -2.3610    6.2440   20.7770 C.3       9 GLL5        0.0000 
     67 CA         -4.4420    9.1770   20.6280 C.3       6 GLP5        0.0000 
     68 CA         -1.2905    7.7637   21.5722 C.3       3 GLC5        0.0000 
     69 CA         -0.5580    9.6820   21.9060 C.3       6 GLP5        0.0000 
     70 CA         -3.4515    5.4088   22.0483 C.3       3 GLC5        0.0000 
     71 CA         -0.8067    2.4815   21.0658 C.3       3 GLC5        0.0000 
     72 CA         -1.4900    4.0960   21.4250 C.3       9 GLL5        0.0000 
     73 CA          0.1120    1.1430   21.3050 C.3       6 GLP5        0.0000 
     74 CA         -2.6987    2.5790   22.0222 C.3       3 GLC5        0.0000 
     75 CA         -1.9610    3.5440   20.2280 C.3       9 GLL5        0.0000 
     76 CA         -3.6720    1.3380   23.2180 C.3       6 GLP5        0.0000 
     77 CA         -3.3028    4.3960   21.8422 C.3       3 GLC5        0.0000 
     78 CA         -5.9160   -1.1562   15.0066 C.3       3 GLC5        0.0000 
@<TRIPOS>BOND
@<TRIPOS>SUBSTRUCTURE
     1 ALC1       30 GROUP        1 X    ALC  0     ROOT ALC X 1
     2 SEC2       24 GROUP        1 X    SEC  0     **** SEC X 2
     3 GLC5        1 GROUP        1 X    GLC  0     **** GLC X 6
     4 ALP1       32 GROUP        1 Y    ALP  0     ROOT ALP Y 8
     5 SEP2       26 GROUP        1 Y    SEP  0     **** SEP Y 9
     6 GLP5        3 GROUP        1 Y    GLP  0     **** GLP Y 13
     7 ALL1       31 GROUP        1 Z    ALL  0     ROOT ALL Z 15
     8 SEL2       25 GROUP        1 Z    SEL  0     **** SEL Z 16
     9 GLL5        2 GROUP        1 Z    GLL  0     **** GLL Z 20
@<TRIPOS>SET

