#    Name: 3vs5_VSG_1_ligand
#    Modification time : Tue Mar 25 01:26:46 2014

@<TRIPOS>MOLECULE
3vs5_VSG_1_ligand
   56    60     1     0     0
SMALL
NO_CHARGES


@<TRIPOS>ATOM
      1 CAR        -8.8300   -2.8460   15.0910 C.3       1 VSG601      0.0000 
      2 CAS       -10.2090   -2.3810   15.5450 C.3       1 VSG601      0.0000 
      3 NAT       -10.8120   -3.5240   16.2100 N.4       1 VSG601      0.0000 
      4 CAW       -12.0410   -4.1030   15.6820 C.3       1 VSG601      0.0000 
      5 CAU       -10.2100   -4.0680   17.4240 C.3       1 VSG601      0.0000 
      6 CAV        -8.7680   -3.5710   17.5090 C.3       1 VSG601      0.0000 
      7 CAQ        -8.0250   -3.5670   16.1700 C.3       1 VSG601      0.0000 
      8 NAG        -6.7100   -2.8840   16.3510 N.pl3     1 VSG601      0.0000 
      9 CAH        -6.5390   -1.6220   16.7840 C.2       1 VSG601      0.0000 
     10 C4         -5.5050   -3.4340   16.1340 C.ar      1 VSG601      0.0000 
     11 N3         -5.1640   -4.6730   15.6970 N.ar      1 VSG601      0.0000 
     12 C2         -3.8750   -5.0090   15.5430 C.ar      1 VSG601      0.0000 
     13 N1         -2.8930   -4.1400   15.8140 N.ar      1 VSG601      0.0000 
     14 C6         -3.1670   -2.8820   16.2460 C.ar      1 VSG601      0.0000 
     15 NAK        -2.1180   -2.0570   16.5000 N.pl3     1 VSG601      0.0000 
     16 C5         -4.5070   -2.4910   16.4180 C.ar      1 VSG601      0.0000 
     17 CAI        -5.1770   -1.3350   16.8570 C.2       1 VSG601      0.0000 
     18 CAJ        -4.6420    0.0110   17.2490 C.ar      1 VSG601      0.0000 
     19 CAP        -3.4910    0.4980   16.6340 C.ar      1 VSG601      0.0000 
     20 CAO        -2.9810    1.7560   16.9420 C.ar      1 VSG601      0.0000 
     21 CAL        -5.3210    0.8450   18.1430 C.ar      1 VSG601      0.0000 
     22 CAM        -4.8100    2.1130   18.4510 C.ar      1 VSG601      0.0000 
     23 CAN        -3.6230    2.5670   17.8700 C.ar      1 VSG601      0.0000 
     24 OAX        -3.1030    3.8220   18.1130 O.3       1 VSG601      0.0000 
     25 CAY        -2.6430    4.3320   19.3090 C.ar      1 VSG601      0.0000 
     26 CAZ        -2.8300    5.6900   19.5880 C.ar      1 VSG601      0.0000 
     27 CBA        -2.3610    6.2440   20.7770 C.ar      1 VSG601      0.0000 
     28 CBB        -1.6850    5.4470   21.7000 C.ar      1 VSG601      0.0000 
     29 CBC        -1.4900    4.0960   21.4250 C.ar      1 VSG601      0.0000 
     30 CBD        -1.9610    3.5440   20.2280 C.ar      1 VSG601      0.0000 
     31 H          -8.2541   -1.9717   14.7408 H         1 VSG601      0.0000 
     32 H          -8.9461   -3.5187   14.2234 H         1 VSG601      0.0000 
     33 H         -10.7748   -2.0853   14.6773 H         1 VSG601      0.0000 
     34 H         -10.0865   -1.5507   16.2202 H         1 VSG601      0.0000 
     35 H         -10.0298   -4.4216   15.4051 H         1 VSG601      0.0000 
     36 H         -10.1980   -5.1539   17.4028 H         1 VSG601      0.0000 
     37 H         -10.7416   -3.7319   18.3096 H         1 VSG601      0.0000 
     38 H          -8.2125   -4.2035   18.2219 H         1 VSG601      0.0000 
     39 H          -8.7655   -2.5473   17.9200 H         1 VSG601      0.0000 
     40 H          -7.8605   -4.5841   15.8639 H         1 VSG601      0.0000 
     41 H          -7.2328   -0.9919   17.0152 H         1 VSG601      0.0000 
     42 H          -3.6310   -5.9758   15.2021 H         1 VSG601      0.0000 
     43 H          -2.3484   -1.1375   16.8184 H         1 VSG601      0.0000 
     44 H          -1.2080   -2.4421   16.3461 H         1 VSG601      0.0000 
     45 H          -3.0037   -0.0897   15.9314 H         1 VSG601      0.0000 
     46 H          -2.1218    2.0871   16.4783 H         1 VSG601      0.0000 
     47 H          -6.1965    0.5285   18.5756 H         1 VSG601      0.0000 
     48 H          -5.3175    2.7172   19.1148 H         1 VSG601      0.0000 
     49 H          -3.3212    6.2859   18.9038 H         1 VSG601      0.0000 
     50 H          -2.5131    7.2410   20.9746 H         1 VSG601      0.0000 
     51 H          -1.3353    5.8525   22.5723 H         1 VSG601      0.0000 
     52 H          -0.9981    3.4983   22.1022 H         1 VSG601      0.0000 
     53 H          -1.7985    2.5459   20.0312 H         1 VSG601      0.0000 
     54 H         -11.9237   -4.4327   14.7452 H         1 VSG601      0.0000 
     55 H         -12.3506   -4.8803   16.2297 H         1 VSG601      0.0000 
     56 H         -12.7882   -3.4386   15.6675 H         1 VSG601      0.0000 
@<TRIPOS>BOND
     1    2    1 1    
     2    7    1 1    
     3   31    1 1    
     4   32    1 1    
     5    3    2 1    
     6   33    2 1    
     7   34    2 1    
     8    4    3 1    
     9    5    3 1    
    10   35    3 1    
    11   54    4 1    
    12   55    4 1    
    13   56    4 1    
    14    6    5 1    
    15   36    5 1    
    16   37    5 1    
    17    7    6 1    
    18   38    6 1    
    19   39    6 1    
    20    8    7 1    
    21   40    7 1    
    22    9    8 1    
    23   10    8 1    
    24   17    9 2    
    25   41    9 1    
    26   11   10 ar   
    27   16   10 ar   
    28   12   11 ar   
    29   13   12 ar   
    30   42   12 1    
    31   14   13 ar   
    32   15   14 1    
    33   16   14 ar   
    34   43   15 1    
    35   44   15 1    
    36   17   16 1    
    37   18   17 1    
    38   19   18 ar   
    39   21   18 ar   
    40   20   19 ar   
    41   45   19 1    
    42   23   20 ar   
    43   46   20 1    
    44   22   21 ar   
    45   47   21 1    
    46   23   22 ar   
    47   48   22 1    
    48   24   23 1    
    49   25   24 1    
    50   26   25 ar   
    51   30   25 ar   
    52   27   26 ar   
    53   49   26 1    
    54   28   27 ar   
    55   50   27 1    
    56   29   28 ar   
    57   51   28 1    
    58   30   29 ar   
    59   52   29 1    
    60   53   30 1    
@<TRIPOS>SUBSTRUCTURE
     1 VSG601      1 GROUP   
@<TRIPOS>SET

