#    Name: 4meo_25V_1_INTS_M
#    Modification time : Tue Apr  8 00:17:40 2014

@<TRIPOS>MOLECULE
4meo_25V_1_INTS_M
   54     0     6     0     0
SMALL
NO_CHARGES


@<TRIPOS>ATOM
      1 N          29.0240   12.5970    4.6215 N.am      1 SEC2        0.0000 
      2 N          28.1710   13.1290    3.7430 N.am      5 SEL2        0.0000 
      3 N          29.8770   12.0650    5.5000 N.am      3 SEP2        0.0000 
      4 N          27.9100   14.5320    4.0245 N.am      1 SEC2        0.0000 
      5 N          27.6490   15.9350    4.3060 N.am      3 SEP2        0.0000 
      6 CA         25.6595   14.3570    5.9100 C.3       2 GLC5        0.0000 
      7 CA         26.1750   12.9010    4.9850 C.3       6 GLL5        0.0000 
      8 CA         25.1440   15.8130    6.8350 C.3       4 GLP5        0.0000 
      9 CA         27.2470   11.5375    5.3430 C.3       2 GLC5        0.0000 
     10 CA         28.3190   10.1740    5.7010 C.3       4 GLP5        0.0000 
     11 CA         32.9585   17.2570   -3.1660 C.3       2 GLC5        0.0000 
     12 CA         33.0820   15.4660   -2.0310 C.3       6 GLL5        0.0000 
     13 CA         32.8350   19.0480   -4.3010 C.3       4 GLP5        0.0000 
     14 CA         31.6045   17.7900   -1.8225 C.3       2 GLC5        0.0000 
     15 CA         32.0850   15.9930   -1.0790 C.3       6 GLL5        0.0000 
     16 CA         31.1240   19.5870   -2.5660 C.3       4 GLP5        0.0000 
     17 N          34.5305   17.9585   -1.3340 N.am      1 SEC2        0.0000 
     18 N          33.6570   17.6830   -0.2220 N.am      5 SEL2        0.0000 
     19 N          35.4040   18.2340   -2.4460 N.am      3 SEP2        0.0000 
     20 CA         31.3225   20.4030    1.4080 C.3       2 GLC5        0.0000 
     21 CA         31.9720   18.6440    1.7350 C.3       6 GLL5        0.0000 
     22 CA         30.6730   22.1620    1.0810 C.3       4 GLP5        0.0000 
     23 CA         31.5480   19.1155   -0.4155 C.3       2 GLC5        0.0000 
     24 CA         28.3220   13.6477    1.2993 C.3       2 GLC5        0.0000 
     25 CA         26.7000   14.6100    1.5400 C.3       6 GLL5        0.0000 
     26 CA         29.2830   12.4430    1.1430 C.3       4 GLP5        0.0000 
     27 CA         26.9858   13.0550   -0.4390 C.3       2 GLC5        0.0000 
     28 CA         25.8460   14.5660    0.4130 C.3       6 GLL5        0.0000 
     29 CA         27.8750   11.3370   -0.6560 C.3       4 GLP5        0.0000 
     30 CA         27.0100   17.0897   -0.5080 C.3       2 GLC5        0.0000 
     31 CA         26.3470   14.9800   -0.8570 C.3       6 GLL5        0.0000 
     32 CA         27.0340   18.9660   -0.0760 C.3       4 GLP5        0.0000 
     33 CA         28.6623   13.9580    0.3390 C.3       2 GLC5        0.0000 
     34 CA         27.6250   15.4470   -1.0230 C.3       6 GLL5        0.0000 
     35 CA         26.6538   16.7997    1.1619 C.3       2 GLC5        0.0000 
     36 CA         28.0220   15.0950    1.3710 C.3       6 GLL5        0.0000 
     37 CA         26.1600   18.7580    1.1500 C.3       4 GLP5        0.0000 
     38 CA         29.9943   17.5988   -1.3200 C.3       2 GLC5        0.0000 
     39 CA         29.8230   15.9760   -0.0460 C.3       6 GLL5        0.0000 
     40 CA         29.6800   19.5020   -2.0960 C.3       4 GLP5        0.0000 
     41 CA         32.0102   13.4895   -0.7240 C.3       2 GLC5        0.0000 
     42 CA         30.7940   15.4150   -1.0420 C.3       6 GLL5        0.0000 
     43 CA         33.3640   12.1160    0.0380 C.3       4 GLP5        0.0000 
     44 CA         29.8484   13.7231   -0.0470 C.3       2 GLC5        0.0000 
     45 CA         30.5190   14.3110   -1.9300 C.3       6 GLL5        0.0000 
     46 CA         32.7440   13.1225   -1.3995 C.3       2 GLC5        0.0000 
     47 CA         31.4700   13.8280   -2.8080 C.3       6 GLL5        0.0000 
     48 CA         32.9737   13.9228   -0.7585 C.3       2 GLC5        0.0000 
     49 CA         30.2705   18.4015   -0.6438 C.3       2 GLC5        0.0000 
     50 CA         31.5100   17.5730    0.7780 C.3       6 GLL5        0.0000 
     51 CA         28.3551   17.6746    0.1776 C.3       2 GLC5        0.0000 
     52 CA         30.2120   17.0290    0.8390 C.3       6 GLL5        0.0000 
     53 CA         31.5192   16.7629    2.6114 C.3       2 GLC5        0.0000 
     54 CA         32.0620   15.9570    4.1750 C.3       4 GLP5        0.0000 
@<TRIPOS>BOND
@<TRIPOS>SUBSTRUCTURE
     1 SEC2        1 GROUP        1 X    SEC  0     ROOT SEC X 2
     2 GLC5        6 GROUP        1 X    GLC  0     **** GLC X 6
     3 SEP2        3 GROUP        1 Y    SEP  0     ROOT SEP Y 9
     4 GLP5        8 GROUP        1 Y    GLP  0     **** GLP Y 13
     5 SEL2        2 GROUP        1 Z    SEL  0     ROOT SEL Z 16
     6 GLL5        7 GROUP        1 Z    GLL  0     **** GLL Z 20
@<TRIPOS>SET

