#    Name: 4meo_25V_1_ligand
#    Modification time : Tue Apr  8 00:17:40 2014

@<TRIPOS>MOLECULE
4meo_25V_1_ligand
   38    40     1     0     0
SMALL
NO_CHARGES


@<TRIPOS>ATOM
      1 O1         28.1710   13.1290    3.7430 O.2       1 25V202      0.0000 
      2 C1         26.9660   13.3500    3.8150 C.2       1 25V202      0.0000 
      3 C          26.1750   12.9010    4.9850 C.3       1 25V202      0.0000 
      4 N          26.2100   14.0820    2.7950 N.am      1 25V202      0.0000 
      5 C2         26.7000   14.6100    1.5400 C.ar      1 25V202      0.0000 
      6 C17        25.8460   14.5660    0.4130 C.ar      1 25V202      0.0000 
      7 C16        26.3470   14.9800   -0.8570 C.ar      1 25V202      0.0000 
      8 C15        27.6250   15.4470   -1.0230 C.ar      1 25V202      0.0000 
      9 C4         28.4580   15.4990    0.0930 C.ar      1 25V202      0.0000 
     10 C3         28.0220   15.0950    1.3710 C.ar      1 25V202      0.0000 
     11 C5         29.8230   15.9760   -0.0460 C.ar      1 25V202      0.0000 
     12 C14        30.7940   15.4150   -1.0420 C.ar      1 25V202      0.0000 
     13 C13        30.5190   14.3110   -1.9300 C.ar      1 25V202      0.0000 
     14 C12        31.4700   13.8280   -2.8080 C.ar      1 25V202      0.0000 
     15 C11        32.7780   14.4300   -2.8660 C.ar      1 25V202      0.0000 
     16 C10        33.0820   15.4660   -2.0310 C.ar      1 25V202      0.0000 
     17 C9         32.0850   15.9930   -1.0790 C.ar      1 25V202      0.0000 
     18 N1         32.4260   17.1160   -0.1370 N.pl3     1 25V202      0.0000 
     19 O          33.6570   17.6830   -0.2220 O.2       1 25V202      0.0000 
     20 C7         31.5100   17.5730    0.7780 C.ar      1 25V202      0.0000 
     21 C8         31.9720   18.6440    1.7350 C.3       1 25V202      0.0000 
     22 C6         30.2120   17.0290    0.8390 C.ar      1 25V202      0.0000 
     23 H          25.1800   14.2405    3.0087 H         1 25V202      0.0000 
     24 H          24.8895   14.2453    0.5011 H         1 25V202      0.0000 
     25 H          25.7008   14.9162   -1.6720 H         1 25V202      0.0000 
     26 H          27.9669   15.7505   -1.9335 H         1 25V202      0.0000 
     27 H          28.6494   15.1495    2.1707 H         1 25V202      0.0000 
     28 H          29.5762   13.8876   -1.8879 H         1 25V202      0.0000 
     29 H          31.2704   13.0404   -3.4308 H         1 25V202      0.0000 
     30 H          33.4504   14.0587   -3.5405 H         1 25V202      0.0000 
     31 H          34.0040   15.9178   -2.0283 H         1 25V202      0.0000 
     32 H          29.5356   17.3842    1.5190 H         1 25V202      0.0000 
     33 H          26.2088   11.9079    5.0971 H         1 25V202      0.0000 
     34 H          26.5103   13.3037    5.8367 H         1 25V202      0.0000 
     35 H          25.2112   13.1538    4.9008 H         1 25V202      0.0000 
     36 H          32.7439   18.3368    2.2916 H         1 25V202      0.0000 
     37 H          32.2676   19.4694    1.2541 H         1 25V202      0.0000 
     38 H          31.2457   18.9166    2.3660 H         1 25V202      0.0000 
@<TRIPOS>BOND
     1    2    1 2    
     2    3    2 1    
     3    4    2 am   
     4   33    3 1    
     5   34    3 1    
     6   35    3 1    
     7    5    4 1    
     8   23    4 1    
     9    6    5 ar   
    10   10    5 ar   
    11    7    6 ar   
    12   24    6 1    
    13    8    7 ar   
    14   25    7 1    
    15    9    8 ar   
    16   26    8 1    
    17   10    9 ar   
    18   11    9 1    
    19   27   10 1    
    20   12   11 ar   
    21   22   11 ar   
    22   13   12 ar   
    23   17   12 ar   
    24   14   13 ar   
    25   28   13 1    
    26   15   14 ar   
    27   29   14 1    
    28   16   15 ar   
    29   30   15 1    
    30   17   16 ar   
    31   31   16 1    
    32   18   17 ar   
    33   19   18 1    
    34   20   18 ar   
    35   21   20 1    
    36   22   20 ar   
    37   36   21 1    
    38   37   21 1    
    39   38   21 1    
    40   32   22 1    
@<TRIPOS>SUBSTRUCTURE
     1 25V202      1 GROUP   
@<TRIPOS>SET

