#    Name: 3cgo_JNO_1_INTS_M
#    Modification time : Mon Mar 24 21:18:00 2014

@<TRIPOS>MOLECULE
3cgo_JNO_1_INTS_M
   67     0     9     0     0
SMALL
NO_CHARGES


@<TRIPOS>ATOM
      1 CA         25.1745    2.7520   27.4455 C.3       3 GLC5        0.0000 
      2 CA         26.8050    2.4860   28.4980 C.3       9 GLL5        0.0000 
      3 CA         23.5440    3.0180   26.3930 C.3       6 GLP5        0.0000 
      4 CA         21.5270    7.5725   29.0875 C.3       3 GLC5        0.0000 
      5 CA         23.1240    6.7750   30.0410 C.3       9 GLL5        0.0000 
      6 CA         19.9300    8.3700   28.1340 C.3       6 GLP5        0.0000 
      7 CA         23.6990    6.8600   33.3615 C.3       3 GLC5        0.0000 
      8 CA         23.3850    6.4960   31.5390 C.3       9 GLL5        0.0000 
      9 CA         24.0130    7.2240   35.1840 C.3       6 GLP5        0.0000 
     10 O          21.6500    4.7310   32.1675 O.2       1 ALC1        0.0000 
     11 O          22.1230    6.2460   32.2130 O.2       7 ALL1        0.0000 
     12 O          21.1770    3.2160   32.1220 O.2       4 ALP1        0.0000 
     13 CA         22.6190    7.2350   33.8775 C.3       3 GLC5        0.0000 
     14 CA         21.2250    7.2460   32.5710 C.3       9 GLL5        0.0000 
     15 CA         20.6755    7.4090   34.6785 C.3       3 GLC5        0.0000 
     16 CA         20.1260    7.5720   36.7860 C.3       6 GLP5        0.0000 
     17 CA         21.3910    5.7295   34.0380 C.3       3 GLC5        0.0000 
     18 CA         21.5570    4.2130   35.5050 C.3       6 GLP5        0.0000 
     19 CA         19.9030    6.0400   31.6485 C.3       3 GLC5        0.0000 
     20 CA         18.5810    4.8340   30.7260 C.3       6 GLP5        0.0000 
     21 CA         18.2700   10.3645   34.2410 C.3       3 GLC5        0.0000 
     22 CA         19.4600    9.2760   33.2630 C.3       9 GLL5        0.0000 
     23 CA         17.0800   11.4530   35.2190 C.3       6 GLP5        0.0000 
     24 CA         17.1415    8.1100   32.7595 C.3       3 GLC5        0.0000 
     25 CA         19.1470    7.9360   33.3730 C.3       9 GLL5        0.0000 
     26 CA         15.1360    8.2840   32.1460 C.3       6 GLP5        0.0000 
     27 CA         17.9965    9.0060   34.8475 C.3       3 GLC5        0.0000 
     28 CA         16.8460   10.0760   36.3220 C.3       6 GLP5        0.0000 
     29 CA         18.8125    5.9840   34.3700 C.3       3 GLC5        0.0000 
     30 CA         18.4780    4.0320   35.3670 C.3       6 GLP5        0.0000 
     31 CA         18.1785    6.6720   32.1605 C.3       3 GLC5        0.0000 
     32 CA         17.2100    5.4080   30.9480 C.3       6 GLP5        0.0000 
     33 N          19.4415    5.5175   33.0235 N.am      2 SEC2        0.0000 
     34 N          19.9930    6.9200   33.0360 N.am      8 SEL2        0.0000 
     35 N          18.8900    4.1150   33.0110 N.am      5 SEP2        0.0000 
     36 CA         26.4275   10.8540   32.0690 C.3       3 GLC5        0.0000 
     37 CA         24.6710   11.2680   31.1050 C.3       9 GLL5        0.0000 
     38 CA         28.1840   10.4400   33.0330 C.3       6 GLP5        0.0000 
     39 CA         26.4145   13.4915   32.0645 C.3       3 GLC5        0.0000 
     40 CA         24.6650   12.7340   31.1030 C.3       9 GLL5        0.0000 
     41 CA         28.1640   14.2490   33.0260 C.3       6 GLP5        0.0000 
     42 CA         21.0230   12.5505   30.5340 C.3       3 GLC5        0.0000 
     43 CA         22.4320   12.7670   32.0570 C.3       9 GLL5        0.0000 
     44 CA         19.6140   12.3340   29.0110 C.3       6 GLP5        0.0000 
     45 CA         22.2770   12.4675   33.9825 C.3       3 GLC5        0.0000 
     46 CA         20.5760   12.1270   32.8450 C.3       9 GLL5        0.0000 
     47 CA         23.9780   12.8080   35.1200 C.3       6 GLP5        0.0000 
     48 CA         18.8280   11.7900   34.0320 C.3       3 GLC5        0.0000 
     49 CA         23.3415    5.4635   28.5183 C.3       3 GLC5        0.0000 
     50 CA         22.8910    4.0160   27.3470 C.3       6 GLP5        0.0000 
     51 CA         25.6973    5.9987   33.0113 C.3       3 GLC5        0.0000 
     52 CA         24.3180    5.2860   31.6750 C.3       9 GLL5        0.0000 
     53 CA         26.4150    6.5680   34.7100 C.3       6 GLP5        0.0000 
     54 CA         22.1677   10.4318   34.3805 C.3       3 GLC5        0.0000 
     55 CA         20.7520    9.5410   32.7690 C.3       9 GLL5        0.0000 
     56 CA         23.3460   10.6270   36.0930 C.3       6 GLP5        0.0000 
     57 CA         18.9040   10.2213   31.4835 C.3       3 GLC5        0.0000 
     58 CA         17.7020   11.0340   29.9510 C.3       6 GLP5        0.0000 
     59 CA         19.7147    8.0890   35.0520 C.3       3 GLC5        0.0000 
     60 CA         20.2578   11.9317   30.8585 C.3       3 GLC5        0.0000 
     61 CA         21.2270   10.9320   32.5670 C.3       9 GLL5        0.0000 
     62 CA         24.0512   11.8733   33.2300 C.3       3 GLC5        0.0000 
     63 CA         23.5780   10.6090   31.5750 C.3       9 GLL5        0.0000 
     64 CA         25.1433   14.9388   31.1960 C.3       3 GLC5        0.0000 
     65 CA         23.5940   13.4550   31.5570 C.3       9 GLL5        0.0000 
     66 CA         26.1570   16.7830   31.0620 C.3       6 GLP5        0.0000 
     67 CA         23.6294   12.8694   33.4067 C.3       3 GLC5        0.0000 
@<TRIPOS>BOND
@<TRIPOS>SUBSTRUCTURE
     1 ALC1       10 GROUP        1 X    ALC  0     ROOT ALC X 1
     2 SEC2       33 GROUP        1 X    SEC  0     **** SEC X 2
     3 GLC5        1 GROUP        1 X    GLC  0     **** GLC X 6
     4 ALP1       12 GROUP        1 Y    ALP  0     ROOT ALP Y 8
     5 SEP2       35 GROUP        1 Y    SEP  0     **** SEP Y 9
     6 GLP5        3 GROUP        1 Y    GLP  0     **** GLP Y 13
     7 ALL1       11 GROUP        1 Z    ALL  0     ROOT ALL Z 15
     8 SEL2       34 GROUP        1 Z    SEL  0     **** SEL Z 16
     9 GLL5        2 GROUP        1 Z    GLL  0     **** GLL Z 20
@<TRIPOS>SET

