#    Name: 3cgo_JNO_1_ligand
#    Modification time : Mon Mar 24 21:18:00 2014

@<TRIPOS>MOLECULE
3cgo_JNO_1_ligand
   52    55     1     0     0
SMALL
NO_CHARGES


@<TRIPOS>ATOM
      1 C01        26.8050    2.4860   28.4980 C.3       1 JNO510      0.0000 
      2 N02        26.3680    3.8360   28.2460 N.am      1 JNO510      0.0000 
      3 C03        27.2640    4.9060   28.2510 C.2       1 JNO510      0.0000 
      4 O04        28.4160    4.8490   27.8170 O.2       1 JNO510      0.0000 
      5 C05        26.6880    6.1780   28.8490 C.3       1 JNO510      0.0000 
      6 N06        25.4020    5.9070   29.5080 N.4       1 JNO510      0.0000 
      7 C07        24.4600    7.0470   29.3380 C.3       1 JNO510      0.0000 
      8 C08        23.1240    6.7750   30.0410 C.3       1 JNO510      0.0000 
      9 C09        23.3850    6.4960   31.5390 C.3       1 JNO510      0.0000 
     10 C10        24.3180    5.2860   31.6750 C.3       1 JNO510      0.0000 
     11 C11        25.6410    5.5730   30.9500 C.3       1 JNO510      0.0000 
     12 N12        22.1230    6.2460   32.2130 N.pl3     1 JNO510      0.0000 
     13 C13        21.2250    7.2460   32.5710 C.ar      1 JNO510      0.0000 
     14 N14        21.6350    8.5360   32.4200 N.ar      1 JNO510      0.0000 
     15 C15        20.7520    9.5410   32.7690 C.ar      1 JNO510      0.0000 
     16 C16        19.4600    9.2760   33.2630 C.ar      1 JNO510      0.0000 
     17 C17        19.1470    7.9360   33.3730 C.ar      1 JNO510      0.0000 
     18 N18        19.9930    6.9200   33.0360 N.ar      1 JNO510      0.0000 
     19 C19        21.2270   10.9320   32.5670 C.2       1 JNO510      0.0000 
     20 N20        22.4530   11.3450   32.0500 N.pl3     1 JNO510      0.0000 
     21 C21        23.5780   10.6090   31.5750 C.2       1 JNO510      0.0000 
     22 C22        24.6710   11.2680   31.1050 C.2       1 JNO510      0.0000 
     23 C23        24.6650   12.7340   31.1030 C.2       1 JNO510      0.0000 
     24 C24        23.5940   13.4550   31.5570 C.2       1 JNO510      0.0000 
     25 C25        22.4320   12.7670   32.0570 C.2       1 JNO510      0.0000 
     26 N26        21.3170   13.2350   32.5320 N.pl3     1 JNO510      0.0000 
     27 C27        20.5760   12.1270   32.8450 C.2       1 JNO510      0.0000 
     28 H          25.3673    3.9946   28.0599 H         1 JNO510      0.0000 
     29 H          26.5609    6.9139   28.0471 H         1 JNO510      0.0000 
     30 H          27.4095    6.5836   29.5672 H         1 JNO510      0.0000 
     31 H          24.9558    5.0164   29.0316 H         1 JNO510      0.0000 
     32 H          24.2630    7.2204   28.2754 H         1 JNO510      0.0000 
     33 H          24.8919    7.9611   29.7573 H         1 JNO510      0.0000 
     34 H          22.6522    5.9111   29.5984 H         1 JNO510      0.0000 
     35 H          22.4850    7.6399   29.9495 H         1 JNO510      0.0000 
     36 H          23.8814    7.3564   31.9518 H         1 JNO510      0.0000 
     37 H          23.8478    4.4188   31.2308 H         1 JNO510      0.0000 
     38 H          24.5169    5.1024   32.7224 H         1 JNO510      0.0000 
     39 H          26.1383    6.4066   31.4499 H         1 JNO510      0.0000 
     40 H          26.2799    4.6911   31.0291 H         1 JNO510      0.0000 
     41 H          21.8991    5.2478   32.4311 H         1 JNO510      0.0000 
     42 H          18.8349   10.0043   33.5085 H         1 JNO510      0.0000 
     43 H          18.1822    7.6861   33.7453 H         1 JNO510      0.0000 
     44 H          23.5344    9.5827   31.6000 H         1 JNO510      0.0000 
     45 H          25.4974   10.7991   30.7527 H         1 JNO510      0.0000 
     46 H          25.5147   13.1987   30.7396 H         1 JNO510      0.0000 
     47 H          23.5876   14.4768   31.5546 H         1 JNO510      0.0000 
     48 H          21.0365   14.1347   32.6530 H         1 JNO510      0.0000 
     49 H          19.6681   12.1631   33.2304 H         1 JNO510      0.0000 
     50 H          27.4808    2.1829   27.8261 H         1 JNO510      0.0000 
     51 H          27.2270    2.3945   29.4000 H         1 JNO510      0.0000 
     52 H          26.0451    1.8369   28.4627 H         1 JNO510      0.0000 
@<TRIPOS>BOND
     1    2    1 1    
     2   50    1 1    
     3   51    1 1    
     4   52    1 1    
     5    3    2 am   
     6   28    2 1    
     7    4    3 2    
     8    5    3 1    
     9    6    5 1    
    10   29    5 1    
    11   30    5 1    
    12    7    6 1    
    13   11    6 1    
    14   31    6 1    
    15    8    7 1    
    16   32    7 1    
    17   33    7 1    
    18    9    8 1    
    19   34    8 1    
    20   35    8 1    
    21   10    9 1    
    22   12    9 1    
    23   36    9 1    
    24   11   10 1    
    25   37   10 1    
    26   38   10 1    
    27   39   11 1    
    28   40   11 1    
    29   13   12 1    
    30   41   12 1    
    31   14   13 ar   
    32   18   13 ar   
    33   15   14 ar   
    34   16   15 ar   
    35   19   15 1    
    36   17   16 ar   
    37   42   16 1    
    38   18   17 ar   
    39   43   17 1    
    40   20   19 1    
    41   27   19 2    
    42   21   20 1    
    43   25   20 1    
    44   22   21 2    
    45   44   21 1    
    46   23   22 1    
    47   45   22 1    
    48   24   23 2    
    49   46   23 1    
    50   25   24 1    
    51   47   24 1    
    52   26   25 2    
    53   27   26 1    
    54   48   26 1    
    55   49   27 1    
@<TRIPOS>SUBSTRUCTURE
     1 JNO510      1 GROUP   
@<TRIPOS>SET

