#    Name: 2d1n_FA4_2_INTS_M
#    Modification time : Tue Mar 25 01:29:46 2014

@<TRIPOS>MOLECULE
2d1n_FA4_2_INTS_M
   66     0    12     0     0
SMALL
NO_CHARGES


@<TRIPOS>ATOM
      1 CA          3.4150   45.4835  -29.2260 C.3       4 GLC5        0.0000 
      2 CA          4.0720   46.0440  -31.1290 C.3      12 GLL5        0.0000 
      3 CA          2.7580   44.9230  -27.3230 C.3       8 GLP5        0.0000 
      4 CA         -0.7700   49.4085  -30.6940 C.3       4 GLC5        0.0000 
      5 CA          0.2370   47.8700  -29.8940 C.3      12 GLL5        0.0000 
      6 CA         -1.7770   50.9470  -31.4940 C.3       8 GLP5        0.0000 
      7 CA          1.3600   46.2680  -27.8570 C.3       4 GLC5        0.0000 
      8 CA         -0.0380   47.6130  -28.3910 C.3      12 GLL5        0.0000 
      9 CA         -2.5775   46.4055  -27.6340 C.3       4 GLC5        0.0000 
     10 CA         -1.4410   48.0040  -27.8790 C.3      12 GLL5        0.0000 
     11 CA         -3.7140   44.8070  -27.3890 C.3       8 GLP5        0.0000 
     12 CA         -2.4710   48.0930  -29.7580 C.3       4 GLC5        0.0000 
     13 CA         -3.5010   48.1820  -31.6370 C.3       8 GLP5        0.0000 
     14 CA         -1.1530   48.5645  -26.3615 C.3       4 GLC5        0.0000 
     15 CA         -1.9330   49.4050  -28.2240 C.3      12 GLL5        0.0000 
     16 CA         -0.3730   47.7240  -24.4990 C.3       8 GLP5        0.0000 
     17 CA         -1.8550   50.1760  -29.8590 C.3       4 GLC5        0.0000 
     18 CA         -1.7630   49.3945  -25.4335 C.3       4 GLC5        0.0000 
     19 CA         -2.2400   50.3360  -27.0520 C.3      12 GLL5        0.0000 
     20 CA         -1.2860   48.4530  -23.8150 C.3       8 GLP5        0.0000 
     21 CA         -4.7030   50.9020  -28.6265 C.3       4 GLC5        0.0000 
     22 CA         -2.8560   51.6090  -27.6370 C.3      12 GLL5        0.0000 
     23 CA         -6.5500   50.1950  -29.6160 C.3       8 GLP5        0.0000 
     24 CA         -2.3165   51.2780  -29.5655 C.3       4 GLC5        0.0000 
     25 CA         -1.2230   53.3430  -26.2000 C.3       4 GLC5        0.0000 
     26 CA         -3.2250   52.6370  -26.5840 C.3      12 GLL5        0.0000 
     27 CA          0.7790   54.0490  -25.8160 C.3       8 GLP5        0.0000 
     28 CA         -6.1350   51.9840  -27.7515 C.3       4 GLC5        0.0000 
     29 CA         -4.6760   53.0990  -26.7890 C.3      12 GLL5        0.0000 
     30 CA         -7.5940   50.8690  -28.7140 C.3       8 GLP5        0.0000 
     31 N          -7.7315   52.2165  -25.3175 N.am      2 SEC2        0.0000 
     32 N          -6.5360   52.6950  -24.4500 N.am     10 SEL2        0.0000 
     33 N          -8.9270   51.7380  -26.1850 N.am      6 SEP2        0.0000 
     34 CA         -6.8120   52.4885  -19.3430 C.3       4 GLC5        0.0000 
     35 CA         -5.6700   54.3980  -19.5810 C.3      12 GLL5        0.0000 
     36 CA         -7.9540   50.5790  -19.1050 C.3       8 GLP5        0.0000 
     37 CA          3.9825   50.9135  -28.5010 C.3       4 GLC5        0.0000 
     38 CA          3.0140   49.3880  -29.4710 C.3      12 GLL5        0.0000 
     39 CA          4.9510   52.4390  -27.5310 C.3       8 GLP5        0.0000 
     40 O           5.1270   49.7855  -28.9950 O.2       1 ALC1        0.0000 
     41 O           4.1820   50.2160  -30.0700 O.2       9 ALL1        0.0000 
     42 O           6.0720   49.3550  -27.9200 O.2       5 ALP1        0.0000 
     43 O           6.1230   52.1090  -31.3440 O.2       1 ALC1        0.0000 
     44 O           4.7320   52.1380  -31.3330 O.2       9 ALL1        0.0000 
     45 O           7.5140   52.0800  -31.3550 O.2       5 ALP1        0.0000 
     46 Zn         -2.4750   50.5765  -22.0695 Zn        3 ZIC7        0.0000 
     47 Zn         -3.3660   50.0970  -22.1180 Zn       11 ZIL7        0.0000 
     48 Zn         -1.5840   51.0560  -22.0210 Zn        7 ZIP7        0.0000 
     49 O          -3.7700   48.9940  -22.4275 O.2       1 ALC1        0.0000 
     50 O          -3.3660   50.0970  -22.1180 O.2       9 ALL1        0.0000 
     51 O          -4.1740   47.8910  -22.7370 O.2       5 ALP1        0.0000 
     52 Zn         -2.4705   51.6790  -21.3695 Zn        3 ZIC7        0.0000 
     53 Zn         -3.3570   52.3020  -20.7180 Zn       11 ZIL7        0.0000 
     54 CA          1.4683   43.9465  -31.3560 C.3       4 GLC5        0.0000 
     55 CA          1.6170   46.0100  -30.9110 C.3      12 GLL5        0.0000 
     56 CA          0.7130   42.1950  -31.5970 C.3       8 GLP5        0.0000 
     57 CA          2.3386   45.7135  -29.0158 C.3       4 GLC5        0.0000 
     58 CA          2.8300   45.3860  -31.3190 C.3      12 GLL5        0.0000 
     59 CA         -0.5857   47.0647  -26.5810 C.3       4 GLC5        0.0000 
     60 CA         -0.4320   46.3210  -25.0270 C.3       8 GLP5        0.0000 
     61 CA         -1.6542   52.9660  -28.2983 C.3       4 GLC5        0.0000 
     62 CA         -0.2680   53.8090  -29.4860 C.3       8 GLP5        0.0000 
     63 CA         -7.0386   55.1551  -17.9806 C.3       4 GLC5        0.0000 
     64 CA         -8.7750   55.7520  -17.9680 C.3       8 GLP5        0.0000 
     65 CA          4.2084   47.7395  -28.3945 C.3       4 GLC5        0.0000 
     66 CA          5.1570   46.9540  -26.8930 C.3       8 GLP5        0.0000 
@<TRIPOS>BOND
@<TRIPOS>SUBSTRUCTURE
     1 ALC1       40 GROUP        1 X    ALC  0     ROOT ALC X 1
     2 SEC2       31 GROUP        1 X    SEC  0     **** SEC X 2
     3 ZIC7       46 GROUP        1 X    ZIC  0     **** ZIC X 5
     4 GLC5        1 GROUP        1 X    GLC  0     **** GLC X 6
     5 ALP1       42 GROUP        1 Y    ALP  0     ROOT ALP Y 8
     6 SEP2       33 GROUP        1 Y    SEP  0     **** SEP Y 9
     7 ZIP7       48 GROUP        1 Y    ZIP  0     **** ZIP Y 12
     8 GLP5        3 GROUP        1 Y    GLP  0     **** GLP Y 13
     9 ALL1       41 GROUP        1 Z    ALL  0     ROOT ALL Z 15
    10 SEL2       32 GROUP        1 Z    SEL  0     **** SEL Z 16
    11 ZIL7       47 GROUP        1 Z    ZIL  0     **** ZIL Z 19
    12 GLL5        2 GROUP        1 Z    GLL  0     **** GLL Z 20
@<TRIPOS>SET

