#    Name: 2d1n_FA4_2_ligand
#    Modification time : Tue Mar 25 01:29:46 2014

@<TRIPOS>MOLECULE
2d1n_FA4_2_ligand
   77    77     1     0     0
SMALL
NO_CHARGES


@<TRIPOS>ATOM
      1 C1          2.8300   45.3860  -31.3190 C.ar      1 FA41002     0.0000 
      2 C2          1.6170   46.0100  -30.9110 C.ar      1 FA41002     0.0000 
      3 C3          1.6150   47.3100  -30.3020 C.ar      1 FA41002     0.0000 
      4 C4          2.8990   47.9940  -30.1080 C.ar      1 FA41002     0.0000 
      5 C5          4.1120   47.3300  -30.5340 C.ar      1 FA41002     0.0000 
      6 C6          4.0720   46.0440  -31.1290 C.ar      1 FA41002     0.0000 
      7 C7          0.2370   47.8700  -29.8940 C.3       1 FA41002     0.0000 
      8 C8         -0.0380   47.6130  -28.3910 C.3       1 FA41002     0.0000 
      9 C9         -1.4410   48.0040  -27.8790 C.3       1 FA41002     0.0000 
     10 C10        -1.9330   49.4050  -28.2240 C.3       1 FA41002     0.0000 
     11 C11        -2.2400   50.3360  -27.0520 C.3       1 FA41002     0.0000 
     12 C12        -2.8560   51.6090  -27.6370 C.3       1 FA41002     0.0000 
     13 C13        -3.2250   52.6370  -26.5840 C.3       1 FA41002     0.0000 
     14 C14        -4.6760   53.0990  -26.7890 C.3       1 FA41002     0.0000 
     15 C15        -5.1260   54.1230  -25.7630 C.3       1 FA41002     0.0000 
     16 C16        -5.6100   53.4900  -24.4860 C.2       1 FA41002     0.0000 
     17 N17        -4.9040   53.8870  -23.3530 N.am      1 FA41002     0.0000 
     18 C18        -5.1810   53.4040  -21.9730 C.3       1 FA41002     0.0000 
     19 O19        -6.5360   52.6950  -24.4500 O.2       1 FA41002     0.0000 
     20 C20        -5.0200   54.5990  -20.9820 C.3       1 FA41002     0.0000 
     21 C21        -4.1760   52.2510  -21.6400 C.2       1 FA41002     0.0000 
     22 N22        -4.2500   51.1490  -22.4200 N.am      1 FA41002     0.0000 
     23 C23        -5.6700   54.3980  -19.5810 C.3       1 FA41002     0.0000 
     24 C24        -4.7390   54.3190  -18.3460 C.3       1 FA41002     0.0000 
     25 C25        -5.4000   54.7580  -17.0230 C.3       1 FA41002     0.0000 
     26 N26        -5.8230   53.5800  -16.2180 N.4       1 FA41002     0.0000 
     27 C27         3.0140   49.3880  -29.4710 C.3       1 FA41002     0.0000 
     28 N28         4.1820   50.2160  -30.0700 N.pl3     1 FA41002     0.0000 
     29 C29         3.8630   51.2610  -30.9940 C.cat     1 FA41002     0.0000 
     30 N30         2.5800   51.3350  -31.5530 N.pl3     1 FA41002     0.0000 
     31 N31         4.7320   52.1380  -31.3330 N.pl3     1 FA41002     0.0000 
     32 O32        -3.3660   50.0970  -22.1180 O.3       1 FA41002     0.0000 
     33 O33        -3.3570   52.3020  -20.7180 O.2       1 FA41002     0.0000 
     34 H           2.8031   44.4616  -31.7496 H         1 FA41002     0.0000 
     35 H           0.7251   45.5257  -31.0527 H         1 FA41002     0.0000 
     36 H           5.0061   47.8066  -30.3981 H         1 FA41002     0.0000 
     37 H           4.9378   45.5908  -31.4211 H         1 FA41002     0.0000 
     38 H          -0.5347   47.3849  -30.4818 H         1 FA41002     0.0000 
     39 H           0.2160   48.9386  -30.0788 H         1 FA41002     0.0000 
     40 H           0.7208   48.1611  -27.7976 H         1 FA41002     0.0000 
     41 H           0.1271   46.5368  -28.1840 H         1 FA41002     0.0000 
     42 H          -1.4532   47.8799  -26.7721 H         1 FA41002     0.0000 
     43 H          -2.1721   47.2591  -28.2680 H         1 FA41002     0.0000 
     44 H          -2.8491   49.3158  -28.8545 H         1 FA41002     0.0000 
     45 H          -1.1755   49.8977  -28.8783 H         1 FA41002     0.0000 
     46 H          -1.3302   50.5811  -26.5384 H         1 FA41002     0.0000 
     47 H          -2.9451   49.8662  -26.3935 H         1 FA41002     0.0000 
     48 H          -3.7554   51.3362  -28.2094 H         1 FA41002     0.0000 
     49 H          -2.1414   52.0547  -28.3453 H         1 FA41002     0.0000 
     50 H          -2.5667   53.4960  -26.6637 H         1 FA41002     0.0000 
     51 H          -3.1304   52.1995  -25.5954 H         1 FA41002     0.0000 
     52 H          -5.3346   52.2207  -26.7410 H         1 FA41002     0.0000 
     53 H          -4.7695   53.5269  -27.7968 H         1 FA41002     0.0000 
     54 H          -5.9316   54.7334  -26.1973 H         1 FA41002     0.0000 
     55 H          -4.2868   54.7991  -25.5414 H         1 FA41002     0.0000 
     56 H          -4.1173   54.5712  -23.4386 H         1 FA41002     0.0000 
     57 H          -6.1714   53.0262  -21.9018 H         1 FA41002     0.0000 
     58 H          -5.4563   55.4985  -21.4460 H         1 FA41002     0.0000 
     59 H          -3.9443   54.7966  -20.8452 H         1 FA41002     0.0000 
     60 H          -4.8995   51.0596  -23.1888 H         1 FA41002     0.0000 
     61 H          -6.2872   53.4682  -19.6165 H         1 FA41002     0.0000 
     62 H          -6.4019   55.2253  -19.4176 H         1 FA41002     0.0000 
     63 H          -3.8570   54.9504  -18.5297 H         1 FA41002     0.0000 
     64 H          -4.3834   53.2834  -18.2395 H         1 FA41002     0.0000 
     65 H          -6.2623   55.3852  -17.2631 H         1 FA41002     0.0000 
     66 H          -4.6803   55.3625  -16.4651 H         1 FA41002     0.0000 
     67 H           3.1762   49.2811  -28.3967 H         1 FA41002     0.0000 
     68 H           2.0818   49.9340  -29.6280 H         1 FA41002     0.0000 
     69 H           5.0943   49.9867  -29.7883 H         1 FA41002     0.0000 
     70 H           2.4235   52.0831  -32.1978 H         1 FA41002     0.0000 
     71 H           1.9309   50.6333  -31.2592 H         1 FA41002     0.0000 
     72 H           4.4404   52.8038  -32.0198 H         1 FA41002     0.0000 
     73 H           5.6209   52.0750  -30.8792 H         1 FA41002     0.0000 
     74 H          -5.0485   52.9919  -15.9851 H         1 FA41002     0.0000 
     75 H          -6.2528   53.8532  -15.3574 H         1 FA41002     0.0000 
     76 H          -6.4844   53.0129  -16.7088 H         1 FA41002     0.0000 
     77 H          -3.5368   49.4059  -22.8203 H         1 FA41002     0.0000 
@<TRIPOS>BOND
     1    2    1 ar   
     2    6    1 ar   
     3   34    1 1    
     4    3    2 ar   
     5   35    2 1    
     6    4    3 ar   
     7    7    3 1    
     8    5    4 ar   
     9   27    4 1    
    10    6    5 ar   
    11   36    5 1    
    12   37    6 1    
    13    8    7 1    
    14   38    7 1    
    15   39    7 1    
    16    9    8 1    
    17   40    8 1    
    18   41    8 1    
    19   10    9 1    
    20   42    9 1    
    21   43    9 1    
    22   11   10 1    
    23   44   10 1    
    24   45   10 1    
    25   12   11 1    
    26   46   11 1    
    27   47   11 1    
    28   13   12 1    
    29   48   12 1    
    30   49   12 1    
    31   14   13 1    
    32   50   13 1    
    33   51   13 1    
    34   15   14 1    
    35   52   14 1    
    36   53   14 1    
    37   16   15 1    
    38   54   15 1    
    39   55   15 1    
    40   17   16 am   
    41   19   16 2    
    42   18   17 1    
    43   56   17 1    
    44   20   18 1    
    45   21   18 1    
    46   57   18 1    
    47   23   20 1    
    48   58   20 1    
    49   59   20 1    
    50   22   21 am   
    51   33   21 2    
    52   32   22 1    
    53   60   22 1    
    54   24   23 1    
    55   61   23 1    
    56   62   23 1    
    57   25   24 1    
    58   63   24 1    
    59   64   24 1    
    60   26   25 1    
    61   65   25 1    
    62   66   25 1    
    63   74   26 1    
    64   75   26 1    
    65   76   26 1    
    66   28   27 1    
    67   67   27 1    
    68   68   27 1    
    69   29   28 ar   
    70   69   28 1    
    71   30   29 ar   
    72   31   29 ar   
    73   70   30 1    
    74   71   30 1    
    75   72   31 1    
    76   73   31 1    
    77   77   32 1    
@<TRIPOS>SUBSTRUCTURE
     1 FA41002     1 GROUP   
@<TRIPOS>SET

