#    Name: 3u15_03M_1_INTS_M
#    Modification time : Mon Mar 24 21:16:58 2014

@<TRIPOS>MOLECULE
3u15_03M_1_INTS_M
   68     0     6     0     0
SMALL
NO_CHARGES


@<TRIPOS>ATOM
      1 CA        -11.2040  -34.8530    0.5955 C.3       2 GLC5        0.0000 
      2 CA         -9.2280  -35.3140    1.3560 C.3       6 GLL5        0.0000 
      3 CA        -13.1800  -34.3920   -0.1650 C.3       4 GLP5        0.0000 
      4 CA        -11.8215  -35.6880   -0.0745 C.3       2 GLC5        0.0000 
      5 CA        -10.4630  -36.9840    0.0160 C.3       6 GLL5        0.0000 
      6 CA         -9.8855  -36.2215   -1.3790 C.3       2 GLC5        0.0000 
      7 CA         -9.3080  -35.4590   -2.7740 C.3       4 GLP5        0.0000 
      8 O          -8.5335  -39.8860   -1.1435 O.2       1 ALC1        0.0000 
      9 O          -9.7710  -39.0810   -1.2730 O.2       5 ALL1        0.0000 
     10 O          -7.2960  -40.6910   -1.0140 O.2       3 ALP1        0.0000 
     11 O          -5.8910  -36.7160    1.1375 O.2       1 ALC1        0.0000 
     12 O          -7.2530  -36.2880    1.2880 O.2       5 ALL1        0.0000 
     13 O          -4.5290  -37.1440    0.9870 O.2       3 ALP1        0.0000 
     14 CA         -9.9205  -37.4570   -2.0270 C.3       2 GLC5        0.0000 
     15 CA        -10.6750  -38.1460   -0.8290 C.3       6 GLL5        0.0000 
     16 CA         -9.1660  -36.7680   -3.2250 C.3       4 GLP5        0.0000 
     17 CA        -13.0515  -45.6455   -0.4595 C.3       2 GLC5        0.0000 
     18 CA        -13.7230  -44.7900   -1.6240 C.3       6 GLL5        0.0000 
     19 CA        -12.3800  -46.5010    0.7050 C.3       4 GLP5        0.0000 
     20 CA        -12.9925  -46.1500   -3.1235 C.3       2 GLC5        0.0000 
     21 CA        -12.2620  -47.5100   -4.6230 C.3       4 GLP5        0.0000 
     22 CA        -15.6425  -45.8265   -2.0045 C.3       2 GLC5        0.0000 
     23 CA        -17.5620  -46.8630   -2.3850 C.3       4 GLP5        0.0000 
     24 CA        -14.8300  -45.2610    0.4985 C.3       2 GLC5        0.0000 
     25 CA        -16.0480  -44.1980   -0.3160 C.3       6 GLL5        0.0000 
     26 CA        -13.6120  -46.3240    1.3130 C.3       4 GLP5        0.0000 
     27 CA         -5.1225  -32.4050    1.8635 C.3       2 GLC5        0.0000 
     28 CA         -6.0640  -33.9890    2.9150 C.3       6 GLL5        0.0000 
     29 CA         -4.1810  -30.8210    0.8120 C.3       4 GLP5        0.0000 
     30 CA         -4.7555  -33.2095    3.8835 C.3       2 GLC5        0.0000 
     31 CA         -3.4470  -32.4300    4.8520 C.3       4 GLP5        0.0000 
     32 CA         -9.6190  -30.5855    4.0380 C.3       2 GLC5        0.0000 
     33 CA         -8.0200  -31.7770    3.7790 C.3       6 GLL5        0.0000 
     34 CA        -11.2180  -29.3940    4.2970 C.3       4 GLP5        0.0000 
     35 CA         -8.1315  -31.4690    2.0930 C.3       2 GLC5        0.0000 
     36 CA         -8.2430  -31.1610    0.4070 C.3       4 GLP5        0.0000 
     37 CA         -8.9743  -32.9967    0.9610 C.3       2 GLC5        0.0000 
     38 CA        -10.1830  -34.3510    1.6740 C.3       6 GLL5        0.0000 
     39 CA        -11.4443  -33.3575    1.0745 C.3       2 GLC5        0.0000 
     40 CA         -9.7660  -33.2810    2.4220 C.3       6 GLL5        0.0000 
     41 CA        -12.9140  -32.8990    0.1010 C.3       4 GLP5        0.0000 
     42 CA         -7.2568  -35.7283   -0.4570 C.3       2 GLC5        0.0000 
     43 CA         -9.2640  -36.5010    0.6750 C.3       6 GLL5        0.0000 
     44 CA         -5.8550  -34.6450   -1.5460 C.3       4 GLP5        0.0000 
     45 CA        -15.9875  -41.8940   -2.9377 C.3       2 GLC5        0.0000 
     46 CA        -15.0410  -40.8860   -1.6330 C.3       6 GLL5        0.0000 
     47 CA        -16.5640  -42.4120   -4.5820 C.3       4 GLP5        0.0000 
     48 CA        -16.0925  -39.9830   -0.2848 C.3       2 GLC5        0.0000 
     49 CA        -16.7740  -38.5900    0.7240 C.3       4 GLP5        0.0000 
     50 CA        -15.6610  -42.8880   -2.9355 C.3       2 GLC5        0.0000 
     51 CA        -15.3550  -43.2060   -0.9660 C.3       6 GLL5        0.0000 
     52 CA        -16.4608  -45.3935   -0.2815 C.3       2 GLC5        0.0000 
     53 CA        -17.2200  -47.0850    0.0780 C.3       4 GLP5        0.0000 
     54 CA        -15.0913  -42.1490   -3.4262 C.3       2 GLC5        0.0000 
     55 CA        -13.4170  -42.5540   -2.2720 C.3       6 GLL5        0.0000 
     56 CA        -12.1608  -42.6360   -1.4918 C.3       2 GLC5        0.0000 
     57 CA        -13.8200  -41.2180   -2.2690 C.3       6 GLL5        0.0000 
     58 CA        -10.7030  -43.3860   -0.7130 C.3       4 GLP5        0.0000 
     59 CA         -8.6720  -32.1963    1.5108 C.3       2 GLC5        0.0000 
     60 CA         -6.9434  -34.6660    0.2327 C.3       2 GLC5        0.0000 
     61 CA         -7.4970  -34.1130    2.4680 C.3       6 GLL5        0.0000 
     62 CA        -12.3225  -43.7710   -1.1655 C.3       2 GLC5        0.0000 
     63 CA        -14.1610  -43.5220   -1.6120 C.3       6 GLL5        0.0000 
     64 CA        -17.6335  -42.8055   -0.1895 C.3       2 GLC5        0.0000 
     65 CA        -19.4590  -42.2440    0.2590 C.3       4 GLP5        0.0000 
     66 CA        -15.5740  -43.1815    1.2080 C.3       2 GLC5        0.0000 
     67 CA        -15.3400  -42.9960    3.0540 C.3       4 GLP5        0.0000 
     68 CA         -7.5627  -32.7429    1.4600 C.3       2 GLC5        0.0000 
@<TRIPOS>BOND
@<TRIPOS>SUBSTRUCTURE
     1 ALC1        8 GROUP        1 X    ALC  0     ROOT ALC X 1
     2 GLC5        1 GROUP        1 X    GLC  0     **** GLC X 6
     3 ALP1       10 GROUP        1 Y    ALP  0     ROOT ALP Y 8
     4 GLP5        3 GROUP        1 Y    GLP  0     **** GLP Y 13
     5 ALL1        9 GROUP        1 Z    ALL  0     ROOT ALL Z 15
     6 GLL5        2 GROUP        1 Z    GLL  0     **** GLL Z 20
@<TRIPOS>SET

