#    Name: 3u15_03M_1_ligand
#    Modification time : Mon Mar 24 21:16:58 2014

@<TRIPOS>MOLECULE
3u15_03M_1_ligand
   42    45     1     0     0
SMALL
NO_CHARGES


@<TRIPOS>ATOM
      1 C4        -10.1830  -34.3510    1.6740 C.ar      1 03M1        0.0000 
      2 C6         -8.0530  -37.1220    0.5890 C.2       1 03M1        0.0000 
      3 C7         -9.2640  -36.5010    0.6750 C.2       1 03M1        0.0000 
      4 C8         -9.2280  -35.3140    1.3560 C.ar      1 03M1        0.0000 
      5 C10       -10.4630  -36.9840    0.0160 C.2       1 03M1        0.0000 
      6 N12        -9.7710  -39.0810   -1.2730 N.am      1 03M1        0.0000 
      7 C13       -10.5630  -39.8700   -2.0390 C.2       1 03M1        0.0000 
      8 C15       -11.9750  -38.4190   -1.4440 C.2       1 03M1        0.0000 
      9 C20       -15.0410  -40.8860   -1.6330 C.ar      1 03M1        0.0000 
     10 C21       -15.7810  -41.8660   -0.9540 C.ar      1 03M1        0.0000 
     11 C22       -15.3550  -43.2060   -0.9660 C.ar      1 03M1        0.0000 
     12 C24       -13.4170  -42.5540   -2.2720 C.ar      1 03M1        0.0000 
     13 C1         -9.7660  -33.2810    2.4220 C.ar      1 03M1        0.0000 
     14 C2         -8.4360  -33.1820    2.8070 C.ar      1 03M1        0.0000 
     15 C3         -7.4970  -34.1130    2.4680 C.ar      1 03M1        0.0000 
     16 N5         -7.2530  -36.2880    1.2880 N.pl3     1 03M1        0.0000 
     17 C9         -7.9050  -35.2080    1.7540 C.ar      1 03M1        0.0000 
     18 C11       -10.6750  -38.1460   -0.8290 C.2       1 03M1        0.0000 
     19 N14       -11.8990  -39.5090   -2.2160 N.am      1 03M1        0.0000 
     20 O16       -10.0200  -40.8770   -2.6500 O.2       1 03M1        0.0000 
     21 O17       -13.0060  -37.6760   -1.1760 O.2       1 03M1        0.0000 
     22 C18       -12.9700  -40.1810   -3.0040 C.3       1 03M1        0.0000 
     23 C19       -13.8200  -41.2180   -2.2690 C.ar      1 03M1        0.0000 
     24 C23       -14.1610  -43.5220   -1.6120 C.ar      1 03M1        0.0000 
     25 F25       -13.7230  -44.7900   -1.6240 F         1 03M1        0.0000 
     26 F26       -16.0480  -44.1980   -0.3160 F         1 03M1        0.0000 
     27 C27        -6.0640  -33.9890    2.9150 C.3       1 03M1        0.0000 
     28 CL         -8.0200  -31.7770    3.7790 Cl        1 03M1        0.0000 
     29 H         -11.1399  -34.4471    1.3613 H         1 03M1        0.0000 
     30 H          -7.8421  -37.9125    0.1595 H         1 03M1        0.0000 
     31 H         -11.3494  -36.3759    0.1819 H         1 03M1        0.0000 
     32 H          -8.8768  -39.1431   -1.0925 H         1 03M1        0.0000 
     33 H         -15.3824  -39.9195   -1.6723 H         1 03M1        0.0000 
     34 H         -16.6331  -41.6061   -0.4484 H         1 03M1        0.0000 
     35 H         -12.5537  -42.8225   -2.7727 H         1 03M1        0.0000 
     36 H         -10.4333  -32.5462    2.7025 H         1 03M1        0.0000 
     37 H          -6.2846  -36.4573    1.4403 H         1 03M1        0.0000 
     38 H         -12.5174  -40.6788   -3.8986 H         1 03M1        0.0000 
     39 H         -13.6602  -39.4088   -3.4284 H         1 03M1        0.0000 
     40 H          -5.5055  -34.7511    2.5875 H         1 03M1        0.0000 
     41 H          -5.6407  -33.1487    2.5763 H         1 03M1        0.0000 
     42 H          -5.9858  -33.9754    3.9118 H         1 03M1        0.0000 
@<TRIPOS>BOND
     1    4    1 ar   
     2   13    1 ar   
     3   29    1 1    
     4    3    2 2    
     5   16    2 1    
     6   30    2 1    
     7    4    3 1    
     8    5    3 1    
     9   17    4 ar   
    10   18    5 2    
    11   31    5 1    
    12    7    6 am   
    13   18    6 1    
    14   32    6 1    
    15   19    7 am   
    16   20    7 2    
    17   18    8 1    
    18   19    8 am   
    19   21    8 2    
    20   10    9 ar   
    21   23    9 ar   
    22   33    9 1    
    23   11   10 ar   
    24   34   10 1    
    25   24   11 ar   
    26   26   11 1    
    27   23   12 ar   
    28   24   12 ar   
    29   35   12 1    
    30   14   13 ar   
    31   36   13 1    
    32   15   14 ar   
    33   28   14 1    
    34   17   15 ar   
    35   27   15 1    
    36   17   16 1    
    37   37   16 1    
    38   22   19 1    
    39   23   22 1    
    40   38   22 1    
    41   39   22 1    
    42   25   24 1    
    43   40   27 1    
    44   41   27 1    
    45   42   27 1    
@<TRIPOS>SUBSTRUCTURE
     1 03M1        1 GROUP   
@<TRIPOS>SET

