#    Name: 2g0n_GDP_1_INTS_M
#    Modification time : Tue Mar 25 13:20:51 2014

@<TRIPOS>MOLECULE
2g0n_GDP_1_INTS_M
   58     0    15     0     0
SMALL
NO_CHARGES


@<TRIPOS>ATOM
      1 Zn        -18.1000    6.3795  -13.4075 Zn        4 ZIC7        0.0000 
      2 Zn        -18.1110    6.4860  -12.3270 Zn       14 ZIL7        0.0000 
      3 Zn        -18.0890    6.2730  -14.4880 Zn        9 ZIP7        0.0000 
      4 N         -19.0620    7.7995  -12.3400 N.am      2 SEC2        0.0000 
      5 N         -18.1110    6.4860  -12.3270 N.am     12 SEL2        0.0000 
      6 N         -20.0130    9.1130  -12.3530 N.am      7 SEP2        0.0000 
      7 NZ        -15.6120    7.3765  -10.6295 N.4       3 LYC4        0.0000 
      8 NZ        -16.8790    6.8890  -10.2000 N.4      13 LYL4        0.0000 
      9 NZ        -14.3450    7.8640  -11.0590 N.4       8 LYP4        0.0000 
     10 N         -17.7060    7.0845   -8.9095 N.am      2 SEC2        0.0000 
     11 N         -16.8790    6.8890  -10.2000 N.am     12 SEL2        0.0000 
     12 N         -18.5330    7.2800   -7.6190 N.am      7 SEP2        0.0000 
     13 N         -17.8435    7.9895   -9.9605 N.am      2 SEC2        0.0000 
     14 N         -18.8080    9.0900   -9.7210 N.am      7 SEP2        0.0000 
     15 N         -15.6120    7.3765  -10.6295 N.am      2 SEC2        0.0000 
     16 N         -14.3450    7.8640  -11.0590 N.am      7 SEP2        0.0000 
     17 N         -16.0620    4.3350  -10.1060 N.am      2 SEC2        0.0000 
     18 N         -16.7800    4.6770  -11.2790 N.am     12 SEL2        0.0000 
     19 N         -15.3440    3.9930   -8.9330 N.am      7 SEP2        0.0000 
     20 N         -18.6980    6.3700   -8.8530 N.am      2 SEC2        0.0000 
     21 N         -18.8630    5.4600  -10.0870 N.am     12 SEL2        0.0000 
     22 N         -21.9440    7.4660  -11.3110 N.am      2 SEC2        0.0000 
     23 N         -21.1830    6.3860  -10.8930 N.am     12 SEL2        0.0000 
     24 N         -22.7050    8.5460  -11.7290 N.am      7 SEP2        0.0000 
     25 CA        -18.3505    3.5305   -8.2940 C.3       5 GLC5        0.0000 
     26 CA        -20.2550    3.4710   -8.5420 C.3      15 GLL5        0.0000 
     27 CA        -16.4460    3.5900   -8.0460 C.3      10 GLP5        0.0000 
     28 CA        -20.0620    5.6150   -8.2630 C.3       5 GLC5        0.0000 
     29 CA        -19.8690    7.7590   -7.9840 C.3      10 GLP5        0.0000 
     30 N         -22.6905   -0.4795   -6.8525 N.am      2 SEC2        0.0000 
     31 N         -22.8610    1.0070   -7.6930 N.am     12 SEL2        0.0000 
     32 N         -22.5200   -1.9660   -6.0120 N.am      7 SEP2        0.0000 
     33 CA        -23.9560    4.6955   -9.1280 C.3       5 GLC5        0.0000 
     34 CA        -23.4860    3.3020   -7.8980 C.3      15 GLL5        0.0000 
     35 CA        -24.4260    6.0890  -10.3580 C.3      10 GLP5        0.0000 
     36 CA        -25.3025    4.3990   -7.7075 C.3       5 GLC5        0.0000 
     37 CA        -27.1190    5.4960   -7.5170 C.3      10 GLP5        0.0000 
     38 CA        -21.5255    4.4990   -5.2010 C.3       5 GLC5        0.0000 
     39 CA        -22.9890    3.7210   -6.5320 C.3      15 GLL5        0.0000 
     40 CA        -20.0620    5.2770   -3.8700 C.3      10 GLP5        0.0000 
     41 CA        -24.7865    8.7625   -6.1305 C.3       5 GLC5        0.0000 
     42 CA        -24.1010    6.8910   -5.0910 C.3      15 GLL5        0.0000 
     43 CA        -25.4720   10.6340   -7.1700 C.3      10 GLP5        0.0000 
     44 N         -26.3535    9.1575   -4.4910 N.am      2 SEC2        0.0000 
     45 N         -24.9370    8.7620   -3.8930 N.am     12 SEL2        0.0000 
     46 N         -27.7700    9.5530   -5.0890 N.am      7 SEP2        0.0000 
     47 O         -25.6265    7.4750   -1.8140 O.2       1 ALC1        0.0000 
     48 O         -25.2140    6.7430   -2.9570 O.2      11 ALL1        0.0000 
     49 O         -26.0390    8.2070   -0.6710 O.2       6 ALP1        0.0000 
     50 O         -26.1755    6.5585   -1.5390 O.2       1 ALC1        0.0000 
     51 O         -27.1370    6.3740   -0.1210 O.2       6 ALP1        0.0000 
     52 O         -26.3335    5.5250   -1.0375 O.2       1 ALC1        0.0000 
     53 O         -25.5300    4.6760   -1.9540 O.2      11 ALL1        0.0000 
     54 CA        -23.4473    2.9072   -9.8900 C.3       5 GLC5        0.0000 
     55 CA        -23.9170    3.0300  -11.6970 C.3      10 GLP5        0.0000 
     56 CA        -22.6517    6.5808   -3.7785 C.3       5 GLC5        0.0000 
     57 CA        -23.9660    5.4440   -5.0630 C.3      15 GLL5        0.0000 
     58 CA        -21.2700    6.9940   -2.4800 C.3      10 GLP5        0.0000 
@<TRIPOS>BOND
@<TRIPOS>SUBSTRUCTURE
     1 ALC1       47 GROUP        1 X    ALC  0     ROOT ALC X 1
     2 SEC2        4 GROUP        1 X    SEC  0     **** SEC X 2
     3 LYC4        7 GROUP        1 X    LYC  0     **** LYC X 4
     4 ZIC7        1 GROUP        1 X    ZIC  0     **** ZIC X 5
     5 GLC5       25 GROUP        1 X    GLC  0     **** GLC X 6
     6 ALP1       49 GROUP        1 Y    ALP  0     ROOT ALP Y 8
     7 SEP2        6 GROUP        1 Y    SEP  0     **** SEP Y 9
     8 LYP4        9 GROUP        1 Y    LYP  0     **** LYP Y 11
     9 ZIP7        3 GROUP        1 Y    ZIP  0     **** ZIP Y 12
    10 GLP5       27 GROUP        1 Y    GLP  0     **** GLP Y 13
    11 ALL1       48 GROUP        1 Z    ALL  0     ROOT ALL Z 15
    12 SEL2        5 GROUP        1 Z    SEL  0     **** SEL Z 16
    13 LYL4        8 GROUP        1 Z    LYL  0     **** LYL Z 18
    14 ZIL7        2 GROUP        1 Z    ZIL  0     **** ZIL Z 19
    15 GLL5       26 GROUP        1 Z    GLL  0     **** GLL Z 20
@<TRIPOS>SET

