#    Name: 2g0n_GDP_1_ligand
#    Modification time : Tue Mar 25 13:20:51 2014

@<TRIPOS>MOLECULE
2g0n_GDP_1_ligand
   40    42     1     0     0
SMALL
NO_CHARGES


@<TRIPOS>ATOM
      1 PB        -17.6540    5.9060  -11.0410 P.3       1 GDP501      0.0000 
      2 O1B       -18.1110    6.4860  -12.3270 O.co2     1 GDP501      0.0000 
      3 O2B       -16.8790    6.8890  -10.2000 O.co2     1 GDP501      0.0000 
      4 O3B       -16.7800    4.6770  -11.2790 O.co2     1 GDP501      0.0000 
      5 O3A       -18.8630    5.4600  -10.0870 O.3       1 GDP501      0.0000 
      6 PA        -20.3870    5.1490  -10.5300 P.3       1 GDP501      0.0000 
      7 O1A       -21.1830    6.3860  -10.8930 O.co2     1 GDP501      0.0000 
      8 O2A       -20.4110    4.1200  -11.6170 O.co2     1 GDP501      0.0000 
      9 O5'       -20.9750    4.5350   -9.1630 O.3       1 GDP501      0.0000 
     10 C5'       -20.2550    3.4710   -8.5420 C.3       1 GDP501      0.0000 
     11 C4'       -21.1880    2.7400   -7.6070 C.3       1 GDP501      0.0000 
     12 O4'       -21.5740    3.6250   -6.5510 O.3       1 GDP501      0.0000 
     13 C3'       -22.4690    2.2670   -8.2680 C.3       1 GDP501      0.0000 
     14 O3'       -22.8610    1.0070   -7.6930 O.3       1 GDP501      0.0000 
     15 C2'       -23.4860    3.3020   -7.8980 C.3       1 GDP501      0.0000 
     16 O2'       -24.8170    2.7870   -7.8180 O.3       1 GDP501      0.0000 
     17 C1'       -22.9890    3.7210   -6.5320 C.3       1 GDP501      0.0000 
     18 N9        -23.3310    5.1130   -6.1840 N.pl3     1 GDP501      0.0000 
     19 C8        -23.0840    6.2170   -6.8950 C.2       1 GDP501      0.0000 
     20 N7        -23.5360    7.3070   -6.2330 N.2       1 GDP501      0.0000 
     21 C5        -24.1010    6.8910   -5.0910 C.2       1 GDP501      0.0000 
     22 C6        -24.7750    7.5280   -3.9410 C.2       1 GDP501      0.0000 
     23 O6        -24.9370    8.7620   -3.8930 O.2       1 GDP501      0.0000 
     24 N1        -25.2140    6.7430   -2.9570 N.am      1 GDP501      0.0000 
     25 C2        -25.0640    5.4070   -2.9860 C.2       1 GDP501      0.0000 
     26 N2        -25.5300    4.6760   -1.9540 N.pl3     1 GDP501      0.0000 
     27 N3        -24.4670    4.7520   -4.0190 N.2       1 GDP501      0.0000 
     28 C4        -23.9660    5.4440   -5.0630 C.2       1 GDP501      0.0000 
     29 H         -19.4078    3.8432   -7.9597 H         1 GDP501      0.0000 
     30 H         -19.8772    2.7562   -9.2780 H         1 GDP501      0.0000 
     31 H         -20.6784    1.8797   -7.1959 H         1 GDP501      0.0000 
     32 H         -22.3426    2.2368   -9.3012 H         1 GDP501      0.0000 
     33 H         -23.3811    4.1338   -8.5489 H         1 GDP501      0.0000 
     34 H         -23.3956    3.0475   -5.7953 H         1 GDP501      0.0000 
     35 H         -22.6418    6.2434   -7.7672 H         1 GDP501      0.0000 
     36 H         -25.6980    7.1817   -2.1219 H         1 GDP501      0.0000 
     37 H         -25.9777    5.1865   -1.2199 H         1 GDP501      0.0000 
     38 H         -25.3866    3.6882   -2.0143 H         1 GDP501      0.0000 
     39 H         -23.8339    1.1089   -7.4855 H         1 GDP501      0.0000 
     40 H         -25.2215    2.9754   -8.7129 H         1 GDP501      0.0000 
@<TRIPOS>BOND
     1    2    1 ar   
     2    3    1 ar   
     3    4    1 ar   
     4    5    1 1    
     5    6    5 1    
     6    7    6 ar   
     7    8    6 ar   
     8    9    6 1    
     9   10    9 1    
    10   11   10 1    
    11   29   10 1    
    12   30   10 1    
    13   12   11 1    
    14   13   11 1    
    15   31   11 1    
    16   17   12 1    
    17   14   13 1    
    18   15   13 1    
    19   32   13 1    
    20   39   14 1    
    21   16   15 1    
    22   17   15 1    
    23   33   15 1    
    24   40   16 1    
    25   18   17 1    
    26   34   17 1    
    27   19   18 1    
    28   28   18 1    
    29   20   19 2    
    30   35   19 1    
    31   21   20 1    
    32   22   21 1    
    33   28   21 2    
    34   23   22 2    
    35   24   22 am   
    36   25   24 1    
    37   36   24 1    
    38   26   25 1    
    39   27   25 2    
    40   37   26 1    
    41   38   26 1    
    42   28   27 1    
@<TRIPOS>SUBSTRUCTURE
     1 GDP501      1 GROUP   
@<TRIPOS>SET

