#    Name: 1ez0_NAP_1_INTS_M
#    Modification time : Tue Mar 25 00:25:39 2014

@<TRIPOS>MOLECULE
1ez0_NAP_1_INTS_M
  109     0     9     0     0
SMALL
NO_CHARGES


@<TRIPOS>ATOM
      1 N          45.1330   45.4265   54.9335 N.am      1 SEC2        0.0000 
      2 N          44.3630   44.8820   55.9120 N.am      7 SEL2        0.0000 
      3 N          45.9030   45.9710   53.9550 N.am      4 SEP2        0.0000 
      4 N          45.2345   45.7965   56.3915 N.am      1 SEC2        0.0000 
      5 N          46.1060   46.7110   56.8710 N.am      4 SEP2        0.0000 
      6 N          44.3860   46.4545   57.0115 N.am      1 SEC2        0.0000 
      7 N          42.6660   46.1980   57.1520 N.am      7 SEL2        0.0000 
      8 CA         43.5085   43.8050   53.5705 C.3       3 GLC5        0.0000 
      9 CA         42.0210   43.0770   54.9160 C.3       9 GLL5        0.0000 
     10 CA         44.9960   44.5330   52.2250 C.3       6 GLP5        0.0000 
     11 CA         41.8050   39.6160   55.7685 C.3       3 GLC5        0.0000 
     12 CA         41.4260   41.7540   55.5490 C.3       9 GLL5        0.0000 
     13 CA         42.1840   37.4780   55.9880 C.3       6 GLP5        0.0000 
     14 CA         39.2820   39.9350   56.8135 C.3       3 GLC5        0.0000 
     15 CA         40.0290   41.9360   56.2330 C.3       9 GLL5        0.0000 
     16 CA         38.5350   37.9340   57.3940 C.3       6 GLP5        0.0000 
     17 CA         39.2425   42.5560   54.7300 C.3       3 GLC5        0.0000 
     18 CA         38.4560   43.1760   53.2270 C.3       6 GLP5        0.0000 
     19 N          38.4480   39.9905   56.7845 N.am      1 SEC2        0.0000 
     20 N          39.2020   40.8390   55.9180 N.am      7 SEL2        0.0000 
     21 N          37.6940   39.1420   57.6510 N.am      4 SEP2        0.0000 
     22 CA         41.9220   39.3070   56.8840 C.3       3 GLC5        0.0000 
     23 CA         41.6600   41.1360   57.7800 C.3       9 GLL5        0.0000 
     24 CA         40.0975   39.5350   57.5870 C.3       3 GLC5        0.0000 
     25 CA         43.4695   40.9580   56.4565 C.3       3 GLC5        0.0000 
     26 CA         45.2790   40.7800   55.1330 C.3       6 GLP5        0.0000 
     27 CA         45.5815   42.6140   59.8535 C.3       3 GLC5        0.0000 
     28 CA         43.9340   41.4410   60.5170 C.3       9 GLL5        0.0000 
     29 CA         47.2290   43.7870   59.1900 C.3       6 GLP5        0.0000 
     30 CA         45.3655   39.1855   60.9845 C.3       3 GLC5        0.0000 
     31 CA         44.5040   40.8680   61.7000 C.3       9 GLL5        0.0000 
     32 CA         46.2270   37.5030   60.2690 C.3       6 GLP5        0.0000 
     33 N          44.0455   39.4165   63.6900 N.am      1 SEC2        0.0000 
     34 N          43.9040   39.7260   62.2070 N.am      7 SEL2        0.0000 
     35 N          44.1870   39.1070   65.1730 N.am      4 SEP2        0.0000 
     36 CA         41.7400   40.3955   61.8920 C.3       3 GLC5        0.0000 
     37 CA         42.8810   39.1240   61.4690 C.3       9 GLL5        0.0000 
     38 CA         40.5990   41.6670   62.3150 C.3       6 GLP5        0.0000 
     39 CA         42.2310   37.2940   61.0620 C.3       3 GLC5        0.0000 
     40 CA         41.5810   35.4640   60.6550 C.3       6 GLP5        0.0000 
     41 CA         43.9090   38.0435   62.8825 C.3       3 GLC5        0.0000 
     42 CA         44.9370   36.9630   64.2960 C.3       6 GLP5        0.0000 
     43 CA         44.5540   38.3135   60.8690 C.3       3 GLC5        0.0000 
     44 N          44.2345   46.0495   54.3190 N.am      1 SEC2        0.0000 
     45 N          42.5660   46.1280   54.6830 N.am      7 SEL2        0.0000 
     46 N          39.8955   46.9705   52.0960 N.am      1 SEC2        0.0000 
     47 N          40.5980   46.5460   53.0870 N.am      7 SEL2        0.0000 
     48 N          39.1930   47.3950   51.1050 N.am      4 SEP2        0.0000 
     49 N          39.6220   45.4650   53.4705 N.am      1 SEC2        0.0000 
     50 N          38.6460   44.3840   53.8540 N.am      4 SEP2        0.0000 
     51 CA         45.4205   47.4500   53.0475 C.3       3 GLC5        0.0000 
     52 CA         44.0000   47.9800   51.5340 C.3       9 GLL5        0.0000 
     53 CA         46.8410   46.9200   54.5610 C.3       6 GLP5        0.0000 
     54 CA         44.2840   50.7845   49.8945 C.3       3 GLC5        0.0000 
     55 CA         44.6990   49.1960   50.8540 C.3       9 GLL5        0.0000 
     56 CA         43.8690   52.3730   48.9350 C.3       6 GLP5        0.0000 
     57 CA         44.0915   50.0795   48.7330 C.3       3 GLC5        0.0000 
     58 CA         45.0000   48.6230   49.4220 C.3       9 GLL5        0.0000 
     59 CA         43.1830   51.5360   48.0440 C.3       6 GLP5        0.0000 
     60 CA         45.0750   45.8305   50.9710 C.3       3 GLC5        0.0000 
     61 CA         45.1540   47.1280   49.7170 C.3       9 GLL5        0.0000 
     62 N          47.6160   43.9315   43.7005 N.am      1 SEC2        0.0000 
     63 N          47.5070   43.9960   45.1060 N.am      7 SEL2        0.0000 
     64 N          47.7250   43.8670   42.2950 N.am      4 SEP2        0.0000 
     65 CA         45.5750   46.1545   44.6210 C.3       3 GLC5        0.0000 
     66 CA         44.9720   45.2480   45.7900 C.3       9 GLL5        0.0000 
     67 CA         46.1780   47.0610   43.4520 C.3       6 GLP5        0.0000 
     68 NZ         37.4980   40.7015   57.7980 N.4       2 LYC4        0.0000 
     69 NZ         37.3020   42.2610   57.9450 N.4       8 LYL4        0.0000 
     70 NZ         37.6940   39.1420   57.6510 N.4       5 LYP4        0.0000 
     71 N          36.0705   42.0760   57.0075 N.am      1 SEC2        0.0000 
     72 N          37.3020   42.2610   57.9450 N.am      7 SEL2        0.0000 
     73 N          34.8390   41.8910   56.0700 N.am      4 SEP2        0.0000 
     74 N          36.1845   43.0615   58.0535 N.am      1 SEC2        0.0000 
     75 N          35.0670   43.8620   58.1620 N.am      4 SEP2        0.0000 
     76 NZ         39.0915   42.5285   60.9870 N.4       2 LYC4        0.0000 
     77 NZ         37.8090   42.1690   60.4330 N.4       8 LYL4        0.0000 
     78 NZ         41.2350   43.8970   61.4460 N.4       5 LYP4        0.0000 
     79 N          39.0915   42.5285   60.9870 N.am      1 SEC2        0.0000 
     80 N          37.8090   42.1690   60.4330 N.am      7 SEL2        0.0000 
     81 N          40.3740   42.8880   61.5410 N.am      4 SEP2        0.0000 
     82 NZ         39.8470   44.4770   59.8690 N.4       2 LYC4        0.0000 
     83 NZ         38.7430   44.0140   59.0620 N.4       8 LYL4        0.0000 
     84 N          39.5585   43.4510   60.3015 N.am      1 SEC2        0.0000 
     85 N          38.7430   44.0140   59.0620 N.am      7 SEL2        0.0000 
     86 N          39.8470   44.4770   59.8690 N.am      1 SEC2        0.0000 
     87 N          40.9510   44.9400   60.6760 N.am      4 SEP2        0.0000 
     88 CA         40.0898   42.7957   54.2297 C.3       3 GLC5        0.0000 
     89 CA         43.5013   41.5977   55.1827 C.3       3 GLC5        0.0000 
     90 CA         44.5823   39.8648   59.1500 C.3       3 GLC5        0.0000 
     91 CA         45.7210   38.6550   58.0980 C.3       6 GLP5        0.0000 
     92 CA         42.0925   41.2991   61.4064 C.3       3 GLC5        0.0000 
     93 CA         42.9530   40.7080   59.8870 C.3       9 GLL5        0.0000 
     94 CA         44.1290   46.3268   51.9617 C.3       3 GLC5        0.0000 
     95 CA         42.5240   48.2610   51.8630 C.3       9 GLL5        0.0000 
     96 CA         45.3118   44.1955   47.5385 C.3       3 GLC5        0.0000 
     97 CA         46.2790   45.8270   47.9090 C.3       9 GLL5        0.0000 
     98 CA         44.3840   42.8010   47.8360 C.3       6 GLP5        0.0000 
     99 CA         47.6153   44.1205   47.3310 C.3       3 GLC5        0.0000 
    100 CA         46.2000   45.3530   46.5730 C.3       9 GLL5        0.0000 
    101 CA         48.9910   42.6510   47.4210 C.3       6 GLP5        0.0000 
    102 CA         46.3727   46.8585   46.0720 C.3       3 GLC5        0.0000 
    103 CA         46.5060   48.1270   44.9030 C.3       6 GLP5        0.0000 
    104 CA         42.4657   44.6412   47.4653 C.3       3 GLC5        0.0000 
    105 CA         43.8370   45.8040   46.4970 C.3       9 GLL5        0.0000 
    106 CA         41.1160   43.3270   47.7670 C.3       6 GLP5        0.0000 
    107 CA         45.1608   47.0413   46.0333 C.3       3 GLC5        0.0000 
    108 CA         43.7940   46.1070   47.8300 C.3       9 GLL5        0.0000 
    109 CA         44.2416   44.3088   47.4114 C.3       3 GLC5        0.0000 
@<TRIPOS>BOND
@<TRIPOS>SUBSTRUCTURE
     1 SEC2        1 GROUP        1 X    SEC  0     ROOT SEC X 2
     2 LYC4       68 GROUP        1 X    LYC  0     **** LYC X 4
     3 GLC5        8 GROUP        1 X    GLC  0     **** GLC X 6
     4 SEP2        3 GROUP        1 Y    SEP  0     ROOT SEP Y 9
     5 LYP4       70 GROUP        1 Y    LYP  0     **** LYP Y 11
     6 GLP5       10 GROUP        1 Y    GLP  0     **** GLP Y 13
     7 SEL2        2 GROUP        1 Z    SEL  0     ROOT SEL Z 16
     8 LYL4       69 GROUP        1 Z    LYL  0     **** LYL Z 18
     9 GLL5        9 GROUP        1 Z    GLL  0     **** GLL Z 20
@<TRIPOS>SET

