#    Name: 1ez0_NAP_1_ligand
#    Modification time : Tue Mar 25 00:25:39 2014

@<TRIPOS>MOLECULE
1ez0_NAP_1_ligand
   73    77     1     0     0
SMALL
NO_CHARGES


@<TRIPOS>ATOM
      1 PA         42.9580   45.3590   55.9510 P.3       1 NAP650      0.0000 
      2 O1A        44.3630   44.8820   55.9120 O.co2     1 NAP650      0.0000 
      3 O2A        42.6660   46.1980   57.1520 O.co2     1 NAP650      0.0000 
      4 O5B        41.9160   44.1070   55.9710 O.3       1 NAP650      0.0000 
      5 C5B        42.0210   43.0770   54.9160 C.3       1 NAP650      0.0000 
      6 C4B        41.4260   41.7540   55.5490 C.3       1 NAP650      0.0000 
      7 O4B        42.3410   41.2580   56.5350 O.3       1 NAP650      0.0000 
      8 C3B        40.0290   41.9360   56.2330 C.3       1 NAP650      0.0000 
      9 O3B        39.2020   40.8390   55.9180 O.3       1 NAP650      0.0000 
     10 C2B        40.4480   42.0450   57.7600 C.3       1 NAP650      0.0000 
     11 O2B        39.5030   41.6010   58.7020 O.3       1 NAP650      0.0000 
     12 C1B        41.6600   41.1360   57.7800 C.3       1 NAP650      0.0000 
     13 N9A        42.6220   41.4660   58.7880 N.pl3     1 NAP650      0.0000 
     14 C8A        43.4400   42.5710   58.8410 C.2       1 NAP650      0.0000 
     15 N7A        44.0380   42.6940   60.0000 N.2       1 NAP650      0.0000 
     16 C5A        43.9340   41.4410   60.5170 C.ar      1 NAP650      0.0000 
     17 C6A        44.5040   40.8680   61.7000 C.ar      1 NAP650      0.0000 
     18 N6A        45.5930   41.4290   62.2370 N.pl3     1 NAP650      0.0000 
     19 N1A        43.9040   39.7260   62.2070 N.ar      1 NAP650      0.0000 
     20 C2A        42.8810   39.1240   61.4690 C.ar      1 NAP650      0.0000 
     21 N3A        42.3160   39.5810   60.3490 N.ar      1 NAP650      0.0000 
     22 C4A        42.9530   40.7080   59.8870 C.ar      1 NAP650      0.0000 
     23 O3         42.5660   46.1280   54.6830 O.3       1 NAP650      0.0000 
     24 PN         41.4980   47.1540   54.0940 P.3       1 NAP650      0.0000 
     25 O1N        40.7720   47.8240   55.1970 O.co2     1 NAP650      0.0000 
     26 O2N        40.5980   46.5460   53.0870 O.co2     1 NAP650      0.0000 
     27 O5D        42.4530   48.2710   53.3190 O.3       1 NAP650      0.0000 
     28 C5D        42.5240   48.2610   51.8630 C.3       1 NAP650      0.0000 
     29 C4D        44.0000   47.9800   51.5340 C.3       1 NAP650      0.0000 
     30 O4D        44.0470   46.9040   50.5750 O.3       1 NAP650      0.0000 
     31 C3D        44.6990   49.1960   50.8540 C.3       1 NAP650      0.0000 
     32 O3D        45.8690   49.5300   51.6020 O.3       1 NAP650      0.0000 
     33 C2D        45.0000   48.6230   49.4220 C.3       1 NAP650      0.0000 
     34 O2D        46.1930   49.1950   48.8600 O.3       1 NAP650      0.0000 
     35 C1D        45.1540   47.1280   49.7170 C.3       1 NAP650      0.0000 
     36 N1N        45.0360   46.2620   48.4900 N.pl3     1 NAP650      0.0000 
     37 C2N        46.2790   45.8270   47.9090 C.ar      1 NAP650      0.0000 
     38 C3N        46.2000   45.3530   46.5730 C.ar      1 NAP650      0.0000 
     39 C7N        47.5440   44.9480   45.8840 C.2       1 NAP650      0.0000 
     40 O7N        47.5070   43.9960   45.1060 O.2       1 NAP650      0.0000 
     41 N7N        48.6970   45.4790   46.4210 N.am      1 NAP650      0.0000 
     42 C4N        44.9720   45.2480   45.7900 C.ar      1 NAP650      0.0000 
     43 C5N        43.8370   45.8040   46.4970 C.ar      1 NAP650      0.0000 
     44 C6N        43.7940   46.1070   47.8300 C.ar      1 NAP650      0.0000 
     45 P2B        38.2090   42.6670   59.0860 P.3       1 NAP650      0.0000 
     46 O1X        37.3020   42.2610   57.9450 O.co2     1 NAP650      0.0000 
     47 O2X        37.8090   42.1690   60.4330 O.co2     1 NAP650      0.0000 
     48 O3X        38.7430   44.0140   59.0620 O.co2     1 NAP650      0.0000 
     49 H          43.0375   42.8796   54.6545 H         1 NAP650      0.0000 
     50 H          41.4265   43.3212   54.0630 H         1 NAP650      0.0000 
     51 H          41.3100   41.0334   54.7476 H         1 NAP650      0.0000 
     52 H          39.6726   42.8867   55.9381 H         1 NAP650      0.0000 
     53 H          40.8048   43.0414   57.9041 H         1 NAP650      0.0000 
     54 H          41.3197   40.1136   57.9017 H         1 NAP650      0.0000 
     55 H          43.5420   43.1861   58.0666 H         1 NAP650      0.0000 
     56 H          45.9513   40.9926   63.0624 H         1 NAP650      0.0000 
     57 H          45.9513   42.2345   61.7650 H         1 NAP650      0.0000 
     58 H          42.5214   38.1797   61.8708 H         1 NAP650      0.0000 
     59 H          42.2605   49.2143   51.4472 H         1 NAP650      0.0000 
     60 H          41.9282   47.4738   51.4429 H         1 NAP650      0.0000 
     61 H          44.5273   47.7333   52.4166 H         1 NAP650      0.0000 
     62 H          43.9857   49.9558   50.7618 H         1 NAP650      0.0000 
     63 H          44.1273   48.7607   48.8444 H         1 NAP650      0.0000 
     64 H          46.0666   46.9764   50.2197 H         1 NAP650      0.0000 
     65 H          47.1238   45.8598   48.4130 H         1 NAP650      0.0000 
     66 H          49.5492   45.2426   45.9543 H         1 NAP650      0.0000 
     67 H          48.5809   46.0544   47.2306 H         1 NAP650      0.0000 
     68 H          44.9295   44.8622   44.9256 H         1 NAP650      0.0000 
     69 H          42.9741   45.9815   45.8985 H         1 NAP650      0.0000 
     70 H          42.9324   46.2190   48.3374 H         1 NAP650      0.0000 
     71 H          38.3773   41.2423   55.5216 H         1 NAP650      0.0000 
     72 H          45.6390   50.3797   52.0764 H         1 NAP650      0.0000 
     73 H          46.6957   49.5643   49.6416 H         1 NAP650      0.0000 
@<TRIPOS>BOND
     1    2    1 ar   
     2    3    1 ar   
     3    4    1 1    
     4   23    1 1    
     5    5    4 1    
     6    6    5 1    
     7   49    5 1    
     8   50    5 1    
     9    7    6 1    
    10    8    6 1    
    11   51    6 1    
    12   12    7 1    
    13    9    8 1    
    14   10    8 1    
    15   52    8 1    
    16   71    9 1    
    17   11   10 1    
    18   12   10 1    
    19   53   10 1    
    20   45   11 1    
    21   13   12 1    
    22   54   12 1    
    23   14   13 1    
    24   22   13 1    
    25   15   14 2    
    26   55   14 1    
    27   16   15 1    
    28   17   16 ar   
    29   22   16 ar   
    30   18   17 1    
    31   19   17 ar   
    32   56   18 1    
    33   57   18 1    
    34   20   19 ar   
    35   21   20 ar   
    36   58   20 1    
    37   22   21 ar   
    38   24   23 1    
    39   25   24 ar   
    40   26   24 ar   
    41   27   24 1    
    42   28   27 1    
    43   29   28 1    
    44   59   28 1    
    45   60   28 1    
    46   30   29 1    
    47   31   29 1    
    48   61   29 1    
    49   35   30 1    
    50   32   31 1    
    51   33   31 1    
    52   62   31 1    
    53   72   32 1    
    54   34   33 1    
    55   35   33 1    
    56   63   33 1    
    57   73   34 1    
    58   36   35 1    
    59   64   35 1    
    60   37   36 ar   
    61   44   36 ar   
    62   38   37 ar   
    63   65   37 1    
    64   39   38 1    
    65   42   38 ar   
    66   40   39 2    
    67   41   39 am   
    68   66   41 1    
    69   67   41 1    
    70   43   42 ar   
    71   68   42 1    
    72   44   43 ar   
    73   69   43 1    
    74   70   44 1    
    75   46   45 ar   
    76   47   45 ar   
    77   48   45 ar   
@<TRIPOS>SUBSTRUCTURE
     1 NAP650      1 GROUP   
@<TRIPOS>SET

