#    Name: 3r6p_A8S_1_INTS_M
#    Modification time : Tue Mar 25 11:04:54 2014

@<TRIPOS>MOLECULE
3r6p_A8S_1_INTS_M
   57     0     9     0     0
SMALL
NO_CHARGES


@<TRIPOS>ATOM
      1 CA        -23.0255   25.2645  -14.6100 C.3       3 GLC5        0.0000 
      2 CA        -22.9780   26.2300  -12.7790 C.3       9 GLL5        0.0000 
      3 CA        -23.0730   24.2990  -16.4410 C.3       6 GLP5        0.0000 
      4 CA        -23.9075   30.6960  -12.8395 C.3       3 GLC5        0.0000 
      5 CA        -21.9260   30.0510  -12.2310 C.3       9 GLL5        0.0000 
      6 CA        -25.8890   31.3410  -13.4480 C.3       6 GLP5        0.0000 
      7 CA        -21.1000   30.3765  -14.0190 C.3       3 GLC5        0.0000 
      8 CA        -20.2740   30.7020  -15.8070 C.3       6 GLP5        0.0000 
      9 CA        -24.6235   29.8815  -13.8335 C.3       3 GLC5        0.0000 
     10 CA        -23.3580   28.4220  -14.2190 C.3       9 GLL5        0.0000 
     11 CA        -25.3260   27.9250  -14.1890 C.3       3 GLC5        0.0000 
     12 CA        -27.2940   27.4280  -14.1590 C.3       6 GLP5        0.0000 
     13 CA        -24.3160   28.1290  -15.7740 C.3       3 GLC5        0.0000 
     14 CA        -25.2740   27.8360  -17.3290 C.3       6 GLP5        0.0000 
     15 CA        -21.8160   29.5620  -15.0130 C.3       3 GLC5        0.0000 
     16 CA        -18.0960   32.9720  -12.0485 C.3       3 GLC5        0.0000 
     17 CA        -20.1490   32.6050  -12.4390 C.3       9 GLL5        0.0000 
     18 CA        -16.0430   33.3390  -11.6580 C.3       6 GLP5        0.0000 
     19 CA        -23.3175   34.3355  -11.3295 C.3       3 GLC5        0.0000 
     20 CA        -22.4930   32.8310  -11.9240 C.3       9 GLL5        0.0000 
     21 CA        -24.1420   35.8400  -10.7350 C.3       6 GLP5        0.0000 
     22 CA        -24.1910   32.0860  -12.6860 C.3       3 GLC5        0.0000 
     23 NZ        -22.0495   23.8475  -10.0700 N.4       2 LYC4        0.0000 
     24 NZ        -22.4650   24.4430  -11.2420 N.4       8 LYL4        0.0000 
     25 NZ        -21.6340   23.2520   -8.8980 N.4       5 LYP4        0.0000 
     26 N         -22.0495   23.8475  -10.0700 N.am      1 SEC2        0.0000 
     27 N         -22.4650   24.4430  -11.2420 N.am      7 SEL2        0.0000 
     28 N         -21.6340   23.2520   -8.8980 N.am      4 SEP2        0.0000 
     29 NZ        -21.7040   24.8370   -9.7980 N.4       2 LYC4        0.0000 
     30 NZ        -21.7740   26.4220  -10.6980 N.4       8 LYL4        0.0000 
     31 CA        -17.0495   30.1455  -11.6625 C.3       3 GLC5        0.0000 
     32 CA        -18.9080   30.6380  -11.8220 C.3       9 GLL5        0.0000 
     33 CA        -15.1910   29.6530  -11.5030 C.3       6 GLP5        0.0000 
     34 CA        -17.4755   31.9885  -11.7400 C.3       3 GLC5        0.0000 
     35 CA        -20.1945   33.2500   -8.7160 C.3       3 GLC5        0.0000 
     36 CA        -21.4120   32.7030   -9.6850 C.3       9 GLL5        0.0000 
     37 CA        -18.9770   33.7970   -7.7470 C.3       6 GLP5        0.0000 
     38 CA        -20.9685   34.6045   -9.6570 C.3       3 GLC5        0.0000 
     39 CA        -20.5250   36.5060   -9.6290 C.3       6 GLP5        0.0000 
     40 CA        -22.2625   32.3020   -7.7750 C.3       3 GLC5        0.0000 
     41 CA        -23.1130   31.9010   -5.8650 C.3       6 GLP5        0.0000 
     42 CA        -22.7770   34.2715  -10.2100 C.3       3 GLC5        0.0000 
     43 CA        -23.2685   31.6045   -8.0265 C.3       3 GLC5        0.0000 
     44 CA        -23.4240   31.3080  -10.1880 C.3       9 GLL5        0.0000 
     45 CA        -24.7345   30.2530   -9.8520 C.3       3 GLC5        0.0000 
     46 CA        -26.0450   29.1980   -9.5160 C.3       6 GLP5        0.0000 
     47 CA        -24.6565   31.3245  -11.8180 C.3       3 GLC5        0.0000 
     48 CA        -24.9173   26.6775  -13.1040 C.3       3 GLC5        0.0000 
     49 CA        -22.7930   27.7360  -12.9730 C.3       9 GLL5        0.0000 
     50 CA        -26.9490   26.3720  -13.3320 C.3       6 GLP5        0.0000 
     51 CA        -23.9237   33.3180  -10.1855 C.3       3 GLC5        0.0000 
     52 CA        -22.1430   31.9100  -10.7700 C.3       9 GLL5        0.0000 
     53 CA        -25.0640   35.0270   -9.8920 C.3       6 GLP5        0.0000 
     54 CA        -18.8490   31.2866  -10.1247 C.3       3 GLC5        0.0000 
     55 CA        -21.2450   30.7970  -11.2760 C.3       9 GLL5        0.0000 
     56 CA        -17.9070   31.7180   -8.5580 C.3       6 GLP5        0.0000 
     57 CA        -19.8955   31.0046  -13.8946 C.3       3 GLC5        0.0000 
@<TRIPOS>BOND
@<TRIPOS>SUBSTRUCTURE
     1 SEC2       26 GROUP        1 X    SEC  0     ROOT SEC X 2
     2 LYC4       23 GROUP        1 X    LYC  0     **** LYC X 4
     3 GLC5        1 GROUP        1 X    GLC  0     **** GLC X 6
     4 SEP2       28 GROUP        1 Y    SEP  0     ROOT SEP Y 9
     5 LYP4       25 GROUP        1 Y    LYP  0     **** LYP Y 11
     6 GLP5        3 GROUP        1 Y    GLP  0     **** GLP Y 13
     7 SEL2       27 GROUP        1 Z    SEL  0     ROOT SEL Z 16
     8 LYL4       24 GROUP        1 Z    LYL  0     **** LYL Z 18
     9 GLL5        2 GROUP        1 Z    GLL  0     **** GLL Z 20
@<TRIPOS>SET

