#    Name: 3r6p_A8S_1_ligand
#    Modification time : Tue Mar 25 11:04:54 2014

@<TRIPOS>MOLECULE
3r6p_A8S_1_ligand
   38    38     1     0     0
SMALL
NO_CHARGES


@<TRIPOS>ATOM
      1 C1        -22.3690   25.6640  -11.4950 C.2       1 A8S192      0.0000 
      2 C2        -22.9780   26.2300  -12.7790 C.2       1 A8S192      0.0000 
      3 C3        -22.7930   27.7360  -12.9730 C.2       1 A8S192      0.0000 
      4 C4        -22.0440   28.5570  -11.9220 C.2       1 A8S192      0.0000 
      5 C5        -21.9260   30.0510  -12.2310 C.2       1 A8S192      0.0000 
      6 C6        -23.3580   28.4220  -14.2190 C.3       1 A8S192      0.0000 
      7 C7        -21.2450   30.7970  -11.2760 C.3       1 A8S192      0.0000 
      8 O7        -20.8730   29.9500  -10.1860 O.3       1 A8S192      0.0000 
      9 C8        -20.1030   31.3480  -11.8460 C.2       1 A8S192      0.0000 
     10 C9        -20.1490   32.6050  -12.4390 C.2       1 A8S192      0.0000 
     11 C10       -21.3270   33.3440  -12.4810 C.2       1 A8S192      0.0000 
     12 O10       -21.3250   34.4520  -13.0150 O.2       1 A8S192      0.0000 
     13 C11       -22.4930   32.8310  -11.9240 C.3       1 A8S192      0.0000 
     14 O11       -22.4650   24.4430  -11.2420 O.co2     1 A8S192      0.0000 
     15 C12       -22.1430   31.9100  -10.7700 C.3       1 A8S192      0.0000 
     16 O12       -21.7740   26.4220  -10.6980 O.co2     1 A8S192      0.0000 
     17 C13       -18.9080   30.6380  -11.8220 C.3       1 A8S192      0.0000 
     18 C14       -21.4120   32.7030   -9.6850 C.3       1 A8S192      0.0000 
     19 C15       -23.4240   31.3080  -10.1880 C.3       1 A8S192      0.0000 
     20 H         -23.4339   25.6903  -13.4049 H         1 A8S192      0.0000 
     21 H         -21.6813   28.1709  -11.1406 H         1 A8S192      0.0000 
     22 H         -22.3210   30.3868  -13.0521 H         1 A8S192      0.0000 
     23 H         -19.2863   33.0006  -12.8593 H         1 A8S192      0.0000 
     24 H         -23.0835   32.2449  -12.6458 H         1 A8S192      0.0000 
     25 H         -23.1539   33.6183  -11.5284 H         1 A8S192      0.0000 
     26 H         -23.1670   29.4036  -14.2213 H         1 A8S192      0.0000 
     27 H         -22.9680   28.0455  -15.0593 H         1 A8S192      0.0000 
     28 H         -24.3503   28.3163  -14.2834 H         1 A8S192      0.0000 
     29 H         -18.1659   31.1450  -12.2605 H         1 A8S192      0.0000 
     30 H         -18.6138   30.4376  -10.8875 H         1 A8S192      0.0000 
     31 H         -18.9866   29.7625  -12.2987 H         1 A8S192      0.0000 
     32 H         -21.1612   32.1254   -8.9081 H         1 A8S192      0.0000 
     33 H         -20.5677   33.1131  -10.0299 H         1 A8S192      0.0000 
     34 H         -21.9747   33.4480   -9.3267 H         1 A8S192      0.0000 
     35 H         -23.2311   30.6910   -9.4251 H         1 A8S192      0.0000 
     36 H         -24.0434   32.0140   -9.8446 H         1 A8S192      0.0000 
     37 H         -23.9301   30.7808  -10.8706 H         1 A8S192      0.0000 
     38 H         -20.6751   29.0630  -10.6034 H         1 A8S192      0.0000 
@<TRIPOS>BOND
     1    2    1 1    
     2   14    1 ar   
     3   16    1 ar   
     4    3    2 2    
     5   20    2 1    
     6    4    3 1    
     7    6    3 1    
     8    5    4 2    
     9   21    4 1    
    10    7    5 1    
    11   22    5 1    
    12   26    6 1    
    13   27    6 1    
    14   28    6 1    
    15    8    7 1    
    16    9    7 1    
    17   15    7 1    
    18   38    8 1    
    19   10    9 2    
    20   17    9 1    
    21   11   10 1    
    22   23   10 1    
    23   12   11 2    
    24   13   11 1    
    25   15   13 1    
    26   24   13 1    
    27   25   13 1    
    28   18   15 1    
    29   19   15 1    
    30   29   17 1    
    31   30   17 1    
    32   31   17 1    
    33   32   18 1    
    34   33   18 1    
    35   34   18 1    
    36   35   19 1    
    37   36   19 1    
    38   37   19 1    
@<TRIPOS>SUBSTRUCTURE
     1 A8S192      1 GROUP   
@<TRIPOS>SET

