#    Name: 2z6c_FMN_1_INTS_M
#    Modification time : Tue Mar 25 10:16:22 2014

@<TRIPOS>MOLECULE
2z6c_FMN_1_INTS_M
   83     0    12     0     0
SMALL
NO_CHARGES


@<TRIPOS>ATOM
      1 N          64.9330   33.9810   -2.1845 N.am      2 SEC2        0.0000 
      2 N          64.0130   33.5560   -3.4280 N.am     10 SEL2        0.0000 
      3 N          65.8530   34.4060   -0.9410 N.am      6 SEP2        0.0000 
      4 N          65.0060   35.0705   -1.9370 N.am      2 SEC2        0.0000 
      5 N          64.1590   35.7350   -2.9330 N.am     10 SEL2        0.0000 
      6 N          63.8510   37.1420   -3.1115 N.am      2 SEC2        0.0000 
      7 N          63.5430   38.5490   -3.2900 N.am      6 SEP2        0.0000 
      8 O          63.1095   36.6645   -5.1650 O.2       1 ALC1        0.0000 
      9 O          63.2530   35.2920   -4.9290 O.2       9 ALL1        0.0000 
     10 O          62.9660   38.0370   -5.4010 O.2       5 ALP1        0.0000 
     11 N          61.4980   35.9100   -6.8125 N.am      2 SEC2        0.0000 
     12 N          62.3300   34.7010   -6.9450 N.am     10 SEL2        0.0000 
     13 N          60.6660   37.1190   -6.6800 N.am      6 SEP2        0.0000 
     14 N          62.2350   34.0340   -8.1505 N.am      2 SEC2        0.0000 
     15 N          62.1400   33.3670   -9.3560 N.am      6 SEP2        0.0000 
     16 N          62.4255   32.7035   -7.9250 N.am      2 SEC2        0.0000 
     17 N          62.7110   32.0400   -6.4940 N.am     10 SEL2        0.0000 
     18 CA         61.0670   31.7360   -6.2480 C.3       4 GLC5        0.0000 
     19 CA         62.8920   30.7020   -6.1900 C.3      12 GLL5        0.0000 
     20 CA         59.2420   32.7700   -6.3060 C.3       8 GLP5        0.0000 
     21 CA         63.9670   26.2970   -8.2535 C.3       4 GLC5        0.0000 
     22 CA         62.3190   27.3510   -7.8500 C.3      12 GLL5        0.0000 
     23 CA         65.6150   25.2430   -8.6570 C.3       8 GLP5        0.0000 
     24 CA         61.7530   25.5330   -7.3950 C.3       4 GLC5        0.0000 
     25 CA         61.1870   23.7150   -6.9400 C.3       8 GLP5        0.0000 
     26 CA         60.8110   26.5280   -9.1515 C.3       4 GLC5        0.0000 
     27 CA         59.3030   25.7050  -10.4530 C.3       8 GLP5        0.0000 
     28 CA         64.6605   25.9065   -6.9510 C.3       4 GLC5        0.0000 
     29 CA         63.7060   26.5700   -5.2450 C.3      12 GLL5        0.0000 
     30 CA         65.5650   25.6675   -4.8040 C.3       4 GLC5        0.0000 
     31 CA         67.4240   24.7650   -4.3630 C.3       8 GLP5        0.0000 
     32 CA         62.8425   25.7175   -3.8480 C.3       4 GLC5        0.0000 
     33 CA         61.9790   24.8650   -2.4510 C.3       8 GLP5        0.0000 
     34 CA         62.4465   25.1425   -6.0925 C.3       4 GLC5        0.0000 
     35 CA         63.0415   29.8885   -1.4635 C.3       4 GLC5        0.0000 
     36 CA         64.1810   30.9320   -2.6250 C.3      12 GLL5        0.0000 
     37 CA         61.9020   28.8450   -0.3020 C.3       8 GLP5        0.0000 
     38 CA         66.0145   31.4290   -4.4720 C.3       4 GLC5        0.0000 
     39 CA         65.7170   30.8170   -2.4390 C.3      12 GLL5        0.0000 
     40 CA         66.3120   32.0410   -6.5050 C.3       8 GLP5        0.0000 
     41 O          67.6930   30.2865   -3.3920 O.2       1 ALC1        0.0000 
     42 O          66.3520   30.2850   -3.5880 O.2       9 ALL1        0.0000 
     43 O          69.0340   30.2880   -3.1960 O.2       5 ALP1        0.0000 
     44 N          66.1175   33.1410   -0.3480 N.am      2 SEC2        0.0000 
     45 N          66.3820   31.8760    0.2450 N.am     10 SEL2        0.0000 
     46 CA         65.4460   28.6980    2.6045 C.3       4 GLC5        0.0000 
     47 CA         65.5710   29.8940    1.3470 C.3      12 GLL5        0.0000 
     48 CA         65.3210   27.5020    3.8620 C.3       8 GLP5        0.0000 
     49 NZ         69.5965   31.0550    0.6930 N.4       3 LYC4        0.0000 
     50 NZ         68.3960   31.1310    1.5700 N.4      11 LYL4        0.0000 
     51 NZ         71.1930   29.7770   -0.5950 N.4       7 LYP4        0.0000 
     52 N          69.5965   31.0550    0.6930 N.am      2 SEC2        0.0000 
     53 N          68.3960   31.1310    1.5700 N.am     10 SEL2        0.0000 
     54 N          70.7970   30.9790   -0.1840 N.am      6 SEP2        0.0000 
     55 NZ         69.8585   28.7520    1.1210 N.4       3 LYC4        0.0000 
     56 NZ         69.1080   28.8250    2.3640 N.4      11 LYL4        0.0000 
     57 N          69.8585   28.7520    1.1210 N.am      2 SEC2        0.0000 
     58 N          69.1080   28.8250    2.3640 N.am     10 SEL2        0.0000 
     59 N          70.6090   28.6790   -0.1220 N.am      6 SEP2        0.0000 
     60 NZ         66.8945   30.1610    4.8175 N.4       3 LYC4        0.0000 
     61 NZ         67.5480   30.2250    3.6530 N.4      11 LYL4        0.0000 
     62 NZ         65.8760   29.0490    6.7390 N.4       7 LYP4        0.0000 
     63 N          66.8945   30.1610    4.8175 N.am      2 SEC2        0.0000 
     64 N          67.5480   30.2250    3.6530 N.am     10 SEL2        0.0000 
     65 N          66.2410   30.0970    5.9820 N.am      6 SEP2        0.0000 
     66 CA         63.1095   30.0332   -8.5985 C.3       4 GLC5        0.0000 
     67 CA         63.5120   29.8600  -10.5430 C.3       8 GLP5        0.0000 
     68 CA         61.5425   29.9158   -4.7225 C.3       4 GLC5        0.0000 
     69 CA         59.9180   29.3180   -3.8690 C.3       8 GLP5        0.0000 
     70 CA         60.8040   29.0098   -6.0340 C.3       4 GLC5        0.0000 
     71 CA         62.5220   29.7110   -7.1180 C.3      12 GLL5        0.0000 
     72 CA         58.9840   28.9830   -5.0980 C.3       8 GLP5        0.0000 
     73 CA         63.0173   28.8582   -8.9395 C.3       4 GLC5        0.0000 
     74 CA         64.2937   30.2386   -7.3400 C.3       4 GLC5        0.0000 
     75 CA         65.8710   31.1930   -7.9420 C.3       8 GLP5        0.0000 
     76 CA         60.8197   28.7344   -8.2875 C.3       4 GLC5        0.0000 
     77 CA         59.1680   29.2750   -9.1650 C.3       8 GLP5        0.0000 
     78 CA         61.6788   28.9010   -4.5025 C.3       4 GLC5        0.0000 
     79 CA         63.2580   27.9900   -5.5840 C.3      12 GLL5        0.0000 
     80 CA         64.9218   30.8462   -5.6650 C.3       4 GLC5        0.0000 
     81 CA         63.6210   28.9780   -4.6880 C.3      12 GLL5        0.0000 
     82 CA         63.7933   29.4816    0.0426 C.3       4 GLC5        0.0000 
     83 CA         66.0250   29.9590   -1.2050 C.3      12 GLL5        0.0000 
@<TRIPOS>BOND
@<TRIPOS>SUBSTRUCTURE
     1 ALC1        8 GROUP        1 X    ALC  0     ROOT ALC X 1
     2 SEC2        1 GROUP        1 X    SEC  0     **** SEC X 2
     3 LYC4       49 GROUP        1 X    LYC  0     **** LYC X 4
     4 GLC5       18 GROUP        1 X    GLC  0     **** GLC X 6
     5 ALP1       10 GROUP        1 Y    ALP  0     ROOT ALP Y 8
     6 SEP2        3 GROUP        1 Y    SEP  0     **** SEP Y 9
     7 LYP4       51 GROUP        1 Y    LYP  0     **** LYP Y 11
     8 GLP5       20 GROUP        1 Y    GLP  0     **** GLP Y 13
     9 ALL1        9 GROUP        1 Z    ALL  0     ROOT ALL Z 15
    10 SEL2        2 GROUP        1 Z    SEL  0     **** SEL Z 16
    11 LYL4       50 GROUP        1 Z    LYL  0     **** LYL Z 18
    12 GLL5       19 GROUP        1 Z    GLL  0     **** GLL Z 20
@<TRIPOS>SET

