#    Name: 2z6c_FMN_1_ligand
#    Modification time : Tue Mar 25 10:16:22 2014

@<TRIPOS>MOLECULE
2z6c_FMN_1_ligand
   50    52     1     0     0
SMALL
NO_CHARGES


@<TRIPOS>ATOM
      1 N1         64.0130   33.5560   -3.4280 N.2       1 FMN500      0.0000 
      2 C2         63.8360   34.8970   -3.7510 C.2       1 FMN500      0.0000 
      3 O2         64.1590   35.7350   -2.9330 O.2       1 FMN500      0.0000 
      4 N3         63.2530   35.2920   -4.9290 N.am      1 FMN500      0.0000 
      5 C4         62.8940   34.3540   -5.8860 C.2       1 FMN500      0.0000 
      6 O4         62.3300   34.7010   -6.9450 O.2       1 FMN500      0.0000 
      7 C4A        63.0760   33.0130   -5.5760 C.2       1 FMN500      0.0000 
      8 N5         62.7110   32.0400   -6.4940 N.2       1 FMN500      0.0000 
      9 C5A        62.8920   30.7020   -6.1900 C.ar      1 FMN500      0.0000 
     10 C6         62.5220   29.7110   -7.1180 C.ar      1 FMN500      0.0000 
     11 C7         62.7260   28.3620   -6.8220 C.ar      1 FMN500      0.0000 
     12 C7M        62.3190   27.3510   -7.8500 C.3       1 FMN500      0.0000 
     13 C8         63.2580   27.9900   -5.5840 C.ar      1 FMN500      0.0000 
     14 C8M        63.7060   26.5700   -5.2450 C.3       1 FMN500      0.0000 
     15 C9         63.6210   28.9780   -4.6880 C.ar      1 FMN500      0.0000 
     16 C9A        63.4420   30.3250   -4.9620 C.ar      1 FMN500      0.0000 
     17 N10        63.7910   31.2800   -4.0290 N.pl3     1 FMN500      0.0000 
     18 C10        63.6070   32.6270   -4.3390 C.2       1 FMN500      0.0000 
     19 C1'        64.1810   30.9320   -2.6250 C.3       1 FMN500      0.0000 
     20 C2'        65.7170   30.8170   -2.4390 C.3       1 FMN500      0.0000 
     21 O2'        66.3520   30.2850   -3.5880 O.3       1 FMN500      0.0000 
     22 C3'        66.0250   29.9590   -1.2050 C.3       1 FMN500      0.0000 
     23 O3'        65.3540   28.7000   -1.3050 O.3       1 FMN500      0.0000 
     24 C4'        65.5710   30.7260    0.0600 C.3       1 FMN500      0.0000 
     25 O4'        66.3820   31.8760    0.2450 O.3       1 FMN500      0.0000 
     26 C5'        65.5710   29.8940    1.3470 C.3       1 FMN500      0.0000 
     27 O5'        66.7900   29.1510    1.4890 O.3       1 FMN500      0.0000 
     28 P          68.0140   29.8500    2.3140 P.3       1 FMN500      0.0000 
     29 O1P        68.3960   31.1310    1.5700 O.co2     1 FMN500      0.0000 
     30 O2P        69.1080   28.8250    2.3640 O.co2     1 FMN500      0.0000 
     31 O3P        67.5480   30.2250    3.6530 O.co2     1 FMN500      0.0000 
     32 H          63.0771   36.2959   -5.1110 H         1 FMN500      0.0000 
     33 H          62.1019   29.9854   -8.0125 H         1 FMN500      0.0000 
     34 H          64.0448   28.7019   -3.7728 H         1 FMN500      0.0000 
     35 H          63.7310   29.9735   -2.3343 H         1 FMN500      0.0000 
     36 H          63.8110   31.6968   -1.9293 H         1 FMN500      0.0000 
     37 H          66.0822   31.8282   -2.2199 H         1 FMN500      0.0000 
     38 H          67.0954   29.8379   -1.1466 H         1 FMN500      0.0000 
     39 H          64.5260   31.0449   -0.1191 H         1 FMN500      0.0000 
     40 H          64.6940   29.2282    1.3129 H         1 FMN500      0.0000 
     41 H          65.4193   30.5860    2.1906 H         1 FMN500      0.0000 
     42 H          62.8073   27.4814   -8.7129 H         1 FMN500      0.0000 
     43 H          62.5053   26.4167   -7.5461 H         1 FMN500      0.0000 
     44 H          61.3417   27.4030   -8.0555 H         1 FMN500      0.0000 
     45 H          64.4329   26.2543   -5.8549 H         1 FMN500      0.0000 
     46 H          64.0579   26.5045   -4.3112 H         1 FMN500      0.0000 
     47 H          62.9541   25.9151   -5.3215 H         1 FMN500      0.0000 
     48 H          67.2029   29.8824   -3.2503 H         1 FMN500      0.0000 
     49 H          66.0083   28.0296   -0.9550 H         1 FMN500      0.0000 
     50 H          67.3140   31.5241    0.3319 H         1 FMN500      0.0000 
@<TRIPOS>BOND
     1    2    1 1    
     2   18    1 2    
     3    3    2 2    
     4    4    2 am   
     5    5    4 am   
     6   32    4 1    
     7    6    5 2    
     8    7    5 1    
     9    8    7 2    
    10   18    7 1    
    11    9    8 1    
    12   10    9 ar   
    13   16    9 ar   
    14   11   10 ar   
    15   33   10 1    
    16   12   11 1    
    17   13   11 ar   
    18   42   12 1    
    19   43   12 1    
    20   44   12 1    
    21   14   13 1    
    22   15   13 ar   
    23   45   14 1    
    24   46   14 1    
    25   47   14 1    
    26   16   15 ar   
    27   34   15 1    
    28   17   16 1    
    29   18   17 1    
    30   19   17 1    
    31   20   19 1    
    32   35   19 1    
    33   36   19 1    
    34   21   20 1    
    35   22   20 1    
    36   37   20 1    
    37   48   21 1    
    38   23   22 1    
    39   24   22 1    
    40   38   22 1    
    41   49   23 1    
    42   25   24 1    
    43   26   24 1    
    44   39   24 1    
    45   50   25 1    
    46   27   26 1    
    47   40   26 1    
    48   41   26 1    
    49   28   27 1    
    50   29   28 ar   
    51   30   28 ar   
    52   31   28 ar   
@<TRIPOS>SUBSTRUCTURE
     1 FMN500      1 GROUP   
@<TRIPOS>SET

