#    Name: 4gfg_0XF_1_INTS_M
#    Modification time : Mon Mar 24 22:09:50 2014

@<TRIPOS>MOLECULE
4gfg_0XF_1_INTS_M
   62     0    12     0     0
SMALL
NO_CHARGES


@<TRIPOS>ATOM
      1 CA          6.2365    0.5205   13.8970 C.3       4 GLC5        0.0000 
      2 CA          4.4400    0.3470   15.0850 C.3      12 GLL5        0.0000 
      3 CA          8.0330    0.6940   12.7090 C.3       8 GLP5        0.0000 
      4 CA          1.9525   -3.8165   16.0255 C.3       4 GLC5        0.0000 
      5 CA          0.5030   -2.4220   15.8580 C.3      12 GLL5        0.0000 
      6 CA          3.4020   -5.2110   16.1930 C.3       8 GLP5        0.0000 
      7 CA          2.2390    4.3460    9.2875 C.3       4 GLC5        0.0000 
      8 CA          1.1530    4.3890   11.0610 C.3      12 GLL5        0.0000 
      9 CA          3.3250    4.3030    7.5140 C.3       8 GLP5        0.0000 
     10 CA         -2.1270    3.4250   14.7320 C.3       4 GLC5        0.0000 
     11 CA         -1.0170    4.2100   13.1210 C.3      12 GLL5        0.0000 
     12 CA         -3.2370    2.6400   16.3430 C.3       8 GLP5        0.0000 
     13 CA          2.9735    1.4915   11.5315 C.3       4 GLC5        0.0000 
     14 CA          3.2420    2.2670   13.4420 C.3      12 GLL5        0.0000 
     15 CA          2.7050    0.7160    9.6210 C.3       8 GLP5        0.0000 
     16 O           3.4975    4.6610   12.7150 O.2       1 ALC1        0.0000 
     17 O           2.6980    3.2510   12.6310 O.2       9 ALL1        0.0000 
     18 O           4.2970    6.0710   12.7990 O.2       5 ALP1        0.0000 
     19 N           4.6310   -2.3435   17.7970 N.am      2 SEC2        0.0000 
     20 N           4.5540   -1.4920   16.5790 N.am     10 SEL2        0.0000 
     21 N           4.7080   -3.1950   19.0150 N.am      6 SEP2        0.0000 
     22 O           7.3300   -1.4780   16.7825 O.2       1 ALC1        0.0000 
     23 O           6.5140   -0.4750   16.0510 O.2       9 ALL1        0.0000 
     24 O           8.1460   -2.4810   17.5140 O.2       5 ALP1        0.0000 
     25 CA         -0.0090   -4.1500   14.0960 C.3       4 GLC5        0.0000 
     26 CA         -0.8450   -2.8400   15.6950 C.3      12 GLL5        0.0000 
     27 CA          0.8270   -5.4600   12.4970 C.3       8 GLP5        0.0000 
     28 CA          1.9045    0.0460   16.3925 C.3       4 GLC5        0.0000 
     29 CA          0.9540   -1.2860   15.1520 C.3      12 GLL5        0.0000 
     30 CA          2.8550    1.3780   17.6330 C.3       8 GLP5        0.0000 
     31 CA         -1.9320   -0.2270   11.1860 C.3       4 GLC5        0.0000 
     32 CA         -2.0320   -0.1560   13.2110 C.3      12 GLL5        0.0000 
     33 CA         -1.8320   -0.2980    9.1610 C.3       8 GLP5        0.0000 
     34 OD1         2.6590    5.6825   13.4290 O.co2     3 ASC3        0.0000 
     35 OD1         1.0210    5.2940   14.0590 O.co2    11 ASL3        0.0000 
     36 OD1         4.2970    6.0710   12.7990 O.co2     7 ASP3        0.0000 
     37 OD1         2.2820    5.6320   14.4555 O.co2     3 ASC3        0.0000 
     38 OD1         3.5430    5.9700   14.8520 O.co2     7 ASP3        0.0000 
     39 O           0.2640    5.7560   15.2090 O.2       1 ALC1        0.0000 
     40 O           1.0210    5.2940   14.0590 O.2       9 ALL1        0.0000 
     41 O          -0.4930    6.2180   16.3590 O.2       5 ALP1        0.0000 
     42 O           2.2820    5.6320   14.4555 O.2       1 ALC1        0.0000 
     43 O           3.5430    5.9700   14.8520 O.2       5 ALP1        0.0000 
     44 CA          4.7655   -1.4320   14.3117 C.3       4 GLC5        0.0000 
     45 CA          3.0620    0.2030   14.7880 C.3      12 GLL5        0.0000 
     46 CA          5.7800   -3.1390   13.6870 C.3       8 GLP5        0.0000 
     47 CA          3.3030    0.8265   16.2848 C.3       4 GLC5        0.0000 
     48 CA          2.7990   -0.3990   12.5775 C.3       4 GLC5        0.0000 
     49 CA          2.8150   -1.4980   10.7820 C.3       8 GLP5        0.0000 
     50 CA          2.8640    1.5550   15.6665 C.3       4 GLC5        0.0000 
     51 CA          2.5040    1.1970   13.9580 C.3      12 GLL5        0.0000 
     52 CA          1.9620    2.3188   10.6453 C.3       4 GLC5        0.0000 
     53 CA          1.2850    3.4540   12.2780 C.3      12 GLL5        0.0000 
     54 CA         -1.0882   -2.8442   12.7920 C.3       4 GLC5        0.0000 
     55 CA         -1.2120   -1.0050   14.1590 C.3      12 GLL5        0.0000 
     56 CA         -0.7020   -4.1170   11.0860 C.3       8 GLP5        0.0000 
     57 CA         -1.4758   -1.1447   16.4825 C.3       4 GLC5        0.0000 
     58 CA         -1.7370   -2.1380   14.8370 C.3      12 GLL5        0.0000 
     59 CA         -1.4770   -0.7180   18.4670 C.3       8 GLP5        0.0000 
     60 CA         -0.5428   -1.3382   16.9656 C.3       4 GLC5        0.0000 
     61 CA         -2.1486    0.2496   15.2893 C.3       4 GLC5        0.0000 
     62 CA         -2.5440    1.3630   16.7240 C.3       8 GLP5        0.0000 
@<TRIPOS>BOND
@<TRIPOS>SUBSTRUCTURE
     1 ALC1       16 GROUP        1 X    ALC  0     ROOT ALC X 1
     2 SEC2       19 GROUP        1 X    SEC  0     **** SEC X 2
     3 ASC3       34 GROUP        1 X    ASC  0     **** ASC X 3
     4 GLC5        1 GROUP        1 X    GLC  0     **** GLC X 6
     5 ALP1       18 GROUP        1 Y    ALP  0     ROOT ALP Y 8
     6 SEP2       21 GROUP        1 Y    SEP  0     **** SEP Y 9
     7 ASP3       36 GROUP        1 Y    ASP  0     **** ASP Y 10
     8 GLP5        3 GROUP        1 Y    GLP  0     **** GLP Y 13
     9 ALL1       17 GROUP        1 Z    ALL  0     ROOT ALL Z 15
    10 SEL2       20 GROUP        1 Z    SEL  0     **** SEL Z 16
    11 ASL3       35 GROUP        1 Z    ASL  0     **** ASL Z 17
    12 GLL5        2 GROUP        1 Z    GLL  0     **** GLL Z 20
@<TRIPOS>SET

