#    Name: 4gfg_0XF_1_ligand
#    Modification time : Mon Mar 24 22:09:50 2014

@<TRIPOS>MOLECULE
4gfg_0XF_1_ligand
   52    54     1     0     0
SMALL
NO_CHARGES


@<TRIPOS>ATOM
      1 N3          4.5710    2.3470   13.7660 N.ar      1 0XF701      0.0000 
      2 C5          4.4400    0.3470   15.0850 C.ar      1 0XF701      0.0000 
      3 C6          3.0620    0.2030   14.7880 C.ar      1 0XF701      0.0000 
      4 C8          2.5040    1.1970   13.9580 C.ar      1 0XF701      0.0000 
      5 C13        -3.1550   -2.6030   14.6860 C.3       1 0XF701      0.0000 
      6 C15         0.5030   -2.4220   15.8580 C.ar      1 0XF701      0.0000 
      7 C20        -1.2080    5.0410   11.8350 C.3       1 0XF701      0.0000 
      8 C21        -0.3230    4.5530   10.6690 C.3       1 0XF701      0.0000 
      9 C22         1.1530    4.3890   11.0610 C.3       1 0XF701      0.0000 
     10 C24         0.4730    4.0230   13.5220 C.3       1 0XF701      0.0000 
     11 C26        -1.0170    4.2100   13.1210 C.3       1 0XF701      0.0000 
     12 C1          3.2420    2.2670   13.4420 C.ar      1 0XF701      0.0000 
     13 N2          2.6980    3.2510   12.6310 N.pl3     1 0XF701      0.0000 
     14 N4          5.1870    1.3860   14.5900 N.ar      1 0XF701      0.0000 
     15 N7          2.2980   -0.8720   15.3220 N.pl3     1 0XF701      0.0000 
     16 C9          5.1610   -0.6200   15.9600 C.2       1 0XF701      0.0000 
     17 O10         4.5540   -1.4920   16.5790 O.2       1 0XF701      0.0000 
     18 N11         6.5140   -0.4750   16.0510 N.am      1 0XF701      0.0000 
     19 C12        -1.7370   -2.1380   14.8370 C.ar      1 0XF701      0.0000 
     20 C14        -0.8450   -2.8400   15.6950 C.ar      1 0XF701      0.0000 
     21 C16         0.9540   -1.2860   15.1520 C.ar      1 0XF701      0.0000 
     22 N17         0.0990   -0.6040   14.3210 N.ar      1 0XF701      0.0000 
     23 C18        -1.2120   -1.0050   14.1590 C.ar      1 0XF701      0.0000 
     24 C19        -2.0320   -0.1560   13.2110 C.3       1 0XF701      0.0000 
     25 C23         1.2850    3.4540   12.2780 C.3       1 0XF701      0.0000 
     26 N25         1.0210    5.2940   14.0590 N.4       1 0XF701      0.0000 
     27 H           1.4875    1.1263   13.7192 H         1 0XF701      0.0000 
     28 H           1.1256   -2.9325   16.4705 H         1 0XF701      0.0000 
     29 H          -2.2576    4.9878   11.5305 H         1 0XF701      0.0000 
     30 H          -0.9681    6.0869   12.0492 H         1 0XF701      0.0000 
     31 H          -0.3970    5.2716    9.8448 H         1 0XF701      0.0000 
     32 H          -0.7079    3.5909   10.3123 H         1 0XF701      0.0000 
     33 H           1.5675    5.3595   11.3117 H         1 0XF701      0.0000 
     34 H           1.7009    3.9654   10.2262 H         1 0XF701      0.0000 
     35 H           0.4974    3.2485   14.2916 H         1 0XF701      0.0000 
     36 H          -1.4672    3.2213   12.9781 H         1 0XF701      0.0000 
     37 H          -1.5419    4.7032   13.9468 H         1 0XF701      0.0000 
     38 H           3.3664    3.9689   12.1915 H         1 0XF701      0.0000 
     39 H           2.8795   -1.5223   16.0185 H         1 0XF701      0.0000 
     40 H           6.9110    0.2835   15.5342 H         1 0XF701      0.0000 
     41 H           6.9901   -1.1399   16.6265 H         1 0XF701      0.0000 
     42 H          -1.1829   -3.6643   16.2057 H         1 0XF701      0.0000 
     43 H           0.8243    2.5011   12.0205 H         1 0XF701      0.0000 
     44 H          -3.2039   -3.5374   14.3330 H         1 0XF701      0.0000 
     45 H          -3.6439   -2.5933   15.5583 H         1 0XF701      0.0000 
     46 H          -3.6705   -2.0238   14.0545 H         1 0XF701      0.0000 
     47 H          -1.4950    0.5942   12.8253 H         1 0XF701      0.0000 
     48 H          -2.3827   -0.6908   12.4423 H         1 0XF701      0.0000 
     49 H          -2.8218    0.2534   13.6677 H         1 0XF701      0.0000 
     50 H           0.9758    6.0319   13.3855 H         1 0XF701      0.0000 
     51 H           0.5187    5.6031   14.8666 H         1 0XF701      0.0000 
     52 H           1.9797    5.2009   14.3279 H         1 0XF701      0.0000 
@<TRIPOS>BOND
     1   12    1 ar   
     2   14    1 ar   
     3    3    2 ar   
     4   14    2 ar   
     5   16    2 1    
     6    4    3 ar   
     7   15    3 1    
     8   12    4 ar   
     9   27    4 1    
    10   19    5 1    
    11   44    5 1    
    12   45    5 1    
    13   46    5 1    
    14   20    6 ar   
    15   21    6 ar   
    16   28    6 1    
    17    8    7 1    
    18   11    7 1    
    19   29    7 1    
    20   30    7 1    
    21    9    8 1    
    22   31    8 1    
    23   32    8 1    
    24   25    9 1    
    25   33    9 1    
    26   34    9 1    
    27   11   10 1    
    28   25   10 1    
    29   26   10 1    
    30   35   10 1    
    31   36   11 1    
    32   37   11 1    
    33   13   12 1    
    34   25   13 1    
    35   38   13 1    
    36   21   15 1    
    37   39   15 1    
    38   17   16 2    
    39   18   16 am   
    40   40   18 1    
    41   41   18 1    
    42   20   19 ar   
    43   23   19 ar   
    44   42   20 1    
    45   22   21 ar   
    46   23   22 ar   
    47   24   23 1    
    48   47   24 1    
    49   48   24 1    
    50   49   24 1    
    51   43   25 1    
    52   50   26 1    
    53   51   26 1    
    54   52   26 1    
@<TRIPOS>SUBSTRUCTURE
     1 0XF701      1 GROUP   
@<TRIPOS>SET

