#    Name: 1WLE_1_CAVITY_N1_6.mol2
#    Modification time : Mon Mar 10 16:30:56 2014

@<TRIPOS>MOLECULE
1WLE_1_CAVITY_N1_6.mol2
   74     0     6     0     0
SMALL
NO_CHARGES


@<TRIPOS>ATOM
      1 OG         76.7316   38.4141   70.4139 O.2       1 SER1        0.0000 
      2 N          74.7919   38.0837   71.2064 N.2       2 ALA2        0.0000 
      3 CA         75.3564   38.9236   70.0993 C.3       5 GLY6        0.0000 
      4 NZ         73.4166   38.5932   70.8918 N.2       4 LYS4        0.0000 
      5 CA         73.9811   39.4331   69.7846 C.3       5 GLY6        0.0000 
      6 CA         72.0413   39.1027   70.5771 C.3       5 GLY6        0.0000 
      7 NZ         73.0631   33.0032   70.5352 N.2       4 LYS4        0.0000 
      8 OG         73.6276   33.8432   69.4280 O.2       1 SER1        0.0000 
      9 OG         74.7566   35.5230   67.2137 O.2       1 SER1        0.0000 
     10 OG         71.6878   33.5128   70.2206 O.2       1 SER1        0.0000 
     11 O          72.2523   34.3527   69.1134 O.2       2 ALA2        0.0000 
     12 OG         72.8169   35.1926   68.0062 O.2       1 SER1        0.0000 
     13 OG         73.3814   36.0326   66.8991 O.2       1 SER1        0.0000 
     14 CA         73.9459   36.8725   65.7919 C.3       5 GLY6        0.0000 
     15 CA         74.5104   37.7125   64.6847 C.3       5 GLY6        0.0000 
     16 OD1        75.0749   38.5524   63.5775 O.3       3 ASP3        0.0000 
     17 O          70.3126   34.0223   69.9059 O.2       2 ALA2        0.0000 
     18 O          70.8771   34.8622   68.7987 O.2       2 ALA2        0.0000 
     19 O          71.4416   35.7022   67.6916 O.2       2 ALA2        0.0000 
     20 DU         72.0061   36.5421   66.5844 H         6 CUB7        0.0000 
     21 DU         72.5706   37.3821   65.4772 H         6 CUB7        0.0000 
     22 DU         73.1351   38.2220   64.3701 H         6 CUB7        0.0000 
     23 O          70.0663   36.2117   67.3769 O.2       2 ALA2        0.0000 
     24 O          70.6308   37.0517   66.2698 O.2       2 ALA2        0.0000 
     25 DU         71.1954   37.8916   65.1626 H         6 CUB7        0.0000 
     26 O          66.7513   36.3909   67.8548 O.2       2 ALA2        0.0000 
     27 O          67.3158   37.2308   66.7476 O.2       2 ALA2        0.0000 
     28 O          67.8803   38.0708   65.6404 O.2       2 ALA2        0.0000 
     29 O          73.8275   34.9767   70.3899 O.2       2 ALA2        0.0000 
     30 O          74.3920   35.8166   69.2827 O.2       2 ALA2        0.0000 
     31 CA         74.9565   36.6566   68.1756 C.3       5 GLY6        0.0000 
     32 NZ         71.8877   34.6463   71.1824 N.2       4 LYS4        0.0000 
     33 NZ         72.4523   35.4862   70.0753 N.2       4 LYS4        0.0000 
     34 NZ         73.0168   36.3262   68.9681 N.2       4 LYS4        0.0000 
     35 DU         73.5813   37.1661   67.8609 H         6 CUB7        0.0000 
     36 CA         74.1458   38.0060   66.7537 C.3       5 GLY6        0.0000 
     37 CA         74.7103   38.8460   65.6466 C.3       5 GLY6        0.0000 
     38 CA         71.0770   35.9958   69.7606 C.3       5 GLY6        0.0000 
     39 DU         71.6415   36.8357   68.6534 H         6 CUB7        0.0000 
     40 DU         72.7705   38.5156   66.4391 H         6 CUB7        0.0000 
     41 DU         73.3350   39.3555   65.3319 H         6 CUB7        0.0000 
     42 CA         69.7017   36.5053   69.4459 C.3       5 GLY6        0.0000 
     43 DU         70.2662   37.3453   68.3388 H         6 CUB7        0.0000 
     44 DU         70.8307   38.1852   67.2316 H         6 CUB7        0.0000 
     45 O          68.3264   37.0149   69.1313 O.2       2 ALA2        0.0000 
     46 O          68.8910   37.8548   68.0241 O.2       2 ALA2        0.0000 
     47 DU         69.4555   38.6947   66.9170 H         6 CUB7        0.0000 
     48 CA         66.3867   36.6845   69.9238 C.3       5 GLY6        0.0000 
     49 CA         66.9512   37.5244   68.8166 C.3       5 GLY6        0.0000 
     50 DU         67.5157   38.3643   67.7095 H         6 CUB7        0.0000 
     51 DU         68.0802   39.2043   66.6023 H         6 CUB7        0.0000 
     52 O          74.5919   36.9501   70.2446 O.2       2 ALA2        0.0000 
     53 OG         75.1565   37.7901   69.1374 O.2       1 SER1        0.0000 
     54 CA         75.7210   38.6300   68.0302 C.3       5 GLY6        0.0000 
     55 NZ         73.2167   37.4597   69.9299 N.2       4 LYS4        0.0000 
     56 DU         73.7812   38.2996   68.8228 H         6 CUB7        0.0000 
     57 DU         74.3457   39.1396   67.7156 H         6 CUB7        0.0000 
     58 NZ         71.2769   37.1293   70.7225 N.2       4 LYS4        0.0000 
     59 CA         71.8414   37.9692   69.6153 C.3       5 GLY6        0.0000 
     60 DU         72.4059   38.8092   68.5081 H         6 CUB7        0.0000 
     61 CA         70.4661   38.4788   69.3006 C.3       5 GLY6        0.0000 
     62 DU         71.0307   39.3187   68.1935 H         6 CUB7        0.0000 
     63 CA         69.0909   38.9883   68.9860 C.3       5 GLY6        0.0000 
     64 CA         69.6554   39.8283   67.8788 C.3       5 GLY6        0.0000 
     65 OG         72.8632   31.8697   69.5734 O.2       1 SER1        0.0000 
     66 CA         71.4879   32.3792   69.2587 C.3       5 GLY6        0.0000 
     67 O          72.0524   33.2192   68.1515 O.2       2 ALA2        0.0000 
     68 OG         72.6169   34.0591   67.0444 O.2       1 SER1        0.0000 
     69 OG         73.1815   34.8991   65.9372 O.2       1 SER1        0.0000 
     70 OD1        73.7460   35.7390   64.8300 O.3       3 ASP3        0.0000 
     71 OD1        74.3105   36.5789   63.7229 O.3       3 ASP3        0.0000 
     72 O          71.2417   34.5687   66.7297 O.2       2 ALA2        0.0000 
     73 O          71.8062   35.4086   65.6225 O.2       2 ALA2        0.0000 
     74 O          67.6804   36.9372   64.6786 O.2       2 ALA2        0.0000 
@<TRIPOS>BOND
@<TRIPOS>SUBSTRUCTURE
     1 SER1        1 GROUP   
     2 ALA2        2 GROUP   
     3 ASP3       16 GROUP   
     4 LYS4        4 GROUP   
     5 GLY6        3 GROUP   
     6 CUB7       20 GROUP   
@<TRIPOS>SET

