#    Name: 1wle_SRP_1_INTS_M
#    Modification time : Tue Mar 25 09:06:53 2014

@<TRIPOS>MOLECULE
1wle_SRP_1_INTS_M
   82     0    15     0     0
SMALL
NO_CHARGES


@<TRIPOS>ATOM
      1 NZ         69.7875   34.0710   67.4060 N.4       4 LYC4        0.0000 
      2 NZ         71.0520   34.4770   66.6680 N.4      14 LYL4        0.0000 
      3 NZ         67.8030   34.0850   67.1150 N.4       9 LYP4        0.0000 
      4 N          69.7875   34.0710   67.4060 N.am      2 SEC2        0.0000 
      5 N          71.0520   34.4770   66.6680 N.am     12 SEL2        0.0000 
      6 N          68.5230   33.6650   68.1440 N.am      7 SEP2        0.0000 
      7 N          69.7295   34.5445   66.3625 N.am      2 SEC2        0.0000 
      8 N          68.4070   34.6120   66.0570 N.am      7 SEP2        0.0000 
      9 N          74.4400   33.3625   66.6415 N.am      2 SEC2        0.0000 
     10 N          73.3050   33.7540   65.7420 N.am     12 SEL2        0.0000 
     11 N          75.5750   32.9710   67.5410 N.am      7 SEP2        0.0000 
     12 N          74.2390   33.3130   67.9165 N.am      2 SEC2        0.0000 
     13 N          72.9030   33.6550   68.2920 N.am     12 SEL2        0.0000 
     14 CA         72.4905   28.6680   67.5475 C.3       5 GLC5        0.0000 
     15 CA         71.5610   30.0510   66.2600 C.3      15 GLL5        0.0000 
     16 CA         73.4200   27.2850   68.8350 C.3      10 GLP5        0.0000 
     17 CA         70.8860   28.1840   66.4805 C.3       5 GLC5        0.0000 
     18 CA         70.2110   26.3170   66.7010 C.3      10 GLP5        0.0000 
     19 O          73.9190   31.2635   63.8810 O.2       1 ALC1        0.0000 
     20 O          73.4660   30.3040   64.6780 O.2      11 ALL1        0.0000 
     21 O          74.3720   32.2230   63.0840 O.2       6 ALP1        0.0000 
     22 CA         70.7755   28.5535   62.1090 C.3       5 GLC5        0.0000 
     23 CA         71.1580   29.6140   63.9760 C.3      15 GLL5        0.0000 
     24 CA         70.3930   27.4930   60.2420 C.3      10 GLP5        0.0000 
     25 O          72.8080   27.4855   64.4050 O.2       1 ALC1        0.0000 
     26 O          71.7540   28.3440   63.7580 O.2      11 ALL1        0.0000 
     27 O          73.8620   26.6270   65.0520 O.2       6 ALP1        0.0000 
     28 CA         68.1735   29.2720   66.0910 C.3       5 GLC5        0.0000 
     29 CA         69.8220   29.4700   64.7400 C.3      15 GLL5        0.0000 
     30 CA         66.5250   29.0740   67.4420 C.3      10 GLP5        0.0000 
     31 CA         66.2755   32.8065   64.7280 C.3       5 GLC5        0.0000 
     32 CA         66.9580   31.1930   63.3870 C.3      15 GLL5        0.0000 
     33 CA         65.5930   34.4200   66.0690 C.3      10 GLP5        0.0000 
     34 CA         65.1790   30.7065   60.7090 C.3       5 GLC5        0.0000 
     35 CA         65.7450   31.0180   62.6240 C.3      15 GLL5        0.0000 
     36 CA         64.6130   30.3950   58.7940 C.3      10 GLP5        0.0000 
     37 O          65.0625   33.4350   62.4450 O.2       1 ALC1        0.0000 
     38 O          64.9350   32.0300   62.3550 O.2      11 ALL1        0.0000 
     39 O          65.1900   34.8400   62.5350 O.2       6 ALP1        0.0000 
     40 O          63.5855   31.6085   62.5310 O.2       1 ALC1        0.0000 
     41 O          62.2360   31.1870   62.7070 O.2       6 ALP1        0.0000 
     42 N          64.1810   29.7855   61.3025 N.am      2 SEC2        0.0000 
     43 N          65.4220   29.7470   62.1620 N.am     12 SEL2        0.0000 
     44 N          62.9400   29.8240   60.4430 N.am      7 SEP2        0.0000 
     45 CA         65.4210   29.5450   60.6085 C.3       5 GLC5        0.0000 
     46 CA         66.2290   28.6950   62.4230 C.3      15 GLL5        0.0000 
     47 CA         64.3705   28.2320   62.3855 C.3       5 GLC5        0.0000 
     48 CA         62.5120   27.7690   62.3480 C.3      10 GLP5        0.0000 
     49 CA         65.9905   26.8165   62.5655 C.3       5 GLC5        0.0000 
     50 CA         65.7520   24.9380   62.7080 C.3      10 GLP5        0.0000 
     51 N          69.7955   33.6735   68.9130 N.am      2 SEC2        0.0000 
     52 N          71.0680   33.6820   69.6820 N.am     12 SEL2        0.0000 
     53 OD1        72.4250   35.1280   72.4695 O.co2     3 ASC3        0.0000 
     54 OD1        72.3410   33.7530   72.0300 O.co2    13 ASL3        0.0000 
     55 OD1        72.5090   36.5030   72.9090 O.co2     8 ASP3        0.0000 
     56 OD1        73.2465   31.7245   72.2470 O.co2     3 ASC3        0.0000 
     57 OD1        72.6010   30.3700   72.9490 O.co2     8 ASP3        0.0000 
     58 OD1        72.8515   32.9695   72.9760 O.co2     3 ASC3        0.0000 
     59 OD1        73.3620   32.1860   73.9220 O.co2     8 ASP3        0.0000 
     60 O          71.0560   33.4000   72.4070 O.2       1 ALC1        0.0000 
     61 O          72.3410   33.7530   72.0300 O.2      11 ALL1        0.0000 
     62 O          69.7710   33.0470   72.7840 O.2       6 ALP1        0.0000 
     63 O          72.4250   35.1280   72.4695 O.2       1 ALC1        0.0000 
     64 O          72.5090   36.5030   72.9090 O.2       6 ALP1        0.0000 
     65 O          72.8515   32.9695   72.9760 O.2       1 ALC1        0.0000 
     66 O          73.3620   32.1860   73.9220 O.2       6 ALP1        0.0000 
     67 CA         75.6180   31.5045   71.6145 C.3       5 GLC5        0.0000 
     68 CA         73.9860   32.3810   70.8280 C.3      15 GLL5        0.0000 
     69 CA         77.2500   30.6280   72.4010 C.3      10 GLP5        0.0000 
     70 CA         74.4200   30.3240   70.7480 C.3       5 GLC5        0.0000 
     71 CA         74.8540   28.2670   70.6680 C.3      10 GLP5        0.0000 
     72 N          73.6660   30.4205   69.6450 N.am      2 SEC2        0.0000 
     73 N          73.1310   31.2630   70.5720 N.am     12 SEL2        0.0000 
     74 N          74.2010   29.5780   68.7180 N.am      7 SEP2        0.0000 
     75 O          72.8660   30.8165   71.7605 O.2       1 ALC1        0.0000 
     76 O          73.1310   31.2630   70.5720 O.2      11 ALL1        0.0000 
     77 O          72.6010   30.3700   72.9490 O.2       6 ALP1        0.0000 
     78 O          73.2465   31.7245   72.2470 O.2       1 ALC1        0.0000 
     79 CA         70.7780   29.8732   68.2630 C.3       5 GLC5        0.0000 
     80 CA         71.4830   31.4220   66.8000 C.3      15 GLL5        0.0000 
     81 CA         70.0340   29.0100   69.9960 C.3      10 GLP5        0.0000 
     82 CA         70.3505   27.9295   65.5295 C.3       5 GLC5        0.0000 
@<TRIPOS>BOND
@<TRIPOS>SUBSTRUCTURE
     1 ALC1       19 GROUP        1 X    ALC  0     ROOT ALC X 1
     2 SEC2        4 GROUP        1 X    SEC  0     **** SEC X 2
     3 ASC3       53 GROUP        1 X    ASC  0     **** ASC X 3
     4 LYC4        1 GROUP        1 X    LYC  0     **** LYC X 4
     5 GLC5       14 GROUP        1 X    GLC  0     **** GLC X 6
     6 ALP1       21 GROUP        1 Y    ALP  0     ROOT ALP Y 8
     7 SEP2        6 GROUP        1 Y    SEP  0     **** SEP Y 9
     8 ASP3       55 GROUP        1 Y    ASP  0     **** ASP Y 10
     9 LYP4        3 GROUP        1 Y    LYP  0     **** LYP Y 11
    10 GLP5       16 GROUP        1 Y    GLP  0     **** GLP Y 13
    11 ALL1       20 GROUP        1 Z    ALL  0     ROOT ALL Z 15
    12 SEL2        5 GROUP        1 Z    SEL  0     **** SEL Z 16
    13 ASL3       54 GROUP        1 Z    ASL  0     **** ASL Z 17
    14 LYL4        2 GROUP        1 Z    LYL  0     **** LYL Z 18
    15 GLL5       15 GROUP        1 Z    GLL  0     **** GLL Z 20
@<TRIPOS>SET

