#    Name: 1wle_SRP_1_ligand
#    Modification time : Tue Mar 25 09:06:53 2014

@<TRIPOS>MOLECULE
1wle_SRP_1_ligand
   48    50     1     0     0
SMALL
NO_CHARGES


@<TRIPOS>ATOM
      1 PA         72.3680   33.9360   66.8430 P.3       1 SRP900      0.0000 
      2 O1A        71.0520   34.4770   66.6680 O.co2     1 SRP900      0.0000 
      3 O2A        73.3050   33.7540   65.7420 O.co2     1 SRP900      0.0000 
      4 O3A        72.9030   33.6550   68.2920 O.3       1 SRP900      0.0000 
      5 O5'        71.6480   32.6720   66.7370 O.3       1 SRP900      0.0000 
      6 C5'        71.4830   31.4220   66.8000 C.3       1 SRP900      0.0000 
      7 C4'        71.5610   30.0510   66.2600 C.3       1 SRP900      0.0000 
      8 O4'        70.1500   29.7700   66.1320 O.3       1 SRP900      0.0000 
      9 C3'        72.0710   30.4520   64.8950 C.3       1 SRP900      0.0000 
     10 O3'        73.4660   30.3040   64.6780 O.3       1 SRP900      0.0000 
     11 C2'        71.1580   29.6140   63.9760 C.3       1 SRP900      0.0000 
     12 O2'        71.7540   28.3440   63.7580 O.3       1 SRP900      0.0000 
     13 C1'        69.8220   29.4700   64.7400 C.3       1 SRP900      0.0000 
     14 N9         68.7650   30.4080   64.3030 N.pl3     1 SRP900      0.0000 
     15 C8         68.6200   31.7930   64.5080 C.2       1 SRP900      0.0000 
     16 N7         67.5550   32.3010   63.9780 N.2       1 SRP900      0.0000 
     17 C5         66.9580   31.1930   63.3870 C.ar      1 SRP900      0.0000 
     18 C6         65.7450   31.0180   62.6240 C.ar      1 SRP900      0.0000 
     19 N6         64.9350   32.0300   62.3550 N.pl3     1 SRP900      0.0000 
     20 N1         65.4220   29.7470   62.1620 N.ar      1 SRP900      0.0000 
     21 C2         66.2290   28.6950   62.4230 C.ar      1 SRP900      0.0000 
     22 N3         67.3860   28.7270   63.1230 N.ar      1 SRP900      0.0000 
     23 C4         67.6910   30.0450   63.5830 C.ar      1 SRP900      0.0000 
     24 O          71.0680   33.6820   69.6820 O.2       1 SRP900      0.0000 
     25 C          72.2910   33.7500   69.5790 C.2       1 SRP900      0.0000 
     26 CA         73.1790   33.6820   70.8240 C.3       1 SRP900      0.0000 
     27 N          72.3410   33.7530   72.0300 N.4       1 SRP900      0.0000 
     28 CB         73.9860   32.3810   70.8280 C.3       1 SRP900      0.0000 
     29 OG         73.1310   31.2630   70.5720 O.3       1 SRP900      0.0000 
     30 H          70.2681   31.3089   67.3518 H         1 SRP900      0.0000 
     31 H          71.8905   31.1295   68.0416 H         1 SRP900      0.0000 
     32 H          72.1175   29.4652   66.7506 H         1 SRP900      0.0000 
     33 H          71.7287   31.4972   64.7472 H         1 SRP900      0.0000 
     34 H          70.9829   30.1645   63.0924 H         1 SRP900      0.0000 
     35 H          69.4993   28.4548   64.6637 H         1 SRP900      0.0000 
     36 H          69.3177   32.2928   65.0306 H         1 SRP900      0.0000 
     37 H          65.3635   32.9313   62.2898 H         1 SRP900      0.0000 
     38 H          63.9681   31.8016   62.2414 H         1 SRP900      0.0000 
     39 H          65.9193   27.7310   62.0335 H         1 SRP900      0.0000 
     40 H          73.8658   34.5103   70.7980 H         1 SRP900      0.0000 
     41 H          74.4802   32.2986   71.8053 H         1 SRP900      0.0000 
     42 H          74.7716   32.4740   70.0662 H         1 SRP900      0.0000 
     43 H          71.4336   33.3623   71.8752 H         1 SRP900      0.0000 
     44 H          72.7483   33.2543   72.7951 H         1 SRP900      0.0000 
     45 H          72.2061   34.6962   72.3335 H         1 SRP900      0.0000 
     46 H          73.7202   31.0751   64.0942 H         1 SRP900      0.0000 
     47 H          72.6682   28.4154   64.1570 H         1 SRP900      0.0000 
     48 H          72.5507   31.1900   71.3831 H         1 SRP900      0.0000 
@<TRIPOS>BOND
     1    2    1 ar   
     2    3    1 ar   
     3    4    1 1    
     4    5    1 1    
     5   25    4 1    
     6    6    5 1    
     7    7    6 1    
     8   30    6 1    
     9   31    6 1    
    10    8    7 1    
    11    9    7 1    
    12   32    7 1    
    13   13    8 1    
    14   10    9 1    
    15   11    9 1    
    16   33    9 1    
    17   46   10 1    
    18   12   11 1    
    19   13   11 1    
    20   34   11 1    
    21   47   12 1    
    22   14   13 1    
    23   35   13 1    
    24   15   14 1    
    25   23   14 1    
    26   16   15 2    
    27   36   15 1    
    28   17   16 1    
    29   18   17 ar   
    30   23   17 ar   
    31   19   18 1    
    32   20   18 ar   
    33   37   19 1    
    34   38   19 1    
    35   21   20 ar   
    36   22   21 ar   
    37   39   21 1    
    38   23   22 ar   
    39   25   24 2    
    40   26   25 1    
    41   27   26 1    
    42   28   26 1    
    43   40   26 1    
    44   43   27 1    
    45   44   27 1    
    46   45   27 1    
    47   29   28 1    
    48   41   28 1    
    49   42   28 1    
    50   48   29 1    
@<TRIPOS>SUBSTRUCTURE
     1 SRP900      1 GROUP   
@<TRIPOS>SET

