#    Name: 1h3c_R79_2_INTS_M
#    Modification time : Tue Mar 25 04:33:15 2014

@<TRIPOS>MOLECULE
1h3c_R79_2_INTS_M
   70     0     6     0     0
SMALL
NO_CHARGES


@<TRIPOS>ATOM
      1 CA         48.3915   18.0010   59.8795 C.3       2 GLC5        0.0000 
      2 CA         49.6520   16.3560   60.1520 C.3       6 GLL5        0.0000 
      3 CA         47.1310   19.6460   59.6070 C.3       4 GLP5        0.0000 
      4 CA         50.4810   13.2875   61.9745 C.3       2 GLC5        0.0000 
      5 CA         48.9680   14.0120   60.8210 C.3       6 GLL5        0.0000 
      6 CA         51.9940   12.5630   63.1280 C.3       4 GLP5        0.0000 
      7 OD1        47.7110   12.8525   60.9670 O.co2     1 ASC3        0.0000 
      8 OD1        48.0230   14.5350   61.8560 O.co2     5 ASL3        0.0000 
      9 OD1        47.3990   11.1700   60.0780 O.co2     3 ASP3        0.0000 
     10 CA         50.0310   13.2620   63.8110 C.3       2 GLC5        0.0000 
     11 CA         48.5370   14.3810   63.2510 C.3       6 GLL5        0.0000 
     12 CA         51.5250   12.1430   64.3710 C.3       4 GLP5        0.0000 
     13 CA         50.7400   14.9270   64.6420 C.3       2 GLC5        0.0000 
     14 CA         49.0270   15.7020   63.9160 C.3       6 GLL5        0.0000 
     15 CA         52.4530   14.1520   65.3680 C.3       4 GLP5        0.0000 
     16 CA         47.5535   17.2200   63.2695 C.3       2 GLC5        0.0000 
     17 CA         46.0800   18.7380   62.6230 C.3       4 GLP5        0.0000 
     18 CA         46.7445   17.2245   64.4090 C.3       2 GLC5        0.0000 
     19 CA         48.0910   16.1460   65.0670 C.3       6 GLL5        0.0000 
     20 CA         45.3980   18.3030   63.7510 C.3       4 GLP5        0.0000 
     21 CA         50.6045   15.0270   65.9050 C.3       2 GLC5        0.0000 
     22 CA         48.7560   15.9020   66.4420 C.3       6 GLL5        0.0000 
     23 CA         50.6560   16.0290   68.3440 C.3       2 GLC5        0.0000 
     24 CA         49.3770   17.2050   66.9950 C.3       6 GLL5        0.0000 
     25 CA         51.9350   14.8530   69.6930 C.3       4 GLP5        0.0000 
     26 CA         45.0680   16.0410   71.6305 C.3       2 GLC5        0.0000 
     27 CA         44.9830   17.9160   70.9240 C.3       6 GLL5        0.0000 
     28 CA         45.1530   14.1660   72.3370 C.3       4 GLP5        0.0000 
     29 CA         44.6900   18.7745   74.1375 C.3       2 GLC5        0.0000 
     30 CA         43.1380   19.5840   73.0340 C.3       6 GLL5        0.0000 
     31 CA         46.2420   17.9650   75.2410 C.3       4 GLP5        0.0000 
     32 CA         40.8265   16.9695   75.3705 C.3       2 GLC5        0.0000 
     33 CA         41.2460   18.2850   74.0610 C.3       6 GLL5        0.0000 
     34 CA         40.4070   15.6540   76.6800 C.3       4 GLP5        0.0000 
     35 CA         43.9625   17.7860   74.8895 C.3       2 GLC5        0.0000 
     36 CA         42.6470   18.3920   73.6930 C.3       6 GLL5        0.0000 
     37 CA         45.2780   17.1800   76.0860 C.3       4 GLP5        0.0000 
     38 CA         39.8325   20.1135   75.7895 C.3       2 GLC5        0.0000 
     39 CA         38.5480   19.2530   74.2480 C.3       6 GLL5        0.0000 
     40 CA         41.1170   20.9740   77.3310 C.3       4 GLP5        0.0000 
     41 CA         38.0675   17.9830   73.1365 C.3       2 GLC5        0.0000 
     42 CA         37.5870   16.7130   72.0250 C.3       4 GLP5        0.0000 
     43 CA         37.5590   19.6090   76.1320 C.3       2 GLC5        0.0000 
     44 CA         36.5700   19.9650   78.0160 C.3       4 GLP5        0.0000 
     45 CA         46.1210   12.1250   61.5485 C.3       2 GLC5        0.0000 
     46 CA         46.7040   13.8510   61.7580 C.3       6 GLL5        0.0000 
     47 CA         45.5380   10.3990   61.3390 C.3       4 GLP5        0.0000 
     48 CA         46.9410   13.4180   59.6145 C.3       2 GLC5        0.0000 
     49 CA         47.1780   12.9850   57.4710 C.3       4 GLP5        0.0000 
     50 CA         44.4915   14.0160   61.5700 C.3       2 GLC5        0.0000 
     51 CA         42.2790   14.1810   61.3820 C.3       4 GLP5        0.0000 
     52 CA         45.7450   12.9810   63.3845 C.3       2 GLC5        0.0000 
     53 CA         44.7860   12.1110   65.0110 C.3       4 GLP5        0.0000 
     54 CA         50.7730   15.4910   58.5350 C.3       2 GLC5        0.0000 
     55 CA         49.4380   15.0680   59.8360 C.3       6 GLL5        0.0000 
     56 CA         52.0010   15.2700   57.0760 C.3       4 GLP5        0.0000 
     57 CA         48.1905   13.7625   58.8997 C.3       2 GLC5        0.0000 
     58 CA         50.1100   18.8792   66.7090 C.3       2 GLC5        0.0000 
     59 CA         51.3430   20.1670   65.9770 C.3       4 GLP5        0.0000 
     60 CA         47.1640   15.7805   70.4243 C.3       2 GLC5        0.0000 
     61 CA         47.2350   17.8570   69.9850 C.3       6 GLL5        0.0000 
     62 CA         47.7420   13.9580   70.8210 C.3       4 GLP5        0.0000 
     63 CA         46.5015   19.1067   73.7195 C.3       2 GLC5        0.0000 
     64 CA         46.6720   19.5610   71.6510 C.3       6 GLL5        0.0000 
     65 CA         45.7017   18.2175   73.2808 C.3       2 GLC5        0.0000 
     66 CA         45.3400   19.0240   71.7170 C.3       6 GLL5        0.0000 
     67 CA         43.9185   16.4027   70.3705 C.3       2 GLC5        0.0000 
     68 CA         42.3770   15.1730   70.2440 C.3       4 GLP5        0.0000 
     69 CA         39.7078   17.3163   73.3053 C.3       2 GLC5        0.0000 
     70 CA         38.6190   15.8130   72.6910 C.3       4 GLP5        0.0000 
@<TRIPOS>BOND
@<TRIPOS>SUBSTRUCTURE
     1 ASC3        7 GROUP        1 X    ASC  0     ROOT ASC X 3
     2 GLC5        1 GROUP        1 X    GLC  0     **** GLC X 6
     3 ASP3        9 GROUP        1 Y    ASP  0     ROOT ASP Y 10
     4 GLP5        3 GROUP        1 Y    GLP  0     **** GLP Y 13
     5 ASL3        8 GROUP        1 Z    ASL  0     ROOT ASL Z 17
     6 GLL5        2 GROUP        1 Z    GLL  0     **** GLL Z 20
@<TRIPOS>SET

