#    Name: 1h3c_R79_2_ligand
#    Modification time : Tue Mar 25 04:33:15 2014

@<TRIPOS>MOLECULE
1h3c_R79_2_ligand
   54    56     1     0     0
SMALL
NO_CHARGES


@<TRIPOS>ATOM
      1 C3A        49.6520   16.3560   60.1520 C.2       1 R79800      0.0000 
      2 C2A        49.4380   15.0680   59.8360 C.2       1 R79800      0.0000 
      3 C1A        48.9680   14.0120   60.8210 C.3       1 R79800      0.0000 
      4 N1         48.0230   14.5350   61.8560 N.4       1 R79800      0.0000 
      5 C1B        48.5370   14.3810   63.2510 C.3       1 R79800      0.0000 
      6 C2B        49.0270   15.7020   63.9160 C.3       1 R79800      0.0000 
      7 C3B        48.0910   16.1460   65.0670 C.3       1 R79800      0.0000 
      8 C4B        48.7560   15.9020   66.4420 C.3       1 R79800      0.0000 
      9 C5B        49.3770   17.2050   66.9950 C.3       1 R79800      0.0000 
     10 C6B        48.3770   17.9780   67.8870 C.3       1 R79800      0.0000 
     11 O          48.1240   17.2370   69.1040 O.3       1 R79800      0.0000 
     12 C6C        47.2350   17.8570   69.9850 C.ar      1 R79800      0.0000 
     13 C7C        47.6380   18.9890   70.7890 C.ar      1 R79800      0.0000 
     14 C7P        46.6720   19.5610   71.6510 C.ar      1 R79800      0.0000 
     15 S1C        46.8500   20.9360   72.7450 S.3       1 R79800      0.0000 
     16 N2C        45.3310   20.7530   73.1740 N.2       1 R79800      0.0000 
     17 C3C        44.5930   19.7590   72.6230 C.2       1 R79800      0.0000 
     18 C3P        45.3400   19.0240   71.7170 C.ar      1 R79800      0.0000 
     19 C4C        44.9830   17.9160   70.9240 C.ar      1 R79800      0.0000 
     20 C5C        45.9370   17.3490   70.0700 C.ar      1 R79800      0.0000 
     21 C1D        43.1380   19.5840   73.0340 C.ar      1 R79800      0.0000 
     22 C6D        42.2380   20.6350   72.7630 C.ar      1 R79800      0.0000 
     23 C5D        40.8470   20.5230   73.1310 C.ar      1 R79800      0.0000 
     24 C4D        40.3470   19.3540   73.7780 C.ar      1 R79800      0.0000 
     25 C3D        41.2460   18.2850   74.0610 C.ar      1 R79800      0.0000 
     26 C2D        42.6470   18.3920   73.6930 C.ar      1 R79800      0.0000 
     27 BR27       38.5480   19.2530   74.2480 Br        1 R79800      0.0000 
     28 C1E        46.7040   13.8510   61.7580 C.3       1 R79800      0.0000 
     29 H          49.5850   14.6987   58.8654 H         1 R79800      0.0000 
     30 H          49.8528   13.5720   61.3166 H         1 R79800      0.0000 
     31 H          48.4835   13.1936   60.2575 H         1 R79800      0.0000 
     32 H          47.8571   15.6049   61.6702 H         1 R79800      0.0000 
     33 H          49.3808   13.6652   63.2680 H         1 R79800      0.0000 
     34 H          47.7504   13.9516   63.9003 H         1 R79800      0.0000 
     35 H          49.0591   16.4832   63.1607 H         1 R79800      0.0000 
     36 H          50.0278   15.5451   64.3104 H         1 R79800      0.0000 
     37 H          47.1686   15.5784   65.0125 H         1 R79800      0.0000 
     38 H          47.8741   17.2031   64.9595 H         1 R79800      0.0000 
     39 H          49.5359   15.1554   66.3315 H         1 R79800      0.0000 
     40 H          48.0068   15.5413   67.1395 H         1 R79800      0.0000 
     41 H          49.6726   17.8393   66.1620 H         1 R79800      0.0000 
     42 H          50.2582   16.9571   67.5829 H         1 R79800      0.0000 
     43 H          47.4620   18.1238   67.3073 H         1 R79800      0.0000 
     44 H          48.8112   18.9589   68.0963 H         1 R79800      0.0000 
     45 H          48.5691   19.3446   70.7281 H         1 R79800      0.0000 
     46 H          44.0400   17.5340   70.9739 H         1 R79800      0.0000 
     47 H          45.6719   16.5332   69.4881 H         1 R79800      0.0000 
     48 H          42.5586   21.4878   72.3035 H         1 R79800      0.0000 
     49 H          40.2152   21.2982   72.9215 H         1 R79800      0.0000 
     50 H          40.9185   17.4426   74.5200 H         1 R79800      0.0000 
     51 H          43.2789   17.6315   73.8983 H         1 R79800      0.0000 
     52 H          46.7867   12.8636   61.8930 H         1 R79800      0.0000 
     53 H          46.0592   14.1876   62.4442 H         1 R79800      0.0000 
     54 H          46.2791   13.9899   60.8635 H         1 R79800      0.0000 
@<TRIPOS>BOND
     1    2    1 2    
     2    3    2 1    
     3   29    2 1    
     4    4    3 1    
     5   30    3 1    
     6   31    3 1    
     7    5    4 1    
     8   28    4 1    
     9   32    4 1    
    10    6    5 1    
    11   33    5 1    
    12   34    5 1    
    13    7    6 1    
    14   35    6 1    
    15   36    6 1    
    16    8    7 1    
    17   37    7 1    
    18   38    7 1    
    19    9    8 1    
    20   39    8 1    
    21   40    8 1    
    22   10    9 1    
    23   41    9 1    
    24   42    9 1    
    25   11   10 1    
    26   43   10 1    
    27   44   10 1    
    28   12   11 1    
    29   13   12 ar   
    30   20   12 ar   
    31   14   13 ar   
    32   45   13 1    
    33   15   14 1    
    34   18   14 ar   
    35   16   15 1    
    36   17   16 2    
    37   18   17 1    
    38   21   17 1    
    39   19   18 ar   
    40   20   19 ar   
    41   46   19 1    
    42   47   20 1    
    43   22   21 ar   
    44   26   21 ar   
    45   23   22 ar   
    46   48   22 1    
    47   24   23 ar   
    48   49   23 1    
    49   25   24 ar   
    50   27   24 1    
    51   26   25 ar   
    52   50   25 1    
    53   51   26 1    
    54   52   28 1    
    55   53   28 1    
    56   54   28 1    
@<TRIPOS>SUBSTRUCTURE
     1 R79800      1 GROUP   
@<TRIPOS>SET

