#    Name: 1r0e_DFN_2_INTS_M
#    Modification time : Tue Mar 25 00:13:51 2014

@<TRIPOS>MOLECULE
1r0e_DFN_2_INTS_M
   70     0     9     0     0
SMALL
NO_CHARGES


@<TRIPOS>ATOM
      1 CA         59.3175   62.6345    7.2235 C.3       3 GLC5        0.0000 
      2 CA         60.0820   61.7480    9.1010 C.3       9 GLL5        0.0000 
      3 CA         58.5530   63.5210    5.3460 C.3       6 GLP5        0.0000 
      4 CA         59.2205   59.8565    9.1300 C.3       3 GLC5        0.0000 
      5 CA         58.3590   57.9650    9.1590 C.3       6 GLP5        0.0000 
      6 CA         62.0120   59.4970    7.8520 C.3       3 GLC5        0.0000 
      7 CA         62.4330   61.3030    8.3900 C.3       9 GLL5        0.0000 
      8 CA         61.5910   57.6910    7.3140 C.3       6 GLP5        0.0000 
      9 CA         64.3640   63.3330   13.0150 C.3       3 GLC5        0.0000 
     10 CA         64.5510   61.2760   13.8610 C.3       9 GLL5        0.0000 
     11 CA         64.1770   65.3900   12.1690 C.3       6 GLP5        0.0000 
     12 CA         65.3930   60.2150   14.8390 C.3       3 GLC5        0.0000 
     13 CA         66.2350   59.1540   15.8170 C.3       6 GLP5        0.0000 
     14 CA         65.8300   62.1885   11.5965 C.3       3 GLC5        0.0000 
     15 CA         64.2970   61.1630   11.5250 C.3       9 GLL5        0.0000 
     16 CA         67.3630   63.2140   11.6680 C.3       6 GLP5        0.0000 
     17 O          66.4855   61.6315    5.1805 O.2       1 ALC1        0.0000 
     18 O          66.1390   60.9100    6.3000 O.2       7 ALL1        0.0000 
     19 O          66.8320   62.3530    4.0610 O.2       4 ALP1        0.0000 
     20 N          63.4885   62.4450    4.9750 N.am      2 SEC2        0.0000 
     21 N          64.1970   62.1100    6.1750 N.am      8 SEL2        0.0000 
     22 N          62.7800   62.7800    3.7750 N.am      5 SEP2        0.0000 
     23 CA         69.9750   58.6910   11.4935 C.3       3 GLC5        0.0000 
     24 CA         68.0360   58.4500   11.1080 C.3       9 GLL5        0.0000 
     25 CA         71.9140   58.9320   11.8790 C.3       6 GLP5        0.0000 
     26 O          64.9450   55.5735   12.6235 O.2       1 ALC1        0.0000 
     27 O          64.8790   56.8050   11.9480 O.2       7 ALL1        0.0000 
     28 O          65.0110   54.3420   13.2990 O.2       4 ALP1        0.0000 
     29 CA         64.4025   56.7935   13.6410 C.3       3 GLC5        0.0000 
     30 CA         63.4590   56.6690   11.6420 C.3       9 GLL5        0.0000 
     31 CA         65.3460   56.9180   15.6400 C.3       6 GLP5        0.0000 
     32 CA         64.0150   56.1500    9.8415 C.3       3 GLC5        0.0000 
     33 CA         64.5710   55.6310    8.0410 C.3       6 GLP5        0.0000 
     34 CA         63.9195   58.0870   14.0130 C.3       3 GLC5        0.0000 
     35 CA         62.6970   57.8950   12.1580 C.3       9 GLL5        0.0000 
     36 CA         65.1420   58.2790   15.8680 C.3       6 GLP5        0.0000 
     37 CA         59.8630   57.9785   10.2880 C.3       3 GLC5        0.0000 
     38 CA         61.3670   57.9920   11.4170 C.3       9 GLL5        0.0000 
     39 CA         61.4790   57.8415    9.3655 C.3       3 GLC5        0.0000 
     40 O          60.7440   55.9470   11.1825 O.2       1 ALC1        0.0000 
     41 O          60.4280   57.0920   12.0020 O.2       7 ALL1        0.0000 
     42 O          61.0600   54.8020   10.3630 O.2       4 ALP1        0.0000 
     43 CA         63.5140   63.0055    9.7285 C.3       3 GLC5        0.0000 
     44 CA         63.9750   64.7900   10.7780 C.3       6 GLP5        0.0000 
     45 CA         62.8972   63.1860   11.0120 C.3       3 GLC5        0.0000 
     46 CA         62.0970   61.4950   10.6040 C.3       9 GLL5        0.0000 
     47 CA         63.5222   63.1283   11.8377 C.3       3 GLC5        0.0000 
     48 CA         62.3920   61.5920   12.9980 C.3       9 GLL5        0.0000 
     49 CA         65.8770   62.1082   13.2350 C.3       3 GLC5        0.0000 
     50 CA         67.6050   62.9080   13.1410 C.3       6 GLP5        0.0000 
     51 CA         64.0291   62.2816   14.8116 C.3       3 GLC5        0.0000 
     52 CA         64.2480   63.1920   16.2440 C.3       6 GLP5        0.0000 
     53 CA         63.9288   62.9952   10.8680 C.3       3 GLC5        0.0000 
     54 CA         66.4572   62.2367    7.8943 C.3       3 GLC5        0.0000 
     55 CA         64.8400   60.8580    8.1780 C.3       9 GLL5        0.0000 
     56 CA         67.5260   64.0020    7.4960 C.3       6 GLP5        0.0000 
     57 CA         64.2424   59.5464    7.1215 C.3       3 GLC5        0.0000 
     58 CA         65.9370   60.0850    8.4070 C.3       9 GLL5        0.0000 
     59 CA         63.3880   58.5510    5.7530 C.3       6 GLP5        0.0000 
     60 CA         65.9945   57.8347    7.8922 C.3       3 GLC5        0.0000 
     61 CA         65.8480   55.9890    6.8030 C.3       6 GLP5        0.0000 
     62 CA         65.0770   56.8257    9.3875 C.3       3 GLC5        0.0000 
     63 CA         65.4090   58.4240   10.1820 C.3       9 GLL5        0.0000 
     64 CA         68.3470   57.4005   13.2035 C.3       3 GLC5        0.0000 
     65 CA         67.0820   57.6380   11.7320 C.3       9 GLL5        0.0000 
     66 CA         69.1350   56.7570   14.9870 C.3       6 GLP5        0.0000 
     67 CA         67.4359   56.0149   11.0288 C.3       3 GLC5        0.0000 
     68 CA         67.6440   53.9910   10.7490 C.3       6 GLP5        0.0000 
     69 CA         67.9735   60.1245   11.9917 C.3       3 GLC5        0.0000 
     70 CA         68.3310   61.5970   13.2650 C.3       6 GLP5        0.0000 
@<TRIPOS>BOND
@<TRIPOS>SUBSTRUCTURE
     1 ALC1       17 GROUP        1 X    ALC  0     ROOT ALC X 1
     2 SEC2       20 GROUP        1 X    SEC  0     **** SEC X 2
     3 GLC5        1 GROUP        1 X    GLC  0     **** GLC X 6
     4 ALP1       19 GROUP        1 Y    ALP  0     ROOT ALP Y 8
     5 SEP2       22 GROUP        1 Y    SEP  0     **** SEP Y 9
     6 GLP5        3 GROUP        1 Y    GLP  0     **** GLP Y 13
     7 ALL1       18 GROUP        1 Z    ALL  0     ROOT ALL Z 15
     8 SEL2       21 GROUP        1 Z    SEL  0     **** SEL Z 16
     9 GLL5        2 GROUP        1 Z    GLL  0     **** GLL Z 20
@<TRIPOS>SET

