#    Name: 1r0e_DFN_2_ligand
#    Modification time : Tue Mar 25 00:13:51 2014

@<TRIPOS>MOLECULE
1r0e_DFN_2_ligand
   50    53     1     0     0
SMALL
NO_CHARGES


@<TRIPOS>ATOM
      1 C28        60.0820   61.7480    9.1010 C.3       1 DFN501      0.0000 
      2 N22        61.4980   61.5260    9.3650 N.pl3     1 DFN501      0.0000 
      3 C48        62.4330   61.3030    8.3900 C.2       1 DFN501      0.0000 
      4 C21        62.0970   61.4950   10.6040 C.ar      1 DFN501      0.0000 
      5 C24        61.5420   61.6690   11.8880 C.ar      1 DFN501      0.0000 
      6 C31        62.3920   61.5920   12.9980 C.ar      1 DFN501      0.0000 
      7 C29        63.7470   61.3410   12.7970 C.ar      1 DFN501      0.0000 
      8 F39        64.5510   61.2760   13.8610 F         1 DFN501      0.0000 
      9 C20        63.4680   61.2380   10.3910 C.ar      1 DFN501      0.0000 
     10 C23        64.2970   61.1630   11.5250 C.ar      1 DFN501      0.0000 
     11 C19        63.6730   61.1390    8.9680 C.2       1 DFN501      0.0000 
     12 C01        64.8400   60.8580    8.1780 C.2       1 DFN501      0.0000 
     13 C02        65.9370   60.0850    8.4070 C.2       1 DFN501      0.0000 
     14 C03        66.7780   60.1250    7.1860 C.2       1 DFN501      0.0000 
     15 O06        67.8550   59.5430    7.0210 O.2       1 DFN501      0.0000 
     16 N04        66.1390   60.9100    6.3000 N.am      1 DFN501      0.0000 
     17 C05        64.9790   61.3830    6.7870 C.2       1 DFN501      0.0000 
     18 O07        64.1970   62.1100    6.1750 O.2       1 DFN501      0.0000 
     19 C08        66.3450   59.2760    9.5560 C.ar      1 DFN501      0.0000 
     20 C09        65.4090   58.4240   10.1820 C.ar      1 DFN501      0.0000 
     21 C10        65.7570   57.6170   11.2860 C.ar      1 DFN501      0.0000 
     22 C11        67.0820   57.6380   11.7320 C.ar      1 DFN501      0.0000 
     23 C12        68.0360   58.4500   11.1080 C.ar      1 DFN501      0.0000 
     24 C13        67.6730   59.2600   10.0170 C.ar      1 DFN501      0.0000 
     25 N15        64.8790   56.8050   11.9480 N.pl3     1 DFN501      0.0000 
     26 C26        63.4590   56.6690   11.6420 C.3       1 DFN501      0.0000 
     27 C34        62.6970   57.8950   12.1580 C.3       1 DFN501      0.0000 
     28 O41        62.4910   57.8080   13.5800 O.3       1 DFN501      0.0000 
     29 C40        61.3670   57.9920   11.4170 C.3       1 DFN501      0.0000 
     30 O45        60.4280   57.0920   12.0020 O.3       1 DFN501      0.0000 
     31 H          62.2560   61.2656    7.4432 H         1 DFN501      0.0000 
     32 H          60.5513   61.8454   12.0005 H         1 DFN501      0.0000 
     33 H          62.0206   61.7185   13.9394 H         1 DFN501      0.0000 
     34 H          65.2964   60.9790   11.4144 H         1 DFN501      0.0000 
     35 H          66.4840   61.1154    5.3936 H         1 DFN501      0.0000 
     36 H          64.4399   58.3907    9.8204 H         1 DFN501      0.0000 
     37 H          67.3605   57.0480   12.5307 H         1 DFN501      0.0000 
     38 H          69.0049   58.4566   11.4455 H         1 DFN501      0.0000 
     39 H          68.3805   59.8415    9.5559 H         1 DFN501      0.0000 
     40 H          65.2234   56.2106   12.7558 H         1 DFN501      0.0000 
     41 H          63.0373   55.7816   12.1184 H         1 DFN501      0.0000 
     42 H          63.2941   56.5949   10.5651 H         1 DFN501      0.0000 
     43 H          63.2823   58.7730   11.9020 H         1 DFN501      0.0000 
     44 H          61.5530   57.7578   10.3628 H         1 DFN501      0.0000 
     45 H          61.0257   59.0316   11.4761 H         1 DFN501      0.0000 
     46 H          59.9329   62.5541    8.5283 H         1 DFN501      0.0000 
     47 H          59.6662   60.9713    8.6278 H         1 DFN501      0.0000 
     48 H          59.5644   61.8883    9.9450 H         1 DFN501      0.0000 
     49 H          61.5283   57.5594   13.6872 H         1 DFN501      0.0000 
     50 H          60.5408   56.2362   11.4971 H         1 DFN501      0.0000 
@<TRIPOS>BOND
     1    2    1 1    
     2   46    1 1    
     3   47    1 1    
     4   48    1 1    
     5    3    2 1    
     6    4    2 1    
     7   11    3 2    
     8   31    3 1    
     9    5    4 ar   
    10    9    4 ar   
    11    6    5 ar   
    12   32    5 1    
    13    7    6 ar   
    14   33    6 1    
    15    8    7 1    
    16   10    7 ar   
    17   10    9 ar   
    18   11    9 1    
    19   34   10 1    
    20   12   11 1    
    21   13   12 2    
    22   17   12 1    
    23   14   13 1    
    24   19   13 1    
    25   15   14 2    
    26   16   14 am   
    27   17   16 am   
    28   35   16 1    
    29   18   17 2    
    30   20   19 ar   
    31   24   19 ar   
    32   21   20 ar   
    33   36   20 1    
    34   22   21 ar   
    35   25   21 1    
    36   23   22 ar   
    37   37   22 1    
    38   24   23 ar   
    39   38   23 1    
    40   39   24 1    
    41   26   25 1    
    42   40   25 1    
    43   27   26 1    
    44   41   26 1    
    45   42   26 1    
    46   28   27 1    
    47   29   27 1    
    48   43   27 1    
    49   49   28 1    
    50   30   29 1    
    51   44   29 1    
    52   45   29 1    
    53   50   30 1    
@<TRIPOS>SUBSTRUCTURE
     1 DFN501      1 GROUP   
@<TRIPOS>SET

