#    Name: 2cf6_NAP_1_INTS_M
#    Modification time : Mon Mar 24 23:37:55 2014

@<TRIPOS>MOLECULE
2cf6_NAP_1_INTS_M
   58     0     9     0     0
SMALL
NO_CHARGES


@<TRIPOS>ATOM
      1 CA         52.9890   31.9065   86.0150 C.3       3 GLC5        0.0000 
      2 CA         51.1110   31.0830   86.1750 C.3       9 GLL5        0.0000 
      3 CA         54.8670   32.7300   85.8550 C.3       6 GLP5        0.0000 
      4 N          47.7400   29.5165   84.1085 N.am      2 SEC2        0.0000 
      5 N          48.4210   30.7010   83.9540 N.am      8 SEL2        0.0000 
      6 N          47.0590   28.3320   84.2630 N.am      5 SEP2        0.0000 
      7 CA         53.9290   28.6690   79.0945 C.3       3 GLC5        0.0000 
      8 CA         55.4870   29.8320   80.1320 C.3       9 GLL5        0.0000 
      9 CA         52.3710   27.5060   78.0570 C.3       6 GLP5        0.0000 
     10 CA         53.1240   29.2035   78.4270 C.3       3 GLC5        0.0000 
     11 CA         53.8770   30.9010   78.7970 C.3       9 GLL5        0.0000 
     12 CA         54.3445   32.5315   79.8660 C.3       3 GLC5        0.0000 
     13 CA         54.8120   34.1620   80.9350 C.3       6 GLP5        0.0000 
     14 CA         52.8595   29.0120   79.5425 C.3       3 GLC5        0.0000 
     15 CA         53.3480   30.5180   81.0280 C.3       9 GLL5        0.0000 
     16 CA         54.0800   32.3400   80.9815 C.3       3 GLC5        0.0000 
     17 CA         50.5765   37.1970   88.0145 C.3       3 GLC5        0.0000 
     18 CA         52.2070   35.7280   87.9550 C.3       9 GLL5        0.0000 
     19 CA         48.9460   38.6660   88.0740 C.3       6 GLP5        0.0000 
     20 CA         54.8610   34.7245   87.4825 C.3       3 GLC5        0.0000 
     21 CA         53.5760   36.1460   88.5330 C.3       9 GLL5        0.0000 
     22 CA         56.1460   33.3030   86.4320 C.3       6 GLP5        0.0000 
     23 CA         54.7270   37.5915   87.3100 C.3       3 GLC5        0.0000 
     24 CA         55.8780   39.0370   86.0870 C.3       6 GLP5        0.0000 
     25 CA         53.0865   34.2215   91.1375 C.3       3 GLC5        0.0000 
     26 CA         53.8170   35.6810   89.9590 C.3       9 GLL5        0.0000 
     27 CA         52.3560   32.7620   92.3160 C.3       6 GLP5        0.0000 
     28 O          53.3480   37.2940   93.2125 O.2       1 ALC1        0.0000 
     29 O          54.1490   36.8720   92.0730 O.2       7 ALL1        0.0000 
     30 O          52.5470   37.7160   94.3520 O.2       4 ALP1        0.0000 
     31 CA         54.9050   38.5495   87.9930 C.3       3 GLC5        0.0000 
     32 CA         53.9320   38.0620   89.8990 C.3       9 GLL5        0.0000 
     33 CA         54.6890   39.7735   87.8045 C.3       3 GLC5        0.0000 
     34 CA         53.5000   40.5100   89.5220 C.3       9 GLL5        0.0000 
     35 O          50.7235   43.8155   89.6710 O.2       1 ALC1        0.0000 
     36 O          52.2320   44.0000   89.2590 O.2       7 ALL1        0.0000 
     37 O          49.2150   43.6310   90.0830 O.2       4 ALP1        0.0000 
     38 CA         51.1160   43.2475   91.4520 C.3       3 GLC5        0.0000 
     39 CA         51.4010   41.4860   90.1660 C.3       9 GLL5        0.0000 
     40 CA         50.8310   45.0090   92.7380 C.3       6 GLP5        0.0000 
     41 N          47.9830   28.5925   78.4555 N.am      2 SEC2        0.0000 
     42 N          48.2600   28.7690   79.8020 N.am      8 SEL2        0.0000 
     43 N          47.7060   28.4160   77.1090 N.am      5 SEP2        0.0000 
     44 N          50.6475   28.9200   78.0600 N.am      2 SEC2        0.0000 
     45 N          50.6030   29.1440   79.3500 N.am      8 SEL2        0.0000 
     46 N          50.6920   28.6960   76.7700 N.am      5 SEP2        0.0000 
     47 CA         50.2390   31.9175   81.5930 C.3       3 GLC5        0.0000 
     48 CA         50.4280   29.8670   82.8280 C.3       9 GLL5        0.0000 
     49 CA         49.5410   33.4110   80.4810 C.3       6 GLP5        0.0000 
     50 CA         55.6138   31.7125   80.7763 C.3       3 GLC5        0.0000 
     51 CA         54.5800   29.9340   81.1810 C.3       9 GLL5        0.0000 
     52 CA         56.1940   33.5420   80.8960 C.3       6 GLP5        0.0000 
     53 CA         54.6205   31.4440   82.7508 C.3       3 GLC5        0.0000 
     54 CA         55.2770   32.6620   84.3970 C.3       6 GLP5        0.0000 
     55 CA         50.1911   41.8241   89.0718 C.3       3 GLC5        0.0000 
     56 CA         50.9380   40.2590   90.6290 C.3       9 GLL5        0.0000 
     57 CA         48.8950   42.7390   87.8850 C.3       6 GLP5        0.0000 
     58 CA         50.2051   39.3364   89.2716 C.3       3 GLC5        0.0000 
@<TRIPOS>BOND
@<TRIPOS>SUBSTRUCTURE
     1 ALC1       28 GROUP        1 X    ALC  0     ROOT ALC X 1
     2 SEC2        4 GROUP        1 X    SEC  0     **** SEC X 2
     3 GLC5        1 GROUP        1 X    GLC  0     **** GLC X 6
     4 ALP1       30 GROUP        1 Y    ALP  0     ROOT ALP Y 8
     5 SEP2        6 GROUP        1 Y    SEP  0     **** SEP Y 9
     6 GLP5        3 GROUP        1 Y    GLP  0     **** GLP Y 13
     7 ALL1       29 GROUP        1 Z    ALL  0     ROOT ALL Z 15
     8 SEL2        5 GROUP        1 Z    SEL  0     **** SEL Z 16
     9 GLL5        2 GROUP        1 Z    GLL  0     **** GLL Z 20
@<TRIPOS>SET

