#    Name: 2cf6_NAP_1_ligand
#    Modification time : Mon Mar 24 23:37:55 2014

@<TRIPOS>MOLECULE
2cf6_NAP_1_ligand
   73    77     1     0     0
SMALL
NO_CHARGES


@<TRIPOS>ATOM
      1 PA         49.6230   32.9960   87.3780 P.3       1 NAP450      0.0000 
      2 O1A        48.4220   32.1280   87.3870 O.co2     1 NAP450      0.0000 
      3 O2A        49.7900   34.0050   86.3080 O.co2     1 NAP450      0.0000 
      4 O5B        50.9010   31.9800   87.3230 O.3       1 NAP450      0.0000 
      5 C5B        51.1110   31.0830   86.1750 C.3       1 NAP450      0.0000 
      6 C4B        50.5640   31.4320   84.7650 C.3       1 NAP450      0.0000 
      7 O4B        51.5280   31.8220   83.7500 O.3       1 NAP450      0.0000 
      8 C3B        49.7720   30.2790   84.1500 C.3       1 NAP450      0.0000 
      9 O3B        48.4210   30.7010   83.9540 O.3       1 NAP450      0.0000 
     10 C2B        50.4280   29.8670   82.8280 C.3       1 NAP450      0.0000 
     11 O2B        49.4320   29.6960   81.7500 O.3       1 NAP450      0.0000 
     12 C1B        51.4460   30.9810   82.5820 C.3       1 NAP450      0.0000 
     13 N9A        52.7800   30.4270   82.2270 N.pl3     1 NAP450      0.0000 
     14 C8A        53.6490   29.8110   83.0490 C.2       1 NAP450      0.0000 
     15 N7A        54.7830   29.4950   82.4120 N.2       1 NAP450      0.0000 
     16 C5A        54.5800   29.9340   81.1810 C.ar      1 NAP450      0.0000 
     17 C6A        55.4870   29.8320   80.1320 C.ar      1 NAP450      0.0000 
     18 N6A        56.6960   29.3030   80.2870 N.pl3     1 NAP450      0.0000 
     19 N1A        55.0800   30.3390   78.9470 N.ar      1 NAP450      0.0000 
     20 C2A        53.8770   30.9010   78.7970 C.ar      1 NAP450      0.0000 
     21 N3A        53.0170   30.9980   79.8120 N.ar      1 NAP450      0.0000 
     22 C4A        53.3480   30.5180   81.0280 C.ar      1 NAP450      0.0000 
     23 O3         49.6430   33.7900   88.7980 O.3       1 NAP450      0.0000 
     24 PN         49.9840   35.2510   89.4760 P.3       1 NAP450      0.0000 
     25 O1N        50.7460   34.9920   90.7210 O.co2     1 NAP450      0.0000 
     26 O2N        48.6980   35.9660   89.6300 O.co2     1 NAP450      0.0000 
     27 O5D        50.9260   36.1630   88.4930 O.3       1 NAP450      0.0000 
     28 C5D        52.2070   35.7280   87.9550 C.3       1 NAP450      0.0000 
     29 C4D        53.5760   36.1460   88.5330 C.3       1 NAP450      0.0000 
     30 O4D        53.8990   37.5620   88.5480 O.3       1 NAP450      0.0000 
     31 C3D        53.8170   35.6810   89.9590 C.3       1 NAP450      0.0000 
     32 O3D        55.1510   35.1940   90.1690 O.3       1 NAP450      0.0000 
     33 C2D        53.4990   36.9060   90.7950 C.3       1 NAP450      0.0000 
     34 O2D        54.1490   36.8720   92.0730 O.3       1 NAP450      0.0000 
     35 C1D        53.9320   38.0620   89.8990 C.3       1 NAP450      0.0000 
     36 N1N        53.0500   39.2580   89.9920 N.pl3     1 NAP450      0.0000 
     37 C2N        53.5000   40.5100   89.5220 C.ar      1 NAP450      0.0000 
     38 C3N        52.6720   41.6330   89.6100 C.ar      1 NAP450      0.0000 
     39 C7N        53.1210   43.0200   89.1140 C.2       1 NAP450      0.0000 
     40 O7N        54.2310   43.2000   88.6160 O.2       1 NAP450      0.0000 
     41 N7N        52.2320   44.0000   89.2590 N.am      1 NAP450      0.0000 
     42 C4N        51.4010   41.4860   90.1660 C.ar      1 NAP450      0.0000 
     43 C5N        50.9380   40.2590   90.6290 C.ar      1 NAP450      0.0000 
     44 C6N        51.7590   39.1410   90.5410 C.ar      1 NAP450      0.0000 
     45 P2B        49.6220   28.7180   80.3780 P.3       1 NAP450      0.0000 
     46 O1X        48.2600   28.7690   79.8020 O.co2     1 NAP450      0.0000 
     47 O2X        50.6030   29.1440   79.3500 O.co2     1 NAP450      0.0000 
     48 O3X        49.8930   27.3450   80.8840 O.co2     1 NAP450      0.0000 
     49 H          50.7133   30.0440   86.4269 H         1 NAP450      0.0000 
     50 H          52.2269   30.8838   86.0476 H         1 NAP450      0.0000 
     51 H          49.8258   32.2575   84.8883 H         1 NAP450      0.0000 
     52 H          49.8299   29.4427   84.8302 H         1 NAP450      0.0000 
     53 H          50.9754   28.9579   83.0188 H         1 NAP450      0.0000 
     54 H          51.0753   31.5691   81.7336 H         1 NAP450      0.0000 
     55 H          53.4694   29.6183   84.0007 H         1 NAP450      0.0000 
     56 H          57.2750   29.2821   79.4719 H         1 NAP450      0.0000 
     57 H          56.9178   28.9735   81.2047 H         1 NAP450      0.0000 
     58 H          53.6003   31.2786   77.8478 H         1 NAP450      0.0000 
     59 H          52.2498   35.9795   86.8270 H         1 NAP450      0.0000 
     60 H          52.2245   34.5727   87.9042 H         1 NAP450      0.0000 
     61 H          54.3682   35.6261   87.9251 H         1 NAP450      0.0000 
     62 H          53.0642   34.9357   90.1833 H         1 NAP450      0.0000 
     63 H          52.4183   36.9557   90.8785 H         1 NAP450      0.0000 
     64 H          54.9452   38.3286   90.1598 H         1 NAP450      0.0000 
     65 H          54.4377   40.5904   89.1158 H         1 NAP450      0.0000 
     66 H          51.3641   43.7471   89.6864 H         1 NAP450      0.0000 
     67 H          52.5122   44.9009   88.9274 H         1 NAP450      0.0000 
     68 H          50.7822   42.3204   90.2356 H         1 NAP450      0.0000 
     69 H          49.9991   40.1803   91.0317 H         1 NAP450      0.0000 
     70 H          51.4319   38.2279   90.8736 H         1 NAP450      0.0000 
     71 H          48.3337   30.8392   82.9674 H         1 NAP450      0.0000 
     72 H          55.3021   35.2704   91.1545 H         1 NAP450      0.0000 
     73 H          53.4469   37.1516   92.7279 H         1 NAP450      0.0000 
@<TRIPOS>BOND
     1    2    1 ar   
     2    3    1 ar   
     3    4    1 1    
     4   23    1 1    
     5    5    4 1    
     6    6    5 1    
     7   49    5 1    
     8   50    5 1    
     9    7    6 1    
    10    8    6 1    
    11   51    6 1    
    12   12    7 1    
    13    9    8 1    
    14   10    8 1    
    15   52    8 1    
    16   71    9 1    
    17   11   10 1    
    18   12   10 1    
    19   53   10 1    
    20   45   11 1    
    21   13   12 1    
    22   54   12 1    
    23   14   13 1    
    24   22   13 1    
    25   15   14 2    
    26   55   14 1    
    27   16   15 1    
    28   17   16 ar   
    29   22   16 ar   
    30   18   17 1    
    31   19   17 ar   
    32   56   18 1    
    33   57   18 1    
    34   20   19 ar   
    35   21   20 ar   
    36   58   20 1    
    37   22   21 ar   
    38   24   23 1    
    39   25   24 ar   
    40   26   24 ar   
    41   27   24 1    
    42   28   27 1    
    43   29   28 1    
    44   59   28 1    
    45   60   28 1    
    46   30   29 1    
    47   31   29 1    
    48   61   29 1    
    49   35   30 1    
    50   32   31 1    
    51   33   31 1    
    52   62   31 1    
    53   72   32 1    
    54   34   33 1    
    55   35   33 1    
    56   63   33 1    
    57   73   34 1    
    58   36   35 1    
    59   64   35 1    
    60   37   36 ar   
    61   44   36 ar   
    62   38   37 ar   
    63   65   37 1    
    64   39   38 1    
    65   42   38 ar   
    66   40   39 2    
    67   41   39 am   
    68   66   41 1    
    69   67   41 1    
    70   43   42 ar   
    71   68   42 1    
    72   44   43 ar   
    73   69   43 1    
    74   70   44 1    
    75   46   45 ar   
    76   47   45 ar   
    77   48   45 ar   
@<TRIPOS>SUBSTRUCTURE
     1 NAP450      1 GROUP   
@<TRIPOS>SET

