#    Name: 4k2x_FAD_1_INTS_M
#    Modification time : Tue Mar 25 06:47:31 2014

@<TRIPOS>MOLECULE
4k2x_FAD_1_INTS_M
  125     0     9     0     0
SMALL
NO_CHARGES


@<TRIPOS>ATOM
      1 CA         23.2995   20.2865   21.5305 C.3       3 GLC5        0.0000 
      2 CA         25.1360   20.4800   20.9230 C.3       9 GLL5        0.0000 
      3 CA         21.4630   20.0930   22.1380 C.3       6 GLP5        0.0000 
      4 CA         26.7175   22.9520   20.6985 C.3       3 GLC5        0.0000 
      5 CA         26.4010   21.1560   21.3510 C.3       9 GLL5        0.0000 
      6 CA         27.0340   24.7480   20.0460 C.3       6 GLP5        0.0000 
      7 O          29.1435   21.3790   21.3715 O.2       1 ALC1        0.0000 
      8 O          28.5460   20.2350   21.5650 O.2       7 ALL1        0.0000 
      9 O          29.7410   22.5230   21.1780 O.2       4 ALP1        0.0000 
     10 O          29.6120   21.1460   22.3395 O.2       1 ALC1        0.0000 
     11 O          30.6780   22.0570   23.1140 O.2       4 ALP1        0.0000 
     12 O          29.6475   21.5075   23.6370 O.2       1 ALC1        0.0000 
     13 O          28.6170   20.9580   24.1600 O.2       7 ALL1        0.0000 
     14 CA         27.0555   23.6125   21.5845 C.3       3 GLC5        0.0000 
     15 CA         27.0770   22.4770   23.1230 C.3       9 GLL5        0.0000 
     16 CA         25.0830   23.0320   22.5480 C.3       3 GLC5        0.0000 
     17 CA         23.0890   23.5870   21.9730 C.3       6 GLP5        0.0000 
     18 CA         27.7750   27.2645   26.9455 C.3       3 GLC5        0.0000 
     19 CA         26.1070   26.4090   25.8590 C.3       9 GLL5        0.0000 
     20 CA         29.4430   28.1200   28.0320 C.3       6 GLP5        0.0000 
     21 O          25.3080   28.3880   27.4060 O.2       1 ALC1        0.0000 
     22 O          25.4130   26.9160   26.8840 O.2       7 ALL1        0.0000 
     23 O          25.2030   29.8600   27.9280 O.2       4 ALP1        0.0000 
     24 O          24.0420   26.5120   27.5585 O.2       1 ALC1        0.0000 
     25 O          22.6710   26.1080   28.2330 O.2       4 ALP1        0.0000 
     26 N          27.2195   28.6680   25.7480 N.am      2 SEC2        0.0000 
     27 N          26.9200   27.2340   25.1560 N.am      8 SEL2        0.0000 
     28 N          27.5190   30.1020   26.3400 N.am      5 SEP2        0.0000 
     29 CA         26.1535   27.7155   22.8305 C.3       3 GLC5        0.0000 
     30 CA         27.6160   26.7350   24.1280 C.3       9 GLL5        0.0000 
     31 CA         24.6910   28.6960   21.5330 C.3       6 GLP5        0.0000 
     32 CA         29.4425   26.1485   23.0370 C.3       3 GLC5        0.0000 
     33 CA         31.2690   25.5620   21.9460 C.3       6 GLP5        0.0000 
     34 CA         28.7430   25.3385   25.2360 C.3       3 GLC5        0.0000 
     35 CA         29.8700   23.9420   26.3440 C.3       6 GLP5        0.0000 
     36 CA         28.6055   27.8490   25.4555 C.3       3 GLC5        0.0000 
     37 CA         29.5950   28.9630   26.7830 C.3       6 GLP5        0.0000 
     38 N          29.2255   25.1800   23.9660 N.am      2 SEC2        0.0000 
     39 N          27.6380   25.4780   23.6680 N.am      8 SEL2        0.0000 
     40 N          30.8130   24.8820   24.2640 N.am      5 SEP2        0.0000 
     41 CA         26.9265   24.7145   22.2140 C.3       3 GLC5        0.0000 
     42 CA         26.8190   24.6810   24.3820 C.3       9 GLL5        0.0000 
     43 N          20.7865   11.8545   14.3865 N.am      2 SEC2        0.0000 
     44 N          21.0660   10.4290   14.7730 N.am      8 SEL2        0.0000 
     45 N          20.5070   13.2800   14.0000 N.am      5 SEP2        0.0000 
     46 N          20.6645   12.1460   11.8600 N.am      2 SEC2        0.0000 
     47 N          20.8730   10.6920   12.5140 N.am      8 SEL2        0.0000 
     48 N          20.4560   13.6000   11.2060 N.am      5 SEP2        0.0000 
     49 O          21.7295    8.1585   11.7050 O.2       1 ALC1        0.0000 
     50 O          21.6840    8.6980   13.2400 O.2       7 ALL1        0.0000 
     51 O          21.7750    7.6190   10.1700 O.2       4 ALP1        0.0000 
     52 N          24.1790    6.7885   14.0475 N.am      2 SEC2        0.0000 
     53 N          22.5780    6.7130   13.8670 N.am      8 SEL2        0.0000 
     54 N          25.7800    6.8640   14.2280 N.am      5 SEP2        0.0000 
     55 CA         24.2580    7.9805   19.1365 C.3       3 GLC5        0.0000 
     56 CA         22.2890    7.0330   18.9390 C.3       9 GLL5        0.0000 
     57 CA         26.2270    8.9280   19.3340 C.3       6 GLP5        0.0000 
     58 CA         22.5670    5.6535   23.1090 C.3       3 GLC5        0.0000 
     59 CA         22.3550    6.4340   21.3690 C.3       9 GLL5        0.0000 
     60 CA         22.7790    4.8730   24.8490 C.3       6 GLP5        0.0000 
     61 CA         24.2040    6.7755   22.2280 C.3       3 GLC5        0.0000 
     62 CA         26.0530    7.1170   23.0870 C.3       6 GLP5        0.0000 
     63 CA         20.8780    5.7000   22.3420 C.3       3 GLC5        0.0000 
     64 CA         19.4010    4.9660   23.3150 C.3       6 GLP5        0.0000 
     65 CA         20.2915    7.0385   21.1675 C.3       3 GLC5        0.0000 
     66 CA         18.2280    7.6430   20.9660 C.3       6 GLP5        0.0000 
     67 CA         19.5905   12.2190   16.1025 C.3       3 GLC5        0.0000 
     68 CA         20.9180   11.4780   17.3270 C.3       9 GLL5        0.0000 
     69 CA         18.2630   12.9600   14.8780 C.3       6 GLP5        0.0000 
     70 CA         23.4840   11.1945   15.9655 C.3       3 GLC5        0.0000 
     71 CA         22.1020   12.4310   17.1780 C.3       9 GLL5        0.0000 
     72 CA         24.8660    9.9580   14.7530 C.3       6 GLP5        0.0000 
     73 CA         22.4885   12.7865   15.1985 C.3       3 GLC5        0.0000 
     74 CA         22.8750   13.1420   13.2190 C.3       6 GLP5        0.0000 
     75 CA         19.9965   13.4070   16.2395 C.3       3 GLC5        0.0000 
     76 CA         21.7300   13.8540   17.6010 C.3       9 GLL5        0.0000 
     77 O          19.6945   15.1740   17.7330 O.2       1 ALC1        0.0000 
     78 O          20.4310   14.1590   17.0990 O.2       7 ALL1        0.0000 
     79 O          18.9580   16.1890   18.3670 O.2       4 ALP1        0.0000 
     80 O          20.3075   14.8915   18.6175 O.2       1 ALC1        0.0000 
     81 O          20.1840   15.6240   20.1360 O.2       4 ALP1        0.0000 
     82 N          25.2880   14.4075   17.6370 N.am      2 SEC2        0.0000 
     83 N          23.9240   14.7840   17.9770 N.am      8 SEL2        0.0000 
     84 N          26.6520   14.0310   17.2970 N.am      5 SEP2        0.0000 
     85 CA         20.7730   17.1000   18.7300 C.3       3 GLC5        0.0000 
     86 CA         22.2160   16.3470   17.3800 C.3       9 GLL5        0.0000 
     87 CA         19.3300   17.8530   20.0800 C.3       6 GLP5        0.0000 
     88 N          21.8345   19.5955   16.0175 N.am      2 SEC2        0.0000 
     89 N          21.7290   19.2930   17.4390 N.am      8 SEL2        0.0000 
     90 N          21.9400   19.8980   14.5960 N.am      5 SEP2        0.0000 
     91 N          20.2970   19.2605   17.7415 N.am      2 SEC2        0.0000 
     92 N          18.8650   19.2280   18.0440 N.am      5 SEP2        0.0000 
     93 N          24.4785   19.8000   15.4440 N.am      2 SEC2        0.0000 
     94 N          24.2330   19.4950   16.9290 N.am      8 SEL2        0.0000 
     95 N          24.7240   20.1050   13.9590 N.am      5 SEP2        0.0000 
     96 N          24.7155   20.7495   17.0770 N.am      2 SEC2        0.0000 
     97 N          25.1980   22.0040   17.2250 N.am      5 SEP2        0.0000 
     98 N          22.1090   20.0340   18.9355 N.am      2 SEC2        0.0000 
     99 N          23.2200   18.7090   19.1720 N.am      8 SEL2        0.0000 
    100 N          20.9980   21.3590   18.6990 N.am      5 SEP2        0.0000 
    101 CA         26.6747   20.2565   19.2125 C.3       3 GLC5        0.0000 
    102 CA         27.5810   19.6950   17.2880 C.3       6 GLP5        0.0000 
    103 CA         24.4287   22.2025   21.5550 C.3       3 GLC5        0.0000 
    104 CA         28.1502   24.4050   25.6333 C.3       3 GLC5        0.0000 
    105 CA         24.8189   24.9748   24.0153 C.3       3 GLC5        0.0000 
    106 CA         26.0420   25.0550   25.4630 C.3       9 GLL5        0.0000 
    107 CA         23.1910   24.7430   23.0090 C.3       6 GLP5        0.0000 
    108 CA         23.4725    8.6550   16.8272 C.3       3 GLC5        0.0000 
    109 CA         21.5750    9.2190   18.1580 C.3       9 GLL5        0.0000 
    110 CA         25.1690    8.7550   15.6360 C.3       6 GLP5        0.0000 
    111 CA         23.7182    9.1498   20.0943 C.3       3 GLC5        0.0000 
    112 CA         22.1730    7.4450   20.2610 C.3       9 GLL5        0.0000 
    113 CA         25.4590   10.1890   19.7880 C.3       6 GLP5        0.0000 
    114 CA         20.2810    7.3828   19.4350 C.3       3 GLC5        0.0000 
    115 CA         18.4090    7.3120   19.5350 C.3       6 GLP5        0.0000 
    116 CA         19.9590    8.3265   21.1082 C.3       3 GLC5        0.0000 
    117 CA         21.7820    8.7760   20.5400 C.3       9 GLL5        0.0000 
    118 CA         23.4990    9.8100   19.3050 C.3       3 GLC5        0.0000 
    119 CA         21.5030    9.6430   19.4860 C.3       9 GLL5        0.0000 
    120 CA         19.9740    8.3715   19.1785 C.3       3 GLC5        0.0000 
    121 CA         21.9155   14.2035   15.3833 C.3       3 GLC5        0.0000 
    122 CA         21.5990   14.0110   13.3630 C.3       6 GLP5        0.0000 
    123 CA         24.0920   16.1352   15.9705 C.3       3 GLC5        0.0000 
    124 CA         22.7340   14.9380   17.2060 C.3       9 GLL5        0.0000 
    125 CA         25.7090   16.6280   14.6480 C.3       6 GLP5        0.0000 
@<TRIPOS>BOND
@<TRIPOS>SUBSTRUCTURE
     1 ALC1        7 GROUP        1 X    ALC  0     ROOT ALC X 1
     2 SEC2       26 GROUP        1 X    SEC  0     **** SEC X 2
     3 GLC5        1 GROUP        1 X    GLC  0     **** GLC X 6
     4 ALP1        9 GROUP        1 Y    ALP  0     ROOT ALP Y 8
     5 SEP2       28 GROUP        1 Y    SEP  0     **** SEP Y 9
     6 GLP5        3 GROUP        1 Y    GLP  0     **** GLP Y 13
     7 ALL1        8 GROUP        1 Z    ALL  0     ROOT ALL Z 15
     8 SEL2       27 GROUP        1 Z    SEL  0     **** SEL Z 16
     9 GLL5        2 GROUP        1 Z    GLL  0     **** GLL Z 20
@<TRIPOS>SET

