#    Name: 4k2x_FAD_1_ligand
#    Modification time : Tue Mar 25 06:47:31 2014

@<TRIPOS>MOLECULE
4k2x_FAD_1_ligand
   84    89     1     0     0
SMALL
NO_CHARGES


@<TRIPOS>ATOM
      1 PA         24.5160   18.1680   19.9910 P.3       1 FAD601      0.0000 
      2 O1A        25.0620   17.1130   19.1230 O.co2     1 FAD601      0.0000 
      3 O2A        23.9930   17.7790   21.3850 O.co2     1 FAD601      0.0000 
      4 O5B        25.5950   19.2330   20.3490 O.3       1 FAD601      0.0000 
      5 C5B        25.1360   20.4800   20.9230 C.3       1 FAD601      0.0000 
      6 C4B        26.4010   21.1560   21.3510 C.3       1 FAD601      0.0000 
      7 O4B        26.1300   22.3710   22.0830 O.3       1 FAD601      0.0000 
      8 C3B        27.2930   20.2880   22.2310 C.3       1 FAD601      0.0000 
      9 O3B        28.5460   20.2350   21.5650 O.3       1 FAD601      0.0000 
     10 C2B        27.3350   21.0420   23.5650 C.3       1 FAD601      0.0000 
     11 O2B        28.6170   20.9580   24.1600 O.3       1 FAD601      0.0000 
     12 C1B        27.0770   22.4770   23.1230 C.3       1 FAD601      0.0000 
     13 N9A        26.5360   23.3510   24.1610 N.pl3     1 FAD601      0.0000 
     14 C8A        25.6120   23.0070   25.1100 C.2       1 FAD601      0.0000 
     15 N7A        25.2830   23.9850   25.9160 N.2       1 FAD601      0.0000 
     16 C5A        26.0420   25.0550   25.4630 C.ar      1 FAD601      0.0000 
     17 C6A        26.1070   26.4090   25.8590 C.ar      1 FAD601      0.0000 
     18 N6A        25.4130   26.9160   26.8840 N.pl3     1 FAD601      0.0000 
     19 N1A        26.9200   27.2340   25.1560 N.ar      1 FAD601      0.0000 
     20 C2A        27.6160   26.7350   24.1280 C.ar      1 FAD601      0.0000 
     21 N3A        27.6380   25.4780   23.6680 N.ar      1 FAD601      0.0000 
     22 C4A        26.8190   24.6810   24.3820 C.ar      1 FAD601      0.0000 
     23 N1         21.0660   10.4290   14.7730 N.2       1 FAD601      0.0000 
     24 C2         21.1960    9.9840   13.4820 C.2       1 FAD601      0.0000 
     25 O2         20.8730   10.6920   12.5140 O.2       1 FAD601      0.0000 
     26 N3         21.6840    8.6980   13.2400 N.am      1 FAD601      0.0000 
     27 C4         22.0370    7.7700   14.2060 C.2       1 FAD601      0.0000 
     28 O4         22.5780    6.7130   13.8670 O.2       1 FAD601      0.0000 
     29 C4X        21.8260    8.2360   15.5850 C.2       1 FAD601      0.0000 
     30 N5         22.0970    7.4090   16.5700 N.2       1 FAD601      0.0000 
     31 C5X        21.9770    7.8910   17.8790 C.ar      1 FAD601      0.0000 
     32 C6         22.2890    7.0330   18.9390 C.ar      1 FAD601      0.0000 
     33 C7         22.1730    7.4450   20.2610 C.ar      1 FAD601      0.0000 
     34 C7M        22.3550    6.4340   21.3690 C.3       1 FAD601      0.0000 
     35 C8         21.7820    8.7760   20.5400 C.ar      1 FAD601      0.0000 
     36 C8M        21.5980    9.2440   21.9610 C.3       1 FAD601      0.0000 
     37 C9         21.5030    9.6430   19.4860 C.ar      1 FAD601      0.0000 
     38 C9A        21.5750    9.2190   18.1580 C.ar      1 FAD601      0.0000 
     39 N10        21.2750   10.0690   17.0580 N.pl3     1 FAD601      0.0000 
     40 C10        21.3690    9.6080   15.7700 C.2       1 FAD601      0.0000 
     41 C1'        20.9180   11.4780   17.3270 C.3       1 FAD601      0.0000 
     42 C2'        22.1020   12.4310   17.1780 C.3       1 FAD601      0.0000 
     43 O2'        23.2350   11.9860   17.9250 O.3       1 FAD601      0.0000 
     44 C3'        21.7300   13.8540   17.6010 C.3       1 FAD601      0.0000 
     45 O3'        20.4310   14.1590   17.0990 O.3       1 FAD601      0.0000 
     46 C4'        22.7340   14.9380   17.2060 C.3       1 FAD601      0.0000 
     47 O4'        23.9240   14.7840   17.9770 O.3       1 FAD601      0.0000 
     48 C5'        22.2160   16.3470   17.3800 C.3       1 FAD601      0.0000 
     49 O5'        23.2100   17.3010   16.9360 O.3       1 FAD601      0.0000 
     50 P          23.1010   18.7430   17.5850 P.3       1 FAD601      0.0000 
     51 O1P        21.7290   19.2930   17.4390 O.co2     1 FAD601      0.0000 
     52 O2P        24.2330   19.4950   16.9290 O.co2     1 FAD601      0.0000 
     53 O3P        23.2200   18.7090   19.1720 O.3       1 FAD601      0.0000 
     54 H          24.5153   20.3109   21.7810 H         1 FAD601      0.0000 
     55 H          24.6379   21.0871   20.1927 H         1 FAD601      0.0000 
     56 H          26.9875   21.4091   20.4550 H         1 FAD601      0.0000 
     57 H          26.8255   19.3622   22.3566 H         1 FAD601      0.0000 
     58 H          26.5410   20.7245   24.1606 H         1 FAD601      0.0000 
     59 H          28.0042   22.8731   22.7322 H         1 FAD601      0.0000 
     60 H          25.2361   22.0742   25.1588 H         1 FAD601      0.0000 
     61 H          25.5749   27.8810   27.0906 H         1 FAD601      0.0000 
     62 H          24.7945   26.2847   27.3518 H         1 FAD601      0.0000 
     63 H          28.2565   27.4543   23.5879 H         1 FAD601      0.0000 
     64 H          21.7933    8.4080   12.2164 H         1 FAD601      0.0000 
     65 H          22.6131    6.0708   18.7297 H         1 FAD601      0.0000 
     66 H          21.2363   10.6235   19.6907 H         1 FAD601      0.0000 
     67 H          20.5183   11.5809   18.3505 H         1 FAD601      0.0000 
     68 H          20.1208   11.8071   16.6385 H         1 FAD601      0.0000 
     69 H          22.3536   12.4750   16.1067 H         1 FAD601      0.0000 
     70 H          21.6810   13.8480   18.7158 H         1 FAD601      0.0000 
     71 H          22.9709   14.7950   16.1427 H         1 FAD601      0.0000 
     72 H          21.9711   16.4983   18.4384 H         1 FAD601      0.0000 
     73 H          21.2882   16.4491   16.8040 H         1 FAD601      0.0000 
     74 H          23.2621    6.0139   21.3431 H         1 FAD601      0.0000 
     75 H          22.2503    6.8501   22.2723 H         1 FAD601      0.0000 
     76 H          21.6868    5.6925   21.3086 H         1 FAD601      0.0000 
     77 H          22.4406    9.1576   22.4925 H         1 FAD601      0.0000 
     78 H          21.3222   10.2043   22.0030 H         1 FAD601      0.0000 
     79 H          20.8952    8.7161   22.4378 H         1 FAD601      0.0000 
     80 H          28.8646   21.1825   21.5374 H         1 FAD601      0.0000 
     81 H          29.2240   21.4519   23.5374 H         1 FAD601      0.0000 
     82 H          23.7434   12.8187   18.1445 H         1 FAD601      0.0000 
     83 H          20.0841   14.8793   17.6997 H         1 FAD601      0.0000 
     84 H          23.8930   15.5223   18.6509 H         1 FAD601      0.0000 
@<TRIPOS>BOND
     1    2    1 ar   
     2    3    1 ar   
     3    4    1 1    
     4   53    1 1    
     5    5    4 1    
     6    6    5 1    
     7   54    5 1    
     8   55    5 1    
     9    7    6 1    
    10    8    6 1    
    11   56    6 1    
    12   12    7 1    
    13    9    8 1    
    14   10    8 1    
    15   57    8 1    
    16   80    9 1    
    17   11   10 1    
    18   12   10 1    
    19   58   10 1    
    20   81   11 1    
    21   13   12 1    
    22   59   12 1    
    23   14   13 1    
    24   22   13 1    
    25   15   14 2    
    26   60   14 1    
    27   16   15 1    
    28   17   16 ar   
    29   22   16 ar   
    30   18   17 1    
    31   19   17 ar   
    32   61   18 1    
    33   62   18 1    
    34   20   19 ar   
    35   21   20 ar   
    36   63   20 1    
    37   22   21 ar   
    38   24   23 1    
    39   40   23 2    
    40   25   24 2    
    41   26   24 am   
    42   27   26 am   
    43   64   26 1    
    44   28   27 2    
    45   29   27 1    
    46   30   29 2    
    47   40   29 1    
    48   31   30 1    
    49   32   31 ar   
    50   38   31 ar   
    51   33   32 ar   
    52   65   32 1    
    53   34   33 1    
    54   35   33 ar   
    55   74   34 1    
    56   75   34 1    
    57   76   34 1    
    58   36   35 1    
    59   37   35 ar   
    60   77   36 1    
    61   78   36 1    
    62   79   36 1    
    63   38   37 ar   
    64   66   37 1    
    65   39   38 1    
    66   40   39 1    
    67   41   39 1    
    68   42   41 1    
    69   67   41 1    
    70   68   41 1    
    71   43   42 1    
    72   44   42 1    
    73   69   42 1    
    74   82   43 1    
    75   45   44 1    
    76   46   44 1    
    77   70   44 1    
    78   83   45 1    
    79   47   46 1    
    80   48   46 1    
    81   71   46 1    
    82   84   47 1    
    83   49   48 1    
    84   72   48 1    
    85   73   48 1    
    86   50   49 1    
    87   51   50 ar   
    88   52   50 ar   
    89   53   50 1    
@<TRIPOS>SUBSTRUCTURE
     1 FAD601      1 GROUP   
@<TRIPOS>SET

