#    Name: 1pw7_RAB_2_INTS_M
#    Modification time : Mon Mar 24 22:21:24 2014

@<TRIPOS>MOLECULE
1pw7_RAB_2_INTS_M
   30     0     6     0     0
SMALL
NO_CHARGES


@<TRIPOS>ATOM
      1 CA         71.6620   33.1925   -4.7855 C.3       2 GLC5        0.0000 
      2 CA         72.4290   31.5230   -4.5580 C.3       6 GLL5        0.0000 
      3 CA         70.8950   34.8620   -5.0130 C.3       4 GLP5        0.0000 
      4 CA         72.6755   32.2175   -2.5535 C.3       2 GLC5        0.0000 
      5 CA         72.9220   32.9120   -0.5490 C.3       4 GLP5        0.0000 
      6 CA         76.3225   35.1690   -3.3765 C.3       2 GLC5        0.0000 
      7 CA         74.5810   35.1060   -4.4510 C.3       6 GLL5        0.0000 
      8 CA         78.0640   35.2320   -2.3020 C.3       4 GLP5        0.0000 
      9 CA         71.8810   36.1600   -1.5985 C.3       2 GLC5        0.0000 
     10 CA         73.8110   36.0050   -2.5150 C.3       6 GLL5        0.0000 
     11 CA         69.9510   36.3150   -0.6820 C.3       4 GLP5        0.0000 
     12 CA         75.1945   37.7245   -2.0940 C.3       2 GLC5        0.0000 
     13 CA         76.5780   39.4440   -1.6730 C.3       4 GLP5        0.0000 
     14 CA         75.9375   35.6185   -2.4085 C.3       2 GLC5        0.0000 
     15 CA         74.1845   34.8115   -1.3295 C.3       2 GLC5        0.0000 
     16 CA         74.5580   33.6180   -0.1440 C.3       4 GLP5        0.0000 
     17 CA         75.2295   38.4230   -3.0465 C.3       2 GLC5        0.0000 
     18 CA         73.8810   37.4020   -4.4200 C.3       6 GLL5        0.0000 
     19 CA         77.5995   33.2295   -3.4555 C.3       2 GLC5        0.0000 
     20 CA         75.9910   32.1370   -4.1200 C.3       6 GLL5        0.0000 
     21 CA         79.2080   34.3220   -2.7910 C.3       4 GLP5        0.0000 
     22 CA         75.2745   32.8775   -2.1320 C.3       2 GLC5        0.0000 
     23 CA         73.8405   32.1905   -2.0565 C.3       2 GLC5        0.0000 
     24 CA         74.7590   31.4690   -3.5640 C.3       6 GLL5        0.0000 
     25 N          75.8450   29.6915   -1.8910 N.am      1 SEC2        0.0000 
     26 N          75.2150   30.2510   -2.9810 N.am      5 SEL2        0.0000 
     27 N          76.4750   29.1320   -0.8010 N.am      3 SEP2        0.0000 
     28 CA         72.0592   29.8280   -3.9670 C.3       2 GLC5        0.0000 
     29 CA         73.8720   31.0890   -4.7040 C.3       6 GLL5        0.0000 
     30 CA         70.9680   28.3500   -3.3030 C.3       4 GLP5        0.0000 
@<TRIPOS>BOND
@<TRIPOS>SUBSTRUCTURE
     1 SEC2       25 GROUP        1 X    SEC  0     ROOT SEC X 2
     2 GLC5        1 GROUP        1 X    GLC  0     **** GLC X 6
     3 SEP2       27 GROUP        1 Y    SEP  0     ROOT SEP Y 9
     4 GLP5        3 GROUP        1 Y    GLP  0     **** GLP Y 13
     5 SEL2       26 GROUP        1 Z    SEL  0     ROOT SEL Z 16
     6 GLL5        2 GROUP        1 Z    GLL  0     **** GLL Z 20
@<TRIPOS>SET

