#    Name: 1pw7_RAB_2_ligand
#    Modification time : Mon Mar 24 22:21:24 2014

@<TRIPOS>MOLECULE
1pw7_RAB_2_ligand
   32    34     1     0     0
SMALL
NO_CHARGES


@<TRIPOS>ATOM
      1 O5'        71.8960   31.8890   -5.8380 O.3       1 RAB646      0.0000 
      2 C5'        72.4290   31.5230   -4.5580 C.3       1 RAB646      0.0000 
      3 C4'        73.8720   31.0890   -4.7040 C.3       1 RAB646      0.0000 
      4 O4'        74.5730   31.6090   -5.8480 O.3       1 RAB646      0.0000 
      5 C1'        75.5110   32.6230   -5.4720 C.3       1 RAB646      0.0000 
      6 N9         75.0880   34.2140   -5.3920 N.pl3     1 RAB646      0.0000 
      7 C4         74.5810   35.1060   -4.4510 C.ar      1 RAB646      0.0000 
      8 N3         74.2980   34.9000   -3.1190 N.ar      1 RAB646      0.0000 
      9 C2         73.8110   36.0050   -2.5150 C.ar      1 RAB646      0.0000 
     10 N1         73.5910   37.2180   -3.0840 N.ar      1 RAB646      0.0000 
     11 C6         73.8810   37.4020   -4.4200 C.ar      1 RAB646      0.0000 
     12 N6         73.6690   38.5910   -4.9910 N.pl3     1 RAB646      0.0000 
     13 C5         74.4100   36.2910   -5.1590 C.ar      1 RAB646      0.0000 
     14 N7         74.8020   36.1440   -6.4910 N.2       1 RAB646      0.0000 
     15 C8         75.1890   34.9050   -6.5500 C.2       1 RAB646      0.0000 
     16 C2'        75.9910   32.1370   -4.1200 C.3       1 RAB646      0.0000 
     17 O2'        76.4630   33.1380   -3.2400 O.3       1 RAB646      0.0000 
     18 C3'        74.7590   31.4690   -3.5640 C.3       1 RAB646      0.0000 
     19 O3'        75.2150   30.2510   -2.9810 O.3       1 RAB646      0.0000 
     20 H          71.8655   30.6932   -4.1122 H         1 RAB646      0.0000 
     21 H          72.3943   32.3647   -3.8544 H         1 RAB646      0.0000 
     22 H          73.9054   29.9790   -4.7606 H         1 RAB646      0.0000 
     23 H          76.4079   32.5798   -6.1243 H         1 RAB646      0.0000 
     24 H          73.5674   35.9168   -1.4571 H         1 RAB646      0.0000 
     25 H          73.9376   38.6723   -5.9508 H         1 RAB646      0.0000 
     26 H          73.2608   39.2929   -4.4073 H         1 RAB646      0.0000 
     27 H          75.5466   34.4613   -7.3943 H         1 RAB646      0.0000 
     28 H          76.7134   31.3484   -4.2974 H         1 RAB646      0.0000 
     29 H          74.2752   32.0872   -2.8933 H         1 RAB646      0.0000 
     30 H          72.6681   31.8183   -6.4696 H         1 RAB646      0.0000 
     31 H          75.6444   33.4910   -2.7869 H         1 RAB646      0.0000 
     32 H          74.3826   29.7488   -2.7466 H         1 RAB646      0.0000 
@<TRIPOS>BOND
     1    2    1 1    
     2   30    1 1    
     3    3    2 1    
     4   20    2 1    
     5   21    2 1    
     6    4    3 1    
     7   18    3 1    
     8   22    3 1    
     9    5    4 1    
    10    6    5 1    
    11   16    5 1    
    12   23    5 1    
    13    7    6 1    
    14   15    6 1    
    15    8    7 ar   
    16   13    7 ar   
    17    9    8 ar   
    18   10    9 ar   
    19   24    9 1    
    20   11   10 ar   
    21   12   11 1    
    22   13   11 ar   
    23   25   12 1    
    24   26   12 1    
    25   14   13 1    
    26   15   14 2    
    27   27   15 1    
    28   17   16 1    
    29   18   16 1    
    30   28   16 1    
    31   31   17 1    
    32   19   18 1    
    33   29   18 1    
    34   32   19 1    
@<TRIPOS>SUBSTRUCTURE
     1 RAB646      1 GROUP   
@<TRIPOS>SET

