#    Name: 1fbm_RTL_1_INTS_M
#    Modification time : Tue Mar 25 01:03:00 2014

@<TRIPOS>MOLECULE
1fbm_RTL_1_INTS_M
   84     0     3     0     0
SMALL
NO_CHARGES


@<TRIPOS>ATOM
      1 CA         27.2055   49.5250   -0.8075 C.3       1 GLC5        0.0000 
      2 CA         28.9030   48.3950   -0.5190 C.3       3 GLL5        0.0000 
      3 CA         25.5080   50.6550   -1.0960 C.3       2 GLP5        0.0000 
      4 CA         29.8935   46.0605   -4.2410 C.3       1 GLC5        0.0000 
      5 CA         31.2540   47.2950   -3.6040 C.3       3 GLL5        0.0000 
      6 CA         28.5330   44.8260   -4.8780 C.3       2 GLP5        0.0000 
      7 CA         33.0340   45.6885   -7.9365 C.3       1 GLC5        0.0000 
      8 CA         34.2860   47.1070   -7.2360 C.3       3 GLL5        0.0000 
      9 CA         31.7820   44.2700   -8.6370 C.3       2 GLP5        0.0000 
     10 CA         34.9200   45.2365   -6.3595 C.3       1 GLC5        0.0000 
     11 CA         35.5540   43.3660   -5.4830 C.3       2 GLP5        0.0000 
     12 CA         36.7680   45.1775  -10.9400 C.3       1 GLC5        0.0000 
     13 CA         37.3720   46.8840  -10.7320 C.3       3 GLL5        0.0000 
     14 CA         36.1640   43.4710  -11.1480 C.3       2 GLP5        0.0000 
     15 CA         38.8465   48.1960   -9.9295 C.3       1 GLC5        0.0000 
     16 CA         40.3210   49.5080   -9.1270 C.3       2 GLP5        0.0000 
     17 CA         27.0385   49.7445   -1.9320 C.3       1 GLC5        0.0000 
     18 CA         28.5690   48.8340   -2.7680 C.3       3 GLL5        0.0000 
     19 CA         28.6925   50.4645   -3.0965 C.3       1 GLC5        0.0000 
     20 CA         28.8160   52.0950   -3.4250 C.3       2 GLP5        0.0000 
     21 CA         27.4075   46.9215   -3.5810 C.3       1 GLC5        0.0000 
     22 CA         28.5080   46.4700   -2.0600 C.3       3 GLL5        0.0000 
     23 CA         26.3070   47.3730   -5.1020 C.3       2 GLP5        0.0000 
     24 CA         26.6935   46.4545   -1.8990 C.3       1 GLC5        0.0000 
     25 CA         24.8790   46.4390   -1.7380 C.3       2 GLP5        0.0000 
     26 CA         33.2790   45.8870   -1.4595 C.3       1 GLC5        0.0000 
     27 CA         33.0100   47.3970   -1.2340 C.3       3 GLL5        0.0000 
     28 CA         33.5480   44.3770   -1.6850 C.3       2 GLP5        0.0000 
     29 CA         33.2470   48.6595   -0.3845 C.3       1 GLC5        0.0000 
     30 CA         33.4840   49.9220    0.4650 C.3       2 GLP5        0.0000 
     31 CA         35.0465   46.6840   -1.6965 C.3       1 GLC5        0.0000 
     32 CA         37.0830   45.9710   -2.1590 C.3       2 GLP5        0.0000 
     33 CA         30.2100   45.3620   -5.3370 C.3       1 GLC5        0.0000 
     34 CA         31.8870   45.8980   -5.7960 C.3       3 GLL5        0.0000 
     35 CA         33.7205   44.6320   -5.6395 C.3       1 GLC5        0.0000 
     36 CA         35.9150   44.4590   -7.0575 C.3       1 GLC5        0.0000 
     37 CA         36.2760   45.5520   -8.6320 C.3       3 GLL5        0.0000 
     38 CA         37.9215   45.7255   -7.4065 C.3       1 GLC5        0.0000 
     39 CA         39.5670   45.8990   -6.1810 C.3       2 GLP5        0.0000 
     40 CA         28.7033   45.9805   -3.4345 C.3       1 GLC5        0.0000 
     41 CA         29.2390   47.8000   -1.9220 C.3       3 GLL5        0.0000 
     42 CA         30.8625   49.4742    0.5518 C.3       1 GLC5        0.0000 
     43 CA         32.3550   50.7460    1.0540 C.3       2 GLP5        0.0000 
     44 CA         29.0645   49.7683    1.0802 C.3       1 GLC5        0.0000 
     45 CA         29.8370   48.0100    0.6180 C.3       3 GLL5        0.0000 
     46 CA         28.7590   51.3340    2.1110 C.3       2 GLP5        0.0000 
     47 CA         30.4387   46.9557    2.2828 C.3       1 GLC5        0.0000 
     48 CA         30.4820   46.3560    4.1880 C.3       2 GLP5        0.0000 
     49 CA         32.2000   46.1073    0.0752 C.3       1 GLC5        0.0000 
     50 CA         30.9540   47.1010    0.1370 C.3       3 GLL5        0.0000 
     51 CA         33.1750   44.9220    0.7100 C.3       2 GLP5        0.0000 
     52 CA         30.9471   49.4144   -2.6842 C.3       1 GLC5        0.0000 
     53 CA         31.4960   47.4840   -1.2560 C.3       3 GLL5        0.0000 
     54 CA         31.1480   51.1620   -3.6750 C.3       2 GLP5        0.0000 
     55 CA         32.2368   48.7589   -0.4924 C.3       1 GLC5        0.0000 
     56 CA         30.7540   47.8990   -2.3400 C.3       3 GLL5        0.0000 
     57 CA         30.1545   47.7883   -5.0118 C.3       1 GLC5        0.0000 
     58 CA         28.5000   48.0230   -6.0830 C.3       2 GLP5        0.0000 
     59 CA         32.6785   45.9652   -2.8127 C.3       1 GLC5        0.0000 
     60 CA         31.4785   49.3577   -3.8077 C.3       1 GLC5        0.0000 
     61 CA         30.4150   47.2650   -5.8673 C.3       1 GLC5        0.0000 
     62 CA         32.7730   47.1160   -5.5070 C.3       3 GLL5        0.0000 
     63 CA         32.0560   45.3885   -7.1442 C.3       1 GLC5        0.0000 
     64 CA         33.1728   48.5740   -8.2480 C.3       1 GLC5        0.0000 
     65 CA         35.3740   47.7250   -7.8060 C.3       3 GLL5        0.0000 
     66 CA         31.6240   49.5620   -9.2810 C.3       2 GLP5        0.0000 
     67 CA         35.9873   47.5950   -5.6260 C.3       1 GLC5        0.0000 
     68 CA         37.2530   47.6040   -4.0370 C.3       2 GLP5        0.0000 
     69 CA         34.9417   49.4720   -6.8145 C.3       1 GLC5        0.0000 
     70 CA         35.1620   51.3580   -6.4140 C.3       2 GLP5        0.0000 
     71 CA         35.0782   48.8492   -9.6578 C.3       1 GLC5        0.0000 
     72 CA         34.5490   50.3440  -10.9180 C.3       2 GLP5        0.0000 
     73 CA         34.7593   46.0560  -10.3233 C.3       1 GLC5        0.0000 
     74 CA         35.8410   46.9840   -8.9890 C.3       3 GLL5        0.0000 
     75 CA         33.4600   45.8440  -11.8360 C.3       2 GLP5        0.0000 
     76 CA         36.1112   44.8695   -9.9793 C.3       1 GLC5        0.0000 
     77 CA         36.1478   46.9363  -11.8227 C.3       1 GLC5        0.0000 
     78 CA         35.1460   46.6190  -13.5080 C.3       2 GLP5        0.0000 
     79 CA         37.3781   48.8819   -8.2986 C.3       1 GLC5        0.0000 
     80 CA         36.9270   47.6230   -9.5430 C.3       3 GLL5        0.0000 
     81 CA         38.4890   50.2750   -7.6270 C.3       2 GLP5        0.0000 
     82 CA         37.0127   48.7572  -10.9703 C.3       1 GLC5        0.0000 
     83 CA         36.8760   50.2610  -11.8030 C.3       2 GLP5        0.0000 
     84 CA         28.8914   48.1824   -4.2662 C.3       1 GLC5        0.0000 
@<TRIPOS>BOND
@<TRIPOS>SUBSTRUCTURE
     1 GLC5        1 GROUP        1 X    GLC  0     ROOT GLC X 6
     2 GLP5        3 GROUP        1 Y    GLP  0     ROOT GLP Y 13
     3 GLL5        2 GROUP        1 Z    GLL  0     ROOT GLL Z 20
@<TRIPOS>SET

