#    Name: 1fbm_RTL_1_ligand
#    Modification time : Tue Mar 25 01:03:00 2014

@<TRIPOS>MOLECULE
1fbm_RTL_1_ligand
   51    51     1     0     0
SMALL
NO_CHARGES


@<TRIPOS>ATOM
      1 C1         29.2390   47.8000   -1.9220 C.3       1 RTL951      0.0000 
      2 C2         28.9030   48.3950   -0.5190 C.3       1 RTL951      0.0000 
      3 C3         29.8370   48.0100    0.6180 C.3       1 RTL951      0.0000 
      4 C4         30.9540   47.1010    0.1370 C.3       1 RTL951      0.0000 
      5 C5         31.4960   47.4840   -1.2560 C.2       1 RTL951      0.0000 
      6 C6         30.7540   47.8990   -2.3400 C.2       1 RTL951      0.0000 
      7 C7         31.2540   47.2950   -3.6040 C.2       1 RTL951      0.0000 
      8 C8         32.3640   47.8120   -4.2770 C.2       1 RTL951      0.0000 
      9 C9         32.7730   47.1160   -5.5070 C.2       1 RTL951      0.0000 
     10 C10        33.8520   47.7870   -6.0120 C.2       1 RTL951      0.0000 
     11 C11        34.2860   47.1070   -7.2360 C.2       1 RTL951      0.0000 
     12 C12        35.3740   47.7250   -7.8060 C.2       1 RTL951      0.0000 
     13 C13        35.8410   46.9840   -8.9890 C.2       1 RTL951      0.0000 
     14 C14        36.9270   47.6230   -9.5430 C.2       1 RTL951      0.0000 
     15 C15        37.3720   46.8840  -10.7320 C.3       1 RTL951      0.0000 
     16 O1         38.4460   47.4980  -11.2990 O.3       1 RTL951      0.0000 
     17 C16        28.5690   48.8340   -2.7680 C.3       1 RTL951      0.0000 
     18 C17        28.5080   46.4700   -2.0600 C.3       1 RTL951      0.0000 
     19 C18        33.0100   47.3970   -1.2340 C.3       1 RTL951      0.0000 
     20 C19        31.8870   45.8980   -5.7960 C.3       1 RTL951      0.0000 
     21 C20        36.2760   45.5520   -8.6320 C.3       1 RTL951      0.0000 
     22 H          27.8665   48.0912   -0.2615 H         1 RTL951      0.0000 
     23 H          28.8799   49.5008   -0.6167 H         1 RTL951      0.0000 
     24 H          29.2643   47.4983    1.3963 H         1 RTL951      0.0000 
     25 H          30.2694   48.9162    1.0508 H         1 RTL951      0.0000 
     26 H          30.5909   46.0646    0.0967 H         1 RTL951      0.0000 
     27 H          31.7855   47.1314    0.8548 H         1 RTL951      0.0000 
     28 H          30.7452   46.4799   -3.9593 H         1 RTL951      0.0000 
     29 H          32.8730   48.6042   -3.9707 H         1 RTL951      0.0000 
     30 H          34.2813   48.5530   -5.6765 H         1 RTL951      0.0000 
     31 H          33.8315   46.3243   -7.5621 H         1 RTL951      0.0000 
     32 H          35.8059   48.5256   -7.5145 H         1 RTL951      0.0000 
     33 H          37.3550   48.4107   -9.2462 H         1 RTL951      0.0000 
     34 H          36.5094   46.8075  -11.4320 H         1 RTL951      0.0000 
     35 H          37.5965   45.8381  -10.4227 H         1 RTL951      0.0000 
     36 H          28.8292   49.7609   -2.4974 H         1 RTL951      0.0000 
     37 H          28.8056   48.7335   -3.7344 H         1 RTL951      0.0000 
     38 H          27.5727   48.7785   -2.7029 H         1 RTL951      0.0000 
     39 H          28.6842   46.0395   -2.9452 H         1 RTL951      0.0000 
     40 H          28.7880   45.8175   -1.3558 H         1 RTL951      0.0000 
     41 H          27.5174   46.5806   -1.9799 H         1 RTL951      0.0000 
     42 H          33.4085   47.6336   -2.1201 H         1 RTL951      0.0000 
     43 H          33.4079   48.0178   -0.5586 H         1 RTL951      0.0000 
     44 H          33.3258   46.4757   -1.0072 H         1 RTL951      0.0000 
     45 H          32.1664   45.4254   -6.6318 H         1 RTL951      0.0000 
     46 H          31.9232   45.2281   -5.0544 H         1 RTL951      0.0000 
     47 H          30.9277   46.1556   -5.9117 H         1 RTL951      0.0000 
     48 H          36.5927   45.0487   -9.4360 H         1 RTL951      0.0000 
     49 H          37.0243   45.5456   -7.9687 H         1 RTL951      0.0000 
     50 H          35.5260   45.0247   -8.2328 H         1 RTL951      0.0000 
     51 H          39.0234   48.0754  -10.7216 H         1 RTL951      0.0000 
@<TRIPOS>BOND
     1    2    1 1    
     2    6    1 1    
     3   17    1 1    
     4   18    1 1    
     5    3    2 1    
     6   22    2 1    
     7   23    2 1    
     8    4    3 1    
     9   24    3 1    
    10   25    3 1    
    11    5    4 1    
    12   26    4 1    
    13   27    4 1    
    14    6    5 2    
    15   19    5 1    
    16    7    6 1    
    17    8    7 2    
    18   28    7 1    
    19    9    8 1    
    20   29    8 1    
    21   10    9 2    
    22   20    9 1    
    23   11   10 1    
    24   30   10 1    
    25   12   11 2    
    26   31   11 1    
    27   13   12 1    
    28   32   12 1    
    29   14   13 2    
    30   21   13 1    
    31   15   14 1    
    32   33   14 1    
    33   16   15 1    
    34   34   15 1    
    35   35   15 1    
    36   51   16 1    
    37   36   17 1    
    38   37   17 1    
    39   38   17 1    
    40   39   18 1    
    41   40   18 1    
    42   41   18 1    
    43   42   19 1    
    44   43   19 1    
    45   44   19 1    
    46   45   20 1    
    47   46   20 1    
    48   47   20 1    
    49   48   21 1    
    50   49   21 1    
    51   50   21 1    
@<TRIPOS>SUBSTRUCTURE
     1 RTL951      1 GROUP   
@<TRIPOS>SET

