#    Name: 4dfg_0JV_1_INTS_M
#    Modification time : Mon Apr  7 22:43:56 2014

@<TRIPOS>MOLECULE
4dfg_0JV_1_INTS_M
   93     0     9     0     0
SMALL
NO_CHARGES


@<TRIPOS>ATOM
      1 N          20.9235   30.1510   14.9170 N.am      2 SEC2        0.0000 
      2 N          21.7390   28.7370   14.6620 N.am      8 SEL2        0.0000 
      3 N          20.1080   31.5650   15.1720 N.am      5 SEP2        0.0000 
      4 CA         22.4730   30.0585   16.3685 C.3       3 GLC5        0.0000 
      5 CA         23.1270   28.6950   14.9510 C.3       9 GLL5        0.0000 
      6 CA         21.8190   31.4220   17.7860 C.3       6 GLP5        0.0000 
      7 CA         22.2425   30.2260   14.0035 C.3       3 GLC5        0.0000 
      8 CA         21.3580   31.7570   13.0560 C.3       6 GLP5        0.0000 
      9 CA         24.0385   27.9015   13.4495 C.3       3 GLC5        0.0000 
     10 CA         24.9500   27.1080   11.9480 C.3       6 GLP5        0.0000 
     11 CA         21.7080   26.7180   13.0990 C.3       3 GLC5        0.0000 
     12 CA         21.1290   27.5880   15.0170 C.3       9 GLL5        0.0000 
     13 CA         22.2870   25.8480   11.1810 C.3       6 GLP5        0.0000 
     14 CA         23.1400   26.0785   13.9365 C.3       3 GLC5        0.0000 
     15 CA         21.7550   26.4530   15.5340 C.3       9 GLL5        0.0000 
     16 CA         24.5250   25.7040   12.3390 C.3       6 GLP5        0.0000 
     17 CA         20.3215   21.6265   18.4215 C.3       3 GLC5        0.0000 
     18 CA         18.6340   22.2740   19.7260 C.3       9 GLL5        0.0000 
     19 CA         22.0090   20.9790   17.1170 C.3       6 GLP5        0.0000 
     20 CA         18.8025   20.1645   19.9255 C.3       3 GLC5        0.0000 
     21 CA         18.9710   18.0550   20.1250 C.3       6 GLP5        0.0000 
     22 CA         18.8895   25.5910   22.2775 C.3       3 GLC5        0.0000 
     23 CA         19.4960   24.2770   20.9670 C.3       9 GLL5        0.0000 
     24 CA         18.2830   26.9050   23.5880 C.3       6 GLP5        0.0000 
     25 CA         20.0545   23.8790   22.6020 C.3       3 GLC5        0.0000 
     26 CA         20.6130   23.4810   24.2370 C.3       6 GLP5        0.0000 
     27 CA         18.3170   23.5240   22.5605 C.3       3 GLC5        0.0000 
     28 CA         17.1380   22.7710   24.1540 C.3       6 GLP5        0.0000 
     29 CA         16.7130   26.9155   16.9115 C.3       3 GLC5        0.0000 
     30 CA         16.6160   24.9500   17.5440 C.3       9 GLL5        0.0000 
     31 CA         16.8100   28.8810   16.2790 C.3       6 GLP5        0.0000 
     32 N          13.9115   26.0535   18.3370 N.am      2 SEC2        0.0000 
     33 N          14.2820   24.7560   18.3770 N.am      8 SEL2        0.0000 
     34 N          13.5410   27.3510   18.2970 N.am      5 SEP2        0.0000 
     35 N          13.7805   25.4365   19.5520 N.am      2 SEC2        0.0000 
     36 N          13.2790   26.1170   20.7270 N.am      5 SEP2        0.0000 
     37 O          14.1385   25.5835   17.3740 O.2       1 ALC1        0.0000 
     38 O          14.2820   24.7560   18.3770 O.2       7 ALL1        0.0000 
     39 O          13.9950   26.4110   16.3710 O.2       4 ALP1        0.0000 
     40 O          12.6740   22.5100   17.8000 O.2       1 ALC1        0.0000 
     41 O          14.2300   21.9550   17.7620 O.2       7 ALL1        0.0000 
     42 O          11.1180   23.0650   17.8380 O.2       4 ALP1        0.0000 
     43 CA         15.6580   18.3810   19.7885 C.3       3 GLC5        0.0000 
     44 CA         13.7360   18.6140   18.8670 C.3       9 GLL5        0.0000 
     45 CA         17.5800   18.1480   20.7100 C.3       6 GLP5        0.0000 
     46 CA         12.3275   20.1615   20.7595 C.3       3 GLC5        0.0000 
     47 CA         12.6440   18.1820   19.8600 C.3       9 GLL5        0.0000 
     48 CA         12.0110   22.1410   21.6590 C.3       6 GLP5        0.0000 
     49 CA         13.8660   16.5395   20.4470 C.3       3 GLC5        0.0000 
     50 CA         15.0880   14.8970   21.0340 C.3       6 GLP5        0.0000 
     51 CA          9.4355   18.3900   19.4995 C.3       3 GLC5        0.0000 
     52 CA         11.4070   17.8420   19.0390 C.3       9 GLL5        0.0000 
     53 CA          7.4640   18.9380   19.9600 C.3       6 GLP5        0.0000 
     54 N           9.9350   19.8020   19.5215 N.am      2 SEC2        0.0000 
     55 N          10.7000   19.0050   18.6320 N.am      8 SEL2        0.0000 
     56 N           9.1700   20.5990   20.4110 N.am      5 SEP2        0.0000 
     57 CA          9.0205   19.0010   18.5865 C.3       3 GLC5        0.0000 
     58 CA         10.5770   19.0640   17.2130 C.3       9 GLL5        0.0000 
     59 CA         14.0875   16.2140   16.2470 C.3       3 GLC5        0.0000 
     60 CA         13.3810   17.7730   17.6370 C.3       9 GLL5        0.0000 
     61 CA         14.7940   14.6550   14.8570 C.3       6 GLP5        0.0000 
     62 CA         15.0460   17.8370   16.3775 C.3       3 GLC5        0.0000 
     63 CA         16.7110   17.9010   15.1180 C.3       6 GLP5        0.0000 
     64 O          12.7820   17.2200   15.0750 O.2       1 ALC1        0.0000 
     65 O          11.4700   17.5390   15.3920 O.2       7 ALL1        0.0000 
     66 O          14.0940   16.9010   14.7580 O.2       4 ALP1        0.0000 
     67 CA         10.6345   19.5330   11.4465 C.3       3 GLC5        0.0000 
     68 CA         10.2470   17.8350   12.0450 C.3       9 GLL5        0.0000 
     69 CA         11.0220   21.2310   10.8480 C.3       6 GLP5        0.0000 
     70 CA         11.5065   23.3170   14.8295 C.3       3 GLC5        0.0000 
     71 CA         12.8290   21.7170   14.8710 C.3       9 GLL5        0.0000 
     72 CA         10.1840   24.9170   14.7880 C.3       6 GLP5        0.0000 
     73 CA         13.8210   19.4450   11.4400 C.3       3 GLC5        0.0000 
     74 CA         13.4770   20.0390   13.3010 C.3       9 GLL5        0.0000 
     75 CA         14.1650   18.8510    9.5790 C.3       6 GLP5        0.0000 
     76 CA         15.1685   19.5450   11.6265 C.3       3 GLC5        0.0000 
     77 CA         14.7670   20.5260   13.3080 C.3       9 GLL5        0.0000 
     78 CA         15.5700   18.5640    9.9450 C.3       6 GLP5        0.0000 
     79 CA         18.0900   27.9597   15.6325 C.3       3 GLC5        0.0000 
     80 CA         18.9840   26.4890   15.1430 C.3       9 GLL5        0.0000 
     81 CA         19.2955   27.4052   12.9400 C.3       3 GLC5        0.0000 
     82 CA         19.2210   27.7720   10.8940 C.3       6 GLP5        0.0000 
     83 CA         19.6069   24.6761   13.9244 C.3       3 GLC5        0.0000 
     84 CA         19.1040   23.7040   12.2320 C.3       6 GLP5        0.0000 
     85 CA         13.1675   15.6750   18.4562 C.3       3 GLC5        0.0000 
     86 CA         13.6620   13.8450   19.2050 C.3       6 GLP5        0.0000 
     87 CA         12.0454   20.9181   12.3681 C.3       3 GLC5        0.0000 
     88 CA         16.8260   20.5010   13.2375 C.3       3 GLC5        0.0000 
     89 CA         18.7150   19.9250   12.7670 C.3       6 GLP5        0.0000 
     90 CA         15.0942   23.7245   13.6104 C.3       3 GLC5        0.0000 
     91 CA         15.1070   21.6280   14.1080 C.3       9 GLL5        0.0000 
     92 CA         15.4980   25.2210   12.4960 C.3       6 GLP5        0.0000 
     93 CA         15.6627   19.4281   14.4121 C.3       3 GLC5        0.0000 
@<TRIPOS>BOND
@<TRIPOS>SUBSTRUCTURE
     1 ALC1       37 GROUP        1 X    ALC  0     ROOT ALC X 1
     2 SEC2        1 GROUP        1 X    SEC  0     **** SEC X 2
     3 GLC5        4 GROUP        1 X    GLC  0     **** GLC X 6
     4 ALP1       39 GROUP        1 Y    ALP  0     ROOT ALP Y 8
     5 SEP2        3 GROUP        1 Y    SEP  0     **** SEP Y 9
     6 GLP5        6 GROUP        1 Y    GLP  0     **** GLP Y 13
     7 ALL1       38 GROUP        1 Z    ALL  0     ROOT ALL Z 15
     8 SEL2        2 GROUP        1 Z    SEL  0     **** SEL Z 16
     9 GLL5        5 GROUP        1 Z    GLL  0     **** GLL Z 20
@<TRIPOS>SET

