#    Name: 4dfg_0JV_1_ligand
#    Modification time : Mon Apr  7 22:43:56 2014

@<TRIPOS>MOLECULE
4dfg_0JV_1_ligand
   87    90     1     0     0
SMALL
NO_CHARGES


@<TRIPOS>ATOM
      1 O39        21.7390   28.7370   14.6620 O.3       1 0JV201      0.0000 
      2 C40        23.1270   28.6950   14.9510 C.3       1 0JV201      0.0000 
      3 C2         21.1290   27.5880   15.0170 C.ar      1 0JV201      0.0000 
      4 C3         19.7560   27.5880   14.8290 C.ar      1 0JV201      0.0000 
      5 C4         18.9840   26.4890   15.1430 C.ar      1 0JV201      0.0000 
      6 C5         19.5770   25.3480   15.6580 C.ar      1 0JV201      0.0000 
      7 C6         20.9390   25.3780   15.8330 C.ar      1 0JV201      0.0000 
      8 C7         21.7550   26.4530   15.5340 C.ar      1 0JV201      0.0000 
      9 S8         18.5850   23.9560   16.0530 S.o2      1 0JV201      0.0000 
     10 O9         17.4870   23.8930   15.0680 O.2       1 0JV201      0.0000 
     11 O10        19.4120   22.7420   16.2230 O.2       1 0JV201      0.0000 
     12 N11        17.8860   24.2420   17.5220 N.pl3     1 0JV201      0.0000 
     13 C12        18.8140   24.5560   18.5890 C.3       1 0JV201      0.0000 
     14 C13        18.5060   23.7990   19.8870 C.3       1 0JV201      0.0000 
     15 C14        18.6340   22.2740   19.7260 C.3       1 0JV201      0.0000 
     16 C15        19.4960   24.2770   20.9670 C.3       1 0JV201      0.0000 
     17 C16        16.6160   24.9500   17.5440 C.3       1 0JV201      0.0000 
     18 C17        15.4730   24.0460   18.0270 C.3       1 0JV201      0.0000 
     19 O18        14.2820   24.7560   18.3770 O.3       1 0JV201      0.0000 
     20 C19        15.0810   22.9170   17.0770 C.3       1 0JV201      0.0000 
     21 N20        14.2300   21.9550   17.7620 N.am      1 0JV201      0.0000 
     22 C21        14.4710   20.6680   18.0080 C.2       1 0JV201      0.0000 
     23 O22        15.5700   20.1490   17.7550 O.2       1 0JV201      0.0000 
     24 O23        13.4190   20.0090   18.5840 O.3       1 0JV201      0.0000 
     25 C24        13.7360   18.6140   18.8670 C.3       1 0JV201      0.0000 
     26 C25        12.6440   18.1820   19.8600 C.3       1 0JV201      0.0000 
     27 C26        11.4070   17.8420   19.0390 C.3       1 0JV201      0.0000 
     28 O27        10.7000   19.0050   18.6320 O.3       1 0JV201      0.0000 
     29 C28        10.5770   19.0640   17.2130 C.3       1 0JV201      0.0000 
     30 C29        10.9300   17.6640   16.7330 C.3       1 0JV201      0.0000 
     31 C30        11.9650   17.2370   17.7780 C.3       1 0JV201      0.0000 
     32 C31        13.3810   17.7730   17.6370 C.3       1 0JV201      0.0000 
     33 N41        11.4700   17.5390   15.3920 N.am      1 0JV201      0.0000 
     34 C42        10.7650   17.8050   14.2760 C.2       1 0JV201      0.0000 
     35 O43         9.6390   18.3350   14.2550 O.2       1 0JV201      0.0000 
     36 O44        11.2700   17.5620   13.0320 O.3       1 0JV201      0.0000 
     37 C45        10.2470   17.8350   12.0450 C.3       1 0JV201      0.0000 
     38 C32        14.4220   23.4340   15.7920 C.3       1 0JV201      0.0000 
     39 C33        12.8290   21.7170   14.8710 C.ar      1 0JV201      0.0000 
     40 C34        12.4920   20.6260   14.0800 C.ar      1 0JV201      0.0000 
     41 C35        13.4770   20.0390   13.3010 C.ar      1 0JV201      0.0000 
     42 C36        14.7670   20.5260   13.3080 C.ar      1 0JV201      0.0000 
     43 C37        15.1070   21.6280   14.1080 C.ar      1 0JV201      0.0000 
     44 C38        14.1260   22.2220   14.8910 C.ar      1 0JV201      0.0000 
     45 H          19.2986   28.4400   14.4410 H         1 0JV201      0.0000 
     46 H          17.9633   26.5142   14.9951 H         1 0JV201      0.0000 
     47 H          21.4075   24.5043   16.2309 H         1 0JV201      0.0000 
     48 H          22.7493   26.4248   15.6793 H         1 0JV201      0.0000 
     49 H          18.8005   25.6372   18.8208 H         1 0JV201      0.0000 
     50 H          19.8520   24.3107   18.2967 H         1 0JV201      0.0000 
     51 H          17.5149   24.0417   20.2125 H         1 0JV201      0.0000 
     52 H          16.3523   25.3195   16.5422 H         1 0JV201      0.0000 
     53 H          16.6612   25.8218   18.2132 H         1 0JV201      0.0000 
     54 H          15.8465   23.5301   18.9613 H         1 0JV201      0.0000 
     55 H          16.0190   22.4101   16.7770 H         1 0JV201      0.0000 
     56 H          13.2888   22.3844   18.0982 H         1 0JV201      0.0000 
     57 H          14.6408   18.4241   19.2190 H         1 0JV201      0.0000 
     58 H          12.4282   18.9950   20.5247 H         1 0JV201      0.0000 
     59 H          12.9757   17.3146   20.3957 H         1 0JV201      0.0000 
     60 H          10.8291   17.1329   19.5329 H         1 0JV201      0.0000 
     61 H          11.2729   19.7583   16.7719 H         1 0JV201      0.0000 
     62 H           9.5700   19.2851   16.8998 H         1 0JV201      0.0000 
     63 H          10.0666   17.0325   16.8980 H         1 0JV201      0.0000 
     64 H          11.9533   16.1861   17.8926 H         1 0JV201      0.0000 
     65 H          14.0770   16.9460   17.5583 H         1 0JV201      0.0000 
     66 H          13.4490   18.3926   16.7504 H         1 0JV201      0.0000 
     67 H          12.4713   17.2201   15.3335 H         1 0JV201      0.0000 
     68 H          15.0966   24.0989   15.2842 H         1 0JV201      0.0000 
     69 H          13.5004   23.9305   16.0350 H         1 0JV201      0.0000 
     70 H          12.1010   22.1649   15.4586 H         1 0JV201      0.0000 
     71 H          11.5379   20.2648   14.0734 H         1 0JV201      0.0000 
     72 H          13.2376   19.2239   12.7069 H         1 0JV201      0.0000 
     73 H          15.4948   20.0852   12.7253 H         1 0JV201      0.0000 
     74 H          16.0634   21.9826   14.1095 H         1 0JV201      0.0000 
     75 H          23.5854   27.9516   14.4640 H         1 0JV201      0.0000 
     76 H          23.5866   29.5438   14.6897 H         1 0JV201      0.0000 
     77 H          23.2993   28.5566   15.9263 H         1 0JV201      0.0000 
     78 H          19.5564   22.0060   19.4480 H         1 0JV201      0.0000 
     79 H          18.4335   21.7923   20.5791 H         1 0JV201      0.0000 
     80 H          18.0048   21.9195   19.0344 H         1 0JV201      0.0000 
     81 H          20.4448   24.0997   20.7057 H         1 0JV201      0.0000 
     82 H          19.4169   25.2597   21.1345 H         1 0JV201      0.0000 
     83 H          19.3420   23.8172   21.8416 H         1 0JV201      0.0000 
     84 H          10.5733   17.6652   11.1151 H         1 0JV201      0.0000 
     85 H           9.4380   17.2631   12.1807 H         1 0JV201      0.0000 
     86 H           9.9423   18.7868   12.0795 H         1 0JV201      0.0000 
     87 H          13.8672   25.0118   17.5038 H         1 0JV201      0.0000 
@<TRIPOS>BOND
     1    2    1 1    
     2    3    1 1    
     3   75    2 1    
     4   76    2 1    
     5   77    2 1    
     6    4    3 ar   
     7    8    3 ar   
     8    5    4 ar   
     9   45    4 1    
    10    6    5 ar   
    11   46    5 1    
    12    7    6 ar   
    13    9    6 1    
    14    8    7 ar   
    15   47    7 1    
    16   48    8 1    
    17   10    9 2    
    18   11    9 2    
    19   12    9 1    
    20   13   12 1    
    21   17   12 1    
    22   14   13 1    
    23   49   13 1    
    24   50   13 1    
    25   15   14 1    
    26   16   14 1    
    27   51   14 1    
    28   78   15 1    
    29   79   15 1    
    30   80   15 1    
    31   81   16 1    
    32   82   16 1    
    33   83   16 1    
    34   18   17 1    
    35   52   17 1    
    36   53   17 1    
    37   19   18 1    
    38   20   18 1    
    39   54   18 1    
    40   87   19 1    
    41   21   20 1    
    42   38   20 1    
    43   55   20 1    
    44   22   21 am   
    45   56   21 1    
    46   23   22 2    
    47   24   22 1    
    48   25   24 1    
    49   26   25 1    
    50   32   25 1    
    51   57   25 1    
    52   27   26 1    
    53   58   26 1    
    54   59   26 1    
    55   28   27 1    
    56   31   27 1    
    57   60   27 1    
    58   29   28 1    
    59   30   29 1    
    60   61   29 1    
    61   62   29 1    
    62   31   30 1    
    63   33   30 1    
    64   63   30 1    
    65   32   31 1    
    66   64   31 1    
    67   65   32 1    
    68   66   32 1    
    69   34   33 am   
    70   67   33 1    
    71   35   34 2    
    72   36   34 1    
    73   37   36 1    
    74   84   37 1    
    75   85   37 1    
    76   86   37 1    
    77   44   38 1    
    78   68   38 1    
    79   69   38 1    
    80   40   39 ar   
    81   44   39 ar   
    82   70   39 1    
    83   41   40 ar   
    84   71   40 1    
    85   42   41 ar   
    86   72   41 1    
    87   43   42 ar   
    88   73   42 1    
    89   44   43 ar   
    90   74   43 1    
@<TRIPOS>SUBSTRUCTURE
     1 0JV201      1 GROUP   
@<TRIPOS>SET

