#    Name: 4mka_2AY_1_INTS_M
#    Modification time : Tue Mar 25 12:13:42 2014

@<TRIPOS>MOLECULE
4mka_2AY_1_INTS_M
   74     0     9     0     0
SMALL
NO_CHARGES


@<TRIPOS>ATOM
      1 O         -10.0730   11.0330    2.0075 O.2       1 ALC1        0.0000 
      2 O         -10.1590    9.6890    2.5600 O.2       7 ALL1        0.0000 
      3 O          -9.9870   12.3770    1.4550 O.2       4 ALP1        0.0000 
      4 N         -10.5810    8.8090   -1.1405 N.am      2 SEC2        0.0000 
      5 N         -10.3440    8.9040    0.2470 N.am      8 SEL2        0.0000 
      6 N         -10.8180    8.7140   -2.5280 N.am      5 SEP2        0.0000 
      7 N          -9.0520   10.0360    0.2365 N.am      2 SEC2        0.0000 
      8 N          -7.7600   11.1680    0.2260 N.am      5 SEP2        0.0000 
      9 CA        -12.5025    6.6795    2.7675 C.3       3 GLC5        0.0000 
     10 CA        -12.2850    8.1970    1.7930 C.3       9 GLL5        0.0000 
     11 CA        -12.7200    5.1620    3.7420 C.3       6 GLP5        0.0000 
     12 CA         -8.3125    9.3525    2.3895 C.3       3 GLC5        0.0000 
     13 CA         -9.7620    9.7090    3.9400 C.3       9 GLL5        0.0000 
     14 CA         -6.8630    8.9960    0.8390 C.3       6 GLP5        0.0000 
     15 CA         -7.9420    7.2665    9.5430 C.3       3 GLC5        0.0000 
     16 CA         -8.7180    9.0260    8.8540 C.3       9 GLL5        0.0000 
     17 CA         -7.1660    5.5070   10.2320 C.3       6 GLP5        0.0000 
     18 CA         -7.1300   11.3435   10.0815 C.3       3 GLC5        0.0000 
     19 CA         -7.4530    9.6110   10.9910 C.3       9 GLL5        0.0000 
     20 CA         -6.8070   13.0760    9.1720 C.3       6 GLP5        0.0000 
     21 N         -10.2155    4.7895   11.1945 N.am      2 SEC2        0.0000 
     22 N         -10.5900    5.9340   11.9270 N.am      8 SEL2        0.0000 
     23 N          -9.8410    3.6450   10.4620 N.am      5 SEP2        0.0000 
     24 O         -12.6450    4.7885   13.5555 O.2       1 ALC1        0.0000 
     25 O         -12.1240    6.0730   13.6180 O.2       7 ALL1        0.0000 
     26 O         -13.1660    3.5040   13.4930 O.2       4 ALP1        0.0000 
     27 CA        -12.8730    8.1030   17.0145 C.3       3 GLC5        0.0000 
     28 CA        -12.3540    7.9880   14.9770 C.3       9 GLL5        0.0000 
     29 CA        -13.3920    8.2180   19.0520 C.3       6 GLP5        0.0000 
     30 CA         -5.0530    9.4010   15.9105 C.3       3 GLC5        0.0000 
     31 CA         -6.5230   10.3950   14.7150 C.3       9 GLL5        0.0000 
     32 CA         -3.5830    8.4070   17.1060 C.3       6 GLP5        0.0000 
     33 CA         -7.8750   11.3215   15.4705 C.3       3 GLC5        0.0000 
     34 CA         -9.2270   12.2480   16.2260 C.3       6 GLP5        0.0000 
     35 CA         -3.6615    8.7475   14.6605 C.3       3 GLC5        0.0000 
     36 CA         -4.9340    9.3280   13.1580 C.3       9 GLL5        0.0000 
     37 CA         -2.3890    8.1670   16.1630 C.3       6 GLP5        0.0000 
     38 CA         -3.4480   10.3370   12.4645 C.3       3 GLC5        0.0000 
     39 CA         -1.9620   11.3460   11.7710 C.3       6 GLP5        0.0000 
     40 CA         -6.0225    7.6260   13.8020 C.3       3 GLC5        0.0000 
     41 CA         -7.1110    5.9240   14.4460 C.3       6 GLP5        0.0000 
     42 CA         -5.5830    7.7940   12.0480 C.3       3 GLC5        0.0000 
     43 CA         -6.2320    6.2600   10.9380 C.3       6 GLP5        0.0000 
     44 CA         -3.8710   11.4915   12.2525 C.3       3 GLC5        0.0000 
     45 CA         -5.7800   11.6370   12.7340 C.3       9 GLL5        0.0000 
     46 CA         -6.2935   12.3565   10.9530 C.3       3 GLC5        0.0000 
     47 CA         -6.0905   13.3855   13.1995 C.3       3 GLC5        0.0000 
     48 CA         -6.4010   15.1340   13.6650 C.3       6 GLP5        0.0000 
     49 CA         -3.6930   10.3485   10.7490 C.3       3 GLC5        0.0000 
     50 CA         -5.4240    9.3510    9.7270 C.3       9 GLL5        0.0000 
     51 CA         -5.6695   10.8420    8.7510 C.3       3 GLC5        0.0000 
     52 CA         -5.9150   12.3330    7.7750 C.3       6 GLP5        0.0000 
     53 CA         -5.8280    7.8055   10.3325 C.3       3 GLC5        0.0000 
     54 CA         -7.8057   12.2570    4.6835 C.3       3 GLC5        0.0000 
     55 CA         -8.7060   10.9660    5.6970 C.3       9 GLL5        0.0000 
     56 CA         -6.6970   13.6010    4.3270 C.3       6 GLP5        0.0000 
     57 CA         -7.3630   11.3902    6.9648 C.3       3 GLC5        0.0000 
     58 CA         -6.8796   10.1250    5.4915 C.3       3 GLC5        0.0000 
     59 CA         -4.8440    9.8290    5.1570 C.3       6 GLP5        0.0000 
     60 CA         -7.6273    7.9870    7.3205 C.3       3 GLC5        0.0000 
     61 CA         -8.5030   10.0220    7.9900 C.3       9 GLL5        0.0000 
     62 CA         -6.6440    6.4500    6.2190 C.3       6 GLP5        0.0000 
     63 CA         -7.2627   10.9285    8.0985 C.3       3 GLC5        0.0000 
     64 CA         -7.9164    7.4439   13.5365 C.3       3 GLC5        0.0000 
     65 CA         -7.3730    9.6600   12.4150 C.3       9 GLL5        0.0000 
     66 CA        -10.0858    7.1493   14.9957 C.3       3 GLC5        0.0000 
     67 CA        -10.6280    7.9120   13.2680 C.3       9 GLL5        0.0000 
     68 CA         -9.2230    6.0530   16.2140 C.3       6 GLP5        0.0000 
     69 CA        -13.2483    6.0370   16.1983 C.3       3 GLC5        0.0000 
     70 CA        -13.9450    4.7100   17.5960 C.3       6 GLP5        0.0000 
     71 CA        -10.8872    6.7085   15.5072 C.3       3 GLC5        0.0000 
     72 CA        -12.7490    6.7400   14.6240 C.3       9 GLL5        0.0000 
     73 CA         -4.2726   11.4116   14.0624 C.3       3 GLC5        0.0000 
     74 CA         -2.8340   12.0930   14.9760 C.3       6 GLP5        0.0000 
@<TRIPOS>BOND
@<TRIPOS>SUBSTRUCTURE
     1 ALC1        1 GROUP        1 X    ALC  0     ROOT ALC X 1
     2 SEC2        4 GROUP        1 X    SEC  0     **** SEC X 2
     3 GLC5        9 GROUP        1 X    GLC  0     **** GLC X 6
     4 ALP1        3 GROUP        1 Y    ALP  0     ROOT ALP Y 8
     5 SEP2        6 GROUP        1 Y    SEP  0     **** SEP Y 9
     6 GLP5       11 GROUP        1 Y    GLP  0     **** GLP Y 13
     7 ALL1        2 GROUP        1 Z    ALL  0     ROOT ALL Z 15
     8 SEL2        5 GROUP        1 Z    SEL  0     **** SEL Z 16
     9 GLL5       10 GROUP        1 Z    GLL  0     **** GLL Z 20
@<TRIPOS>SET

