#    Name: 4mka_2AY_1_ligand
#    Modification time : Tue Mar 25 12:13:42 2014

@<TRIPOS>MOLECULE
4mka_2AY_1_ligand
   61    64     1     0     0
SMALL
NO_CHARGES


@<TRIPOS>ATOM
      1 N1        -10.1590    9.6890    2.5600 N.pl3     1 2AY602      0.0000 
      2 S2        -10.5670    8.4510    1.5850 S.o2      1 2AY602      0.0000 
      3 O3        -10.3440    8.9040    0.2470 O.2       1 2AY602      0.0000 
      4 O4         -9.8700    7.2880    2.0470 O.2       1 2AY602      0.0000 
      5 C5        -12.2850    8.1970    1.7930 C.3       1 2AY602      0.0000 
      6 C6         -9.7620    9.7090    3.9400 C.ar      1 2AY602      0.0000 
      7 C7         -9.1230   10.8600    4.3830 C.ar      1 2AY602      0.0000 
      8 C8         -8.7060   10.9660    5.6970 C.ar      1 2AY602      0.0000 
      9 C9         -8.9160    9.9290    6.6120 C.ar      1 2AY602      0.0000 
     10 C10        -8.5030   10.0220    7.9900 C.2       1 2AY602      0.0000 
     11 C11        -8.7180    9.0260    8.8540 C.2       1 2AY602      0.0000 
     12 O12        -9.3290    7.8440    8.4340 O.3       1 2AY602      0.0000 
     13 C13        -9.7840    7.6430    7.1180 C.2       1 2AY602      0.0000 
     14 O14       -10.2990    6.5690    6.8780 O.2       1 2AY602      0.0000 
     15 C15        -9.5660    8.7520    6.1700 C.ar      1 2AY602      0.0000 
     16 C16        -9.9910    8.6590    4.8330 C.ar      1 2AY602      0.0000 
     17 C17        -8.5570    9.0410   10.3220 C.ar      1 2AY602      0.0000 
     18 C18        -7.4530    9.6110   10.9910 C.ar      1 2AY602      0.0000 
     19 C19        -7.3730    9.6600   12.4150 C.ar      1 2AY602      0.0000 
     20 C20        -8.4440    9.1150   13.1270 C.ar      1 2AY602      0.0000 
     21 C21        -9.5350    8.5400   12.4830 C.ar      1 2AY602      0.0000 
     22 C22        -9.5850    8.5160   11.0950 C.ar      1 2AY602      0.0000 
     23 C23       -10.6280    7.9120   13.2680 C.2       1 2AY602      0.0000 
     24 C24       -11.0580    6.5780   12.8700 C.2       1 2AY602      0.0000 
     25 O25       -10.5900    5.9340   11.9270 O.2       1 2AY602      0.0000 
     26 N26       -12.1240    6.0730   13.6180 N.am      1 2AY602      0.0000 
     27 C28       -12.7490    6.7400   14.6240 C.2       1 2AY602      0.0000 
     28 C29       -12.3540    7.9880   14.9770 C.2       1 2AY602      0.0000 
     29 C30       -11.2690    8.5790   14.2870 C.2       1 2AY602      0.0000 
     30 C31        -6.1780   10.2430   13.2240 C.3       1 2AY602      0.0000 
     31 C32        -6.5230   10.3950   14.7150 C.3       1 2AY602      0.0000 
     32 C33        -4.9340    9.3280   13.1580 C.3       1 2AY602      0.0000 
     33 C34        -5.7800   11.6370   12.7340 C.3       1 2AY602      0.0000 
     34 O35        -6.4430   10.1970   10.2520 O.3       1 2AY602      0.0000 
     35 C36        -5.4240    9.3510    9.7270 C.3       1 2AY602      0.0000 
     36 H         -10.2156   10.6149    2.0252 H         1 2AY602      0.0000 
     37 H          -8.9599   11.6389    3.7254 H         1 2AY602      0.0000 
     38 H          -8.2273   11.8287    6.0175 H         1 2AY602      0.0000 
     39 H          -8.0296   10.9048    8.2741 H         1 2AY602      0.0000 
     40 H         -10.4743    7.8092    4.5133 H         1 2AY602      0.0000 
     41 H          -8.4231    9.1409   14.1661 H         1 2AY602      0.0000 
     42 H         -10.4106    8.0955   10.6239 H         1 2AY602      0.0000 
     43 H         -12.4608    5.0924   13.3706 H         1 2AY602      0.0000 
     44 H         -13.5414    6.2852   15.1293 H         1 2AY602      0.0000 
     45 H         -12.8129    8.5141   15.7228 H         1 2AY602      0.0000 
     46 H         -10.9658    9.5276   14.5655 H         1 2AY602      0.0000 
     47 H         -12.6203    7.4439    1.2269 H         1 2AY602      0.0000 
     48 H         -12.5158    7.9766    2.7407 H         1 2AY602      0.0000 
     49 H         -12.8133    9.0087    1.5439 H         1 2AY602      0.0000 
     50 H          -5.7561   10.7676   15.2375 H         1 2AY602      0.0000 
     51 H          -7.2995   11.0092   14.8558 H         1 2AY602      0.0000 
     52 H          -6.7633    9.5184   15.1318 H         1 2AY602      0.0000 
     53 H          -4.6186    9.1973   12.2181 H         1 2AY602      0.0000 
     54 H          -4.1663    9.7070   13.6748 H         1 2AY602      0.0000 
     55 H          -5.1204    8.4201   13.5336 H         1 2AY602      0.0000 
     56 H          -5.0099   12.0074   13.2533 H         1 2AY602      0.0000 
     57 H          -5.5078   11.6288   11.7718 H         1 2AY602      0.0000 
     58 H          -6.5326   12.2898   12.8201 H         1 2AY602      0.0000 
     59 H          -4.7403    9.8684    9.2123 H         1 2AY602      0.0000 
     60 H          -4.9376    8.8621   10.4511 H         1 2AY602      0.0000 
     61 H          -5.7972    8.6609    9.1070 H         1 2AY602      0.0000 
@<TRIPOS>BOND
     1    2    1 1    
     2    6    1 1    
     3   36    1 1    
     4    3    2 2    
     5    4    2 2    
     6    5    2 1    
     7   47    5 1    
     8   48    5 1    
     9   49    5 1    
    10    7    6 ar   
    11   16    6 ar   
    12    8    7 ar   
    13   37    7 1    
    14    9    8 ar   
    15   38    8 1    
    16   10    9 1    
    17   15    9 ar   
    18   11   10 2    
    19   39   10 1    
    20   12   11 1    
    21   17   11 1    
    22   13   12 1    
    23   14   13 2    
    24   15   13 1    
    25   16   15 ar   
    26   40   16 1    
    27   18   17 ar   
    28   22   17 ar   
    29   19   18 ar   
    30   34   18 1    
    31   20   19 ar   
    32   30   19 1    
    33   21   20 ar   
    34   41   20 1    
    35   22   21 ar   
    36   23   21 1    
    37   42   22 1    
    38   24   23 1    
    39   29   23 2    
    40   25   24 2    
    41   26   24 am   
    42   27   26 1    
    43   43   26 1    
    44   28   27 2    
    45   44   27 1    
    46   29   28 1    
    47   45   28 1    
    48   46   29 1    
    49   31   30 1    
    50   32   30 1    
    51   33   30 1    
    52   50   31 1    
    53   51   31 1    
    54   52   31 1    
    55   53   32 1    
    56   54   32 1    
    57   55   32 1    
    58   56   33 1    
    59   57   33 1    
    60   58   33 1    
    61   35   34 1    
    62   59   35 1    
    63   60   35 1    
    64   61   35 1    
@<TRIPOS>SUBSTRUCTURE
     1 2AY602      1 GROUP   
@<TRIPOS>SET

