#    Name: 3fmj_FMJ_1_INTS_M
#    Modification time : Tue Mar 25 06:05:04 2014

@<TRIPOS>MOLECULE
3fmj_FMJ_1_INTS_M
   54     0     6     0     0
SMALL
NO_CHARGES


@<TRIPOS>ATOM
      1 CA         19.9835   12.8515   33.8095 C.3       2 GLC5        0.0000 
      2 CA         20.2310   12.4920   31.6540 C.3       6 GLL5        0.0000 
      3 CA         19.7360   13.2110   35.9650 C.3       4 GLP5        0.0000 
      4 CA         21.0205    6.7300   31.5585 C.3       2 GLC5        0.0000 
      5 CA         20.7490    8.8120   30.9580 C.3       6 GLL5        0.0000 
      6 CA         21.2920    4.6480   32.1590 C.3       4 GLP5        0.0000 
      7 CA         22.4965    8.2660   30.3715 C.3       2 GLC5        0.0000 
      8 CA         24.2440    7.7200   29.7850 C.3       4 GLP5        0.0000 
      9 CA         21.1645   10.1320   34.4725 C.3       2 GLC5        0.0000 
     10 CA         22.2260    9.5150   32.6330 C.3       6 GLL5        0.0000 
     11 CA         20.1030   10.7490   36.3120 C.3       4 GLP5        0.0000 
     12 CA         20.7610    8.6065   33.3605 C.3       2 GLC5        0.0000 
     13 CA         19.2960    7.6980   34.0880 C.3       4 GLP5        0.0000 
     14 CA         22.4115    7.6045   33.7715 C.3       2 GLC5        0.0000 
     15 CA         22.5970    5.6940   34.9100 C.3       4 GLP5        0.0000 
     16 CA         23.2350    8.6175   31.2090 C.3       2 GLC5        0.0000 
     17 N          22.3320    7.2765   31.4195 N.am      1 SEC2        0.0000 
     18 N          21.7250    8.5440   31.8320 N.am      5 SEL2        0.0000 
     19 N          22.9390    6.0090   31.0070 N.am      3 SEP2        0.0000 
     20 CA         23.8260   12.4270   30.6775 C.3       2 GLC5        0.0000 
     21 CA         22.5560   13.9760   31.4090 C.3       6 GLL5        0.0000 
     22 CA         25.0960   10.8780   29.9460 C.3       4 GLP5        0.0000 
     23 N          17.6230   15.4065   31.9180 N.am      1 SEC2        0.0000 
     24 N          18.8830   14.3280   31.6380 N.am      5 SEL2        0.0000 
     25 N          16.3630   16.4850   32.1980 N.am      3 SEP2        0.0000 
     26 CA         18.6405   12.1865   34.4005 C.3       2 GLC5        0.0000 
     27 CA         17.5450   11.1620   32.8360 C.3       6 GLL5        0.0000 
     28 CA         14.1490   12.4065   29.7825 C.3       2 GLC5        0.0000 
     29 CA         15.4200   11.6480   31.0910 C.3       6 GLL5        0.0000 
     30 CA         12.8780   13.1650   28.4740 C.3       4 GLP5        0.0000 
     31 CA         17.4093    9.9038   31.3268 C.3       2 GLC5        0.0000 
     32 CA         17.6580   12.1470   31.8530 C.3       6 GLL5        0.0000 
     33 CA         17.2170    8.1530   30.3090 C.3       4 GLP5        0.0000 
     34 CA         18.1270    9.2440   33.4883 C.3       2 GLC5        0.0000 
     35 CA         14.4752    9.0160   32.9690 C.3       2 GLC5        0.0000 
     36 CA         16.3710   10.4180   32.9410 C.3       6 GLL5        0.0000 
     37 CA         13.1110    7.4910   33.4330 C.3       4 GLP5        0.0000 
     38 CA         16.5282    9.3470   31.4070 C.3       2 GLC5        0.0000 
     39 CA         15.3080   10.6640   32.0690 C.3       6 GLL5        0.0000 
     40 CA         19.9576    8.7010   32.6062 C.3       2 GLC5        0.0000 
     41 CA         20.2330   10.1010   30.8750 C.3       6 GLL5        0.0000 
     42 CA         18.8540    8.8048   30.6127 C.3       2 GLC5        0.0000 
     43 CA         21.4285    9.9118   29.1058 C.3       2 GLC5        0.0000 
     44 CA         22.3660   10.3670   27.2950 C.3       4 GLP5        0.0000 
     45 CA         15.9665   11.8005   33.9804 C.3       2 GLC5        0.0000 
     46 CA         15.8000   12.8740   35.4820 C.3       4 GLP5        0.0000 
     47 CA         13.7020   11.5730   32.3710 C.3       2 GLC5        0.0000 
     48 CA         12.0400   11.9900   33.1620 C.3       4 GLP5        0.0000 
     49 CA         16.3236   13.3522   32.6180 C.3       2 GLC5        0.0000 
     50 CA         16.3740   14.7460   33.9810 C.3       4 GLP5        0.0000 
     51 CA         16.4292   11.5207   29.2185 C.3       2 GLC5        0.0000 
     52 CA         16.5950   12.3910   30.9850 C.3       6 GLL5        0.0000 
     53 CA         16.8510   11.0220   27.3990 C.3       4 GLP5        0.0000 
     54 CA         16.6122   10.0862   30.6735 C.3       2 GLC5        0.0000 
@<TRIPOS>BOND
@<TRIPOS>SUBSTRUCTURE
     1 SEC2       17 GROUP        1 X    SEC  0     ROOT SEC X 2
     2 GLC5        1 GROUP        1 X    GLC  0     **** GLC X 6
     3 SEP2       19 GROUP        1 Y    SEP  0     ROOT SEP Y 9
     4 GLP5        3 GROUP        1 Y    GLP  0     **** GLP Y 13
     5 SEL2       18 GROUP        1 Z    SEL  0     ROOT SEL Z 16
     6 GLL5        2 GROUP        1 Z    GLL  0     **** GLL Z 20
@<TRIPOS>SET

