#    Name: 3fmj_FMJ_1_ligand
#    Modification time : Tue Mar 25 06:05:04 2014

@<TRIPOS>MOLECULE
3fmj_FMJ_1_ligand
   31    33     1     0     0
SMALL
NO_CHARGES


@<TRIPOS>ATOM
      1 C1         18.9020   12.9630   31.7220 C.2       1 FMJ361      0.0000 
      2 C2         20.2310   12.4920   31.6540 C.2       1 FMJ361      0.0000 
      3 C3         17.6580   12.1470   31.8530 C.ar      1 FMJ361      0.0000 
      4 C5         20.7460   11.0910   31.7070 C.ar      1 FMJ361      0.0000 
      5 C6         21.0790   13.7030   31.5250 C.2       1 FMJ361      0.0000 
      6 C14        16.3710   10.4180   32.9410 C.ar      1 FMJ361      0.0000 
      7 C16        20.7490    8.8120   30.9580 C.ar      1 FMJ361      0.0000 
      8 N19        23.2220    9.2180   33.5050 N.pl3     1 FMJ361      0.0000 
      9 C15        22.2260    9.5150   32.6330 C.ar      1 FMJ361      0.0000 
     10 N10        21.7390   10.7780   32.5720 N.ar      1 FMJ361      0.0000 
     11 N18        21.7250    8.5440   31.8320 N.ar      1 FMJ361      0.0000 
     12 C11        20.2330   10.1010   30.8750 C.ar      1 FMJ361      0.0000 
     13 C12        22.5560   13.9760   31.4090 C.3       1 FMJ361      0.0000 
     14 O9         20.2440   14.7690   31.5220 O.3       1 FMJ361      0.0000 
     15 N4         18.8830   14.3280   31.6380 N.2       1 FMJ361      0.0000 
     16 C8         17.5450   11.1620   32.8360 C.ar      1 FMJ361      0.0000 
     17 C17        15.3080   10.6640   32.0690 C.ar      1 FMJ361      0.0000 
     18 C13        15.4200   11.6480   31.0910 C.ar      1 FMJ361      0.0000 
     19 C7         16.5950   12.3910   30.9850 C.ar      1 FMJ361      0.0000 
     20 H          16.2863    9.6889   33.6589 H         1 FMJ361      0.0000 
     21 H          20.3628    8.0804   30.3354 H         1 FMJ361      0.0000 
     22 H          23.5450    8.2716   33.4983 H         1 FMJ361      0.0000 
     23 H          23.5450    9.9717   34.0773 H         1 FMJ361      0.0000 
     24 H          19.4866   10.3182   30.2114 H         1 FMJ361      0.0000 
     25 H          18.3248   10.9870   33.4790 H         1 FMJ361      0.0000 
     26 H          14.4422   10.1161   32.1514 H         1 FMJ361      0.0000 
     27 H          14.6397   11.8271   30.4485 H         1 FMJ361      0.0000 
     28 H          16.6774   13.1203   30.2651 H         1 FMJ361      0.0000 
     29 H          23.0599   13.6371   32.2035 H         1 FMJ361      0.0000 
     30 H          22.9523   13.5382   30.6020 H         1 FMJ361      0.0000 
     31 H          22.7482   14.9546   31.3357 H         1 FMJ361      0.0000 
@<TRIPOS>BOND
     1    2    1 1    
     2    3    1 1    
     3   15    1 2    
     4    4    2 1    
     5    5    2 2    
     6   16    3 ar   
     7   19    3 ar   
     8   10    4 ar   
     9   12    4 ar   
    10   13    5 1    
    11   14    5 1    
    12   16    6 ar   
    13   17    6 ar   
    14   20    6 1    
    15   11    7 ar   
    16   12    7 ar   
    17   21    7 1    
    18    9    8 1    
    19   22    8 1    
    20   23    8 1    
    21   10    9 ar   
    22   11    9 ar   
    23   24   12 1    
    24   29   13 1    
    25   30   13 1    
    26   31   13 1    
    27   15   14 1    
    28   25   16 1    
    29   18   17 ar   
    30   26   17 1    
    31   19   18 ar   
    32   27   18 1    
    33   28   19 1    
@<TRIPOS>SUBSTRUCTURE
     1 FMJ361      1 GROUP   
@<TRIPOS>SET

