#    Name: 2cct_2E1_1_INTS_M
#    Modification time : Mon Mar 24 23:27:46 2014

@<TRIPOS>MOLECULE
2cct_2E1_1_INTS_M
   59     0     9     0     0
SMALL
NO_CHARGES


@<TRIPOS>ATOM
      1 CA         36.7540    7.8220   24.3395 C.3       3 GLC5        0.0000 
      2 CA         35.0300    7.1580   25.3610 C.3       9 GLL5        0.0000 
      3 CA         38.4780    8.4860   23.3180 C.3       6 GLP5        0.0000 
      4 CA         34.1105    9.9350   27.0635 C.3       3 GLC5        0.0000 
      5 CA         34.0940    8.2190   25.9230 C.3       9 GLL5        0.0000 
      6 CA         34.1270   11.6510   28.2040 C.3       6 GLP5        0.0000 
      7 CA         31.9395    8.3350   22.4925 C.3       3 GLC5        0.0000 
      8 CA         32.3020    7.4210   24.3390 C.3       9 GLL5        0.0000 
      9 CA         31.5770    9.2490   20.6460 C.3       6 GLP5        0.0000 
     10 CA         30.2405    7.4135   25.0590 C.3       3 GLC5        0.0000 
     11 CA         28.1790    7.4060   25.7790 C.3       6 GLP5        0.0000 
     12 CA         32.5225    9.6705   27.9600 C.3       3 GLC5        0.0000 
     13 CA         31.7870    8.6090   26.3990 C.3       9 GLL5        0.0000 
     14 CA         33.2580   10.7320   29.5210 C.3       6 GLP5        0.0000 
     15 N          32.7050    4.5845   27.6485 N.am      2 SEC2        0.0000 
     16 N          32.3810    6.2910   27.8430 N.am      8 SEL2        0.0000 
     17 N          33.0290    2.8780   27.4540 N.am      5 SEP2        0.0000 
     18 O          30.9790    8.1580   30.4660 O.2       1 ALC1        0.0000 
     19 O          31.7170    7.2950   29.7650 O.2       7 ALL1        0.0000 
     20 O          30.2410    9.0210   31.1670 O.2       4 ALP1        0.0000 
     21 CA         31.2740    4.4530   29.4130 C.3       3 GLC5        0.0000 
     22 CA         31.9740    6.1740   30.5170 C.3       9 GLL5        0.0000 
     23 CA         30.5740    2.7320   28.3090 C.3       6 GLP5        0.0000 
     24 CA         30.3120    6.1755   30.2505 C.3       3 GLC5        0.0000 
     25 CA         28.6500    6.1770   29.9840 C.3       6 GLP5        0.0000 
     26 O          29.6015   11.3760   27.3875 O.2       1 ALC1        0.0000 
     27 O          30.3490   10.1640   27.1350 O.2       7 ALL1        0.0000 
     28 O          28.8540   12.5880   27.6400 O.2       4 ALP1        0.0000 
     29 CA         34.7135   13.6790   21.8645 C.3       3 GLC5        0.0000 
     30 CA         33.8730   12.5000   22.6400 C.3       9 GLL5        0.0000 
     31 CA         35.5540   14.8580   21.0890 C.3       6 GLP5        0.0000 
     32 O          27.5950   11.0255   24.1250 O.2       1 ALC1        0.0000 
     33 O          28.8370   10.5160   24.5970 O.2       7 ALL1        0.0000 
     34 O          26.3530   11.5350   23.6530 O.2       4 ALP1        0.0000 
     35 CA         35.9650    7.8617   26.8200 C.3       3 GLC5        0.0000 
     36 CA         37.3680    8.0350   27.9980 C.3       6 GLP5        0.0000 
     37 CA         31.5027    5.4537   23.2843 C.3       3 GLC5        0.0000 
     38 CA         33.2950    6.3580   23.8720 C.3       9 GLL5        0.0000 
     39 CA         30.2070    4.0180   22.4630 C.3       6 GLP5        0.0000 
     40 CA         29.8092    8.3083   26.0063 C.3       3 GLC5        0.0000 
     41 CA         32.0560   11.4648   26.4765 C.3       3 GLC5        0.0000 
     42 CA         31.0920    9.8120   26.0680 C.3       9 GLL5        0.0000 
     43 CA         33.0030   12.7150   27.5010 C.3       6 GLP5        0.0000 
     44 CA         29.3655    9.0888   25.1330 C.3       3 GLC5        0.0000 
     45 CA         31.1260   10.6170   24.8360 C.3       9 GLL5        0.0000 
     46 CA         32.6803   12.0995   25.6448 C.3       3 GLC5        0.0000 
     47 CA         32.3410   11.1030   24.3700 C.3       9 GLL5        0.0000 
     48 CA         32.3503   10.7157   21.7848 C.3       3 GLC5        0.0000 
     49 CA         32.3740   11.8650   23.2070 C.3       9 GLL5        0.0000 
     50 CA         30.6262   13.9898   22.5333 C.3       3 GLC5        0.0000 
     51 CA         30.0080   11.7000   22.9670 C.3       9 GLL5        0.0000 
     52 CA         30.6290   16.0320   22.3380 C.3       6 GLP5        0.0000 
     53 CA         28.6145   10.1550   22.6303 C.3       3 GLC5        0.0000 
     54 CA         27.2360    8.9970   21.7080 C.3       6 GLP5        0.0000 
     55 CA         31.1583   10.3346   22.0978 C.3       3 GLC5        0.0000 
     56 CA         29.9780   10.9260   24.1380 C.3       9 GLL5        0.0000 
     57 CA         30.1873   12.8001   24.8148 C.3       3 GLC5        0.0000 
     58 CA         31.2390   12.1950   22.4900 C.3       9 GLL5        0.0000 
     59 CA         29.6350   14.1800   26.0800 C.3       6 GLP5        0.0000 
@<TRIPOS>BOND
@<TRIPOS>SUBSTRUCTURE
     1 ALC1       18 GROUP        1 X    ALC  0     ROOT ALC X 1
     2 SEC2       15 GROUP        1 X    SEC  0     **** SEC X 2
     3 GLC5        1 GROUP        1 X    GLC  0     **** GLC X 6
     4 ALP1       20 GROUP        1 Y    ALP  0     ROOT ALP Y 8
     5 SEP2       17 GROUP        1 Y    SEP  0     **** SEP Y 9
     6 GLP5        3 GROUP        1 Y    GLP  0     **** GLP Y 13
     7 ALL1       19 GROUP        1 Z    ALL  0     ROOT ALL Z 15
     8 SEL2       16 GROUP        1 Z    SEL  0     **** SEL Z 16
     9 GLL5        2 GROUP        1 Z    GLL  0     **** GLL Z 20
@<TRIPOS>SET

