#    Name: 2cct_2E1_1_ligand
#    Modification time : Mon Mar 24 23:27:46 2014

@<TRIPOS>MOLECULE
2cct_2E1_1_ligand
   44    46     1     0     0
SMALL
NO_CHARGES


@<TRIPOS>ATOM
      1 C19        35.0300    7.1580   25.3610 C.3       1 2E11224     0.0000 
      2 C20        34.0940    8.2190   25.9230 C.3       1 2E11224     0.0000 
      3 C17        32.3020    7.4210   24.3390 C.3       1 2E11224     0.0000 
      4 C16        33.2950    6.3580   23.8720 C.3       1 2E11224     0.0000 
      5 N21        32.6980    8.0350   25.5880 N.3       1 2E11224     0.0000 
      6 C3         31.7870    8.6090   26.3990 C.2       1 2E11224     0.0000 
      7 C2         31.3770    8.3360   27.6760 C.2       1 2E11224     0.0000 
      8 C8         31.8480    7.2240   28.4370 C.2       1 2E11224     0.0000 
      9 N24        34.6920    6.9190   23.9210 N.4       1 2E11224     0.0000 
     10 O9         32.3810    6.2910   27.8430 O.2       1 2E11224     0.0000 
     11 N10        31.7170    7.2950   29.7650 N.am      1 2E11224     0.0000 
     12 C26        31.9740    6.1740   30.5170 C.3       1 2E11224     0.0000 
     13 C27        33.4540    5.8480   30.7900 C.3       1 2E11224     0.0000 
     14 N1         30.5410    9.2700   28.1140 N.2       1 2E11224     0.0000 
     15 N5         30.3490   10.1640   27.1350 N.pl3     1 2E11224     0.0000 
     16 C4         31.0920    9.8120   26.0680 C.2       1 2E11224     0.0000 
     17 C6         31.1260   10.6170   24.8360 C.ar      1 2E11224     0.0000 
     18 C11        32.3410   11.1030   24.3700 C.ar      1 2E11224     0.0000 
     19 C12        32.3740   11.8650   23.2070 C.ar      1 2E11224     0.0000 
     20 CL25       33.8730   12.5000   22.6400 Cl        1 2E11224     0.0000 
     21 C13        31.2390   12.1950   22.4900 C.ar      1 2E11224     0.0000 
     22 O24        31.3410   12.9440   21.3480 O.3       1 2E11224     0.0000 
     23 C14        30.0080   11.7000   22.9670 C.ar      1 2E11224     0.0000 
     24 C15        29.9780   10.9260   24.1380 C.ar      1 2E11224     0.0000 
     25 O23        28.8370   10.5160   24.5970 O.3       1 2E11224     0.0000 
     26 H          34.9089    6.2410   25.9290 H         1 2E11224     0.0000 
     27 H          36.0545    7.5052   25.4502 H         1 2E11224     0.0000 
     28 H          34.4556    9.2121   25.5656 H         1 2E11224     0.0000 
     29 H          34.2323    8.2396   27.0299 H         1 2E11224     0.0000 
     30 H          31.3113    6.9403   24.4307 H         1 2E11224     0.0000 
     31 H          32.2139    8.1760   23.5371 H         1 2E11224     0.0000 
     32 H          33.0493    6.0658   22.8558 H         1 2E11224     0.0000 
     33 H          33.2208    5.4931   24.5239 H         1 2E11224     0.0000 
     34 H          31.4289    8.1681   30.2342 H         1 2E11224     0.0000 
     35 H          31.5332    5.2387   30.0560 H         1 2E11224     0.0000 
     36 H          31.4761    6.2163   31.5328 H         1 2E11224     0.0000 
     37 H          29.7686   10.9419   27.1826 H         1 2E11224     0.0000 
     38 H          33.2078   10.9018   24.8792 H         1 2E11224     0.0000 
     39 H          29.1454   11.9046   22.4622 H         1 2E11224     0.0000 
     40 H          33.9641    5.6998   29.9427 H         1 2E11224     0.0000 
     41 H          33.9125    6.5877   31.2826 H         1 2E11224     0.0000 
     42 H          33.5563    5.0206   31.3422 H         1 2E11224     0.0000 
     43 H          30.3971   13.1149   21.0656 H         1 2E11224     0.0000 
     44 H          28.1508   11.0094   24.0626 H         1 2E11224     0.0000 
@<TRIPOS>BOND
     1    2    1 1    
     2    9    1 1    
     3   26    1 1    
     4   27    1 1    
     5    5    2 1    
     6   28    2 1    
     7   29    2 1    
     8    4    3 1    
     9    5    3 1    
    10   30    3 1    
    11   31    3 1    
    12    9    4 1    
    13   32    4 1    
    14   33    4 1    
    15    6    5 1    
    16    7    6 1    
    17   16    6 2    
    18    8    7 1    
    19   14    7 2    
    20   10    8 2    
    21   11    8 am   
    22   12   11 1    
    23   34   11 1    
    24   13   12 1    
    25   35   12 1    
    26   36   12 1    
    27   40   13 1    
    28   41   13 1    
    29   42   13 1    
    30   15   14 1    
    31   16   15 1    
    32   37   15 1    
    33   17   16 1    
    34   18   17 ar   
    35   24   17 ar   
    36   19   18 ar   
    37   38   18 1    
    38   20   19 1    
    39   21   19 ar   
    40   22   21 1    
    41   23   21 ar   
    42   43   22 1    
    43   24   23 ar   
    44   39   23 1    
    45   25   24 1    
    46   44   25 1    
@<TRIPOS>SUBSTRUCTURE
     1 2E11224     1 GROUP   
@<TRIPOS>SET

