#    Name: 1s36_CEI_1_INTS_M
#    Modification time : Tue Mar 25 01:53:15 2014

@<TRIPOS>MOLECULE
1s36_CEI_1_INTS_M
   61     0     6     0     0
SMALL
NO_CHARGES


@<TRIPOS>ATOM
      1 CA         52.5345   29.9915  -62.8115 C.3       2 GLC5        0.0000 
      2 CA         54.0200   30.0200  -62.1620 C.3       6 GLL5        0.0000 
      3 CA         51.0490   29.9630  -63.4610 C.3       4 GLP5        0.0000 
      4 CA         57.3285   31.3440  -57.8735 C.3       2 GLC5        0.0000 
      5 CA         57.2730   31.7330  -59.8460 C.3       6 GLL5        0.0000 
      6 CA         57.3840   30.9550  -55.9010 C.3       4 GLP5        0.0000 
      7 CA         54.3800   25.4715  -62.5070 C.3       2 GLC5        0.0000 
      8 CA         52.5020   25.7150  -61.6310 C.3       6 GLL5        0.0000 
      9 CA         56.2580   25.2280  -63.3830 C.3       4 GLP5        0.0000 
     10 CA         54.0625   25.0815  -66.5500 C.3       2 GLC5        0.0000 
     11 CA         52.1830   24.8890  -65.3360 C.3       6 GLL5        0.0000 
     12 CA         55.9420   25.2740  -67.7640 C.3       4 GLP5        0.0000 
     13 CA         54.1935   23.1420  -66.5175 C.3       2 GLC5        0.0000 
     14 CA         52.4240   23.5110  -65.3390 C.3       6 GLL5        0.0000 
     15 CA         55.9630   22.7730  -67.6960 C.3       4 GLP5        0.0000 
     16 O          56.6730   19.8175  -55.1810 O.2       1 ALC1        0.0000 
     17 O          56.0200   19.5480  -56.4010 O.2       5 ALL1        0.0000 
     18 O          57.3260   20.0870  -53.9610 O.2       3 ALP1        0.0000 
     19 CA         58.3260   30.0418  -62.9582 C.3       2 GLC5        0.0000 
     20 CA         57.5430   31.1020  -61.0700 C.3       6 GLL5        0.0000 
     21 CA         59.6390   29.2610  -64.4700 C.3       4 GLP5        0.0000 
     22 CA         55.2705   31.4206  -63.4312 C.3       2 GLC5        0.0000 
     23 CA         56.4830   30.5430  -61.8230 C.3       6 GLL5        0.0000 
     24 CA         55.0000   32.4030  -65.0690 C.3       4 GLP5        0.0000 
     25 CA         57.3370   33.1797  -60.6350 C.3       2 GLC5        0.0000 
     26 CA         57.2660   34.9420  -60.8120 C.3       4 GLP5        0.0000 
     27 CA         58.4085   29.8079  -60.2601 C.3       2 GLC5        0.0000 
     28 CA         59.6740   28.3380  -59.8740 C.3       4 GLP5        0.0000 
     29 CA         58.0905   32.4524  -62.0371 C.3       2 GLC5        0.0000 
     30 CA         59.0380   33.6270  -63.4280 C.3       4 GLP5        0.0000 
     31 CA         56.3528   33.2398  -60.2860 C.3       2 GLC5        0.0000 
     32 CA         55.9620   31.8140  -59.3840 C.3       6 GLL5        0.0000 
     33 CA         55.8432   30.8822  -57.8635 C.3       2 GLC5        0.0000 
     34 CA         56.2470   30.2270  -55.9670 C.3       4 GLP5        0.0000 
     35 CA         52.1300   26.2282  -59.4527 C.3       2 GLC5        0.0000 
     36 CA         53.7940   25.5320  -60.8380 C.3       6 GLL5        0.0000 
     37 CA         51.1120   26.8330  -57.6710 C.3       4 GLP5        0.0000 
     38 CA         50.5725   25.8590  -65.5368 C.3       2 GLC5        0.0000 
     39 CA         52.2070   25.6050  -64.1250 C.3       6 GLL5        0.0000 
     40 CA         48.9500   26.4710  -66.3430 C.3       4 GLP5        0.0000 
     41 CA         52.4617   24.4195  -67.3632 C.3       2 GLC5        0.0000 
     42 CA         52.6200   24.6390  -69.3890 C.3       4 GLP5        0.0000 
     43 CA         53.2148   21.5877  -65.5092 C.3       2 GLC5        0.0000 
     44 CA         53.8750   19.9980  -66.2790 C.3       4 GLP5        0.0000 
     45 CA         50.5127   22.6037  -65.0293 C.3       2 GLC5        0.0000 
     46 CA         52.6850   22.8440  -64.1400 C.3       6 GLL5        0.0000 
     47 CA         48.4710   22.0300  -65.3190 C.3       4 GLP5        0.0000 
     48 CA         51.6800   21.6885  -62.9860 C.3       2 GLC5        0.0000 
     49 CA         50.6640   20.1760  -62.4350 C.3       4 GLP5        0.0000 
     50 CA         53.4385   22.9903  -58.2204 C.3       2 GLC5        0.0000 
     51 CA         55.1180   24.2490  -59.3840 C.3       6 GLL5        0.0000 
     52 CA         51.8450   23.2340  -57.3980 C.3       4 GLP5        0.0000 
     53 CA         53.7450   20.2240  -59.9438 C.3       2 GLC5        0.0000 
     54 CA         54.8400   21.8360  -59.0820 C.3       6 GLL5        0.0000 
     55 CA         52.5320   19.1960  -61.1760 C.3       4 GLP5        0.0000 
     56 CA         54.0780   20.5735  -56.7963 C.3       2 GLC5        0.0000 
     57 CA         55.0760   20.6680  -58.3410 C.3       6 GLL5        0.0000 
     58 CA         52.7180   20.4490  -55.8440 C.3       4 GLP5        0.0000 
     59 CA         54.5067   22.1827  -56.1043 C.3       2 GLC5        0.0000 
     60 CA         56.2920   21.9560  -56.6950 C.3       6 GLL5        0.0000 
     61 CA         52.8270   21.8300  -55.1420 C.3       4 GLP5        0.0000 
@<TRIPOS>BOND
@<TRIPOS>SUBSTRUCTURE
     1 ALC1       16 GROUP        1 X    ALC  0     ROOT ALC X 1
     2 GLC5        1 GROUP        1 X    GLC  0     **** GLC X 6
     3 ALP1       18 GROUP        1 Y    ALP  0     ROOT ALP Y 8
     4 GLP5        3 GROUP        1 Y    GLP  0     **** GLP Y 13
     5 ALL1       17 GROUP        1 Z    ALL  0     ROOT ALL Z 15
     6 GLL5        2 GROUP        1 Z    GLL  0     **** GLL Z 20
@<TRIPOS>SET

