#    Name: 1s36_CEI_1_ligand
#    Modification time : Tue Mar 25 01:53:15 2014

@<TRIPOS>MOLECULE
1s36_CEI_1_ligand
   52    55     1     0     0
SMALL
NO_CHARGES


@<TRIPOS>ATOM
      1 O33        52.9900   28.6000  -60.5680 O.2       1 CEI201      0.0000 
      2 C2         53.8720   28.7250  -61.3930 C.2       1 CEI201      0.0000 
      3 C10        54.0200   30.0200  -62.1620 C.3       1 CEI201      0.0000 
      4 C11        55.1780   30.6470  -61.3660 C.ar      1 CEI201      0.0000 
      5 C12        56.4830   30.5430  -61.8230 C.ar      1 CEI201      0.0000 
      6 C13        57.5430   31.1020  -61.0700 C.ar      1 CEI201      0.0000 
      7 C14        57.2730   31.7330  -59.8460 C.ar      1 CEI201      0.0000 
      8 O17        58.3390   32.2980  -59.0680 O.3       1 CEI201      0.0000 
      9 C15        55.9620   31.8140  -59.3840 C.ar      1 CEI201      0.0000 
     10 C16        54.9170   31.2610  -60.1360 C.ar      1 CEI201      0.0000 
     11 N1         54.7170   27.7360  -61.6470 N.am      1 CEI201      0.0000 
     12 C9         54.8020   26.5230  -60.8360 C.ar      1 CEI201      0.0000 
     13 C8         53.7940   25.5320  -60.8380 C.ar      1 CEI201      0.0000 
     14 C26        52.5020   25.7150  -61.6310 C.3       1 CEI201      0.0000 
     15 C27        52.4770   24.9430  -62.9310 C.ar      1 CEI201      0.0000 
     16 C28        52.2070   25.6050  -64.1250 C.ar      1 CEI201      0.0000 
     17 C29        52.1830   24.8890  -65.3360 C.ar      1 CEI201      0.0000 
     18 C30        52.4240   23.5110  -65.3390 C.ar      1 CEI201      0.0000 
     19 C31        52.6850   22.8440  -64.1400 C.ar      1 CEI201      0.0000 
     20 C32        52.7070   23.5580  -62.9340 C.ar      1 CEI201      0.0000 
     21 N7         53.9710   24.4200  -60.0920 N.ar      1 CEI201      0.0000 
     22 C6         55.1180   24.2490  -59.3840 C.ar      1 CEI201      0.0000 
     23 C5         56.1080   25.2210  -59.4190 C.ar      1 CEI201      0.0000 
     24 N4         55.9370   26.3210  -60.1230 N.ar      1 CEI201      0.0000 
     25 C19        55.3300   23.0650  -58.6230 C.ar      1 CEI201      0.0000 
     26 C20        54.8400   21.8360  -59.0820 C.ar      1 CEI201      0.0000 
     27 C21        55.0760   20.6680  -58.3410 C.ar      1 CEI201      0.0000 
     28 C22        55.8000   20.7280  -57.1560 C.ar      1 CEI201      0.0000 
     29 O25        56.0200   19.5480  -56.4010 O.3       1 CEI201      0.0000 
     30 C23        56.2920   21.9560  -56.6950 C.ar      1 CEI201      0.0000 
     31 C24        56.0810   23.1150  -57.4380 C.ar      1 CEI201      0.0000 
     32 H          53.1651   30.6090  -62.0558 H         1 CEI201      0.0000 
     33 H          54.3313   29.8318  -63.1402 H         1 CEI201      0.0000 
     34 H          56.6932   30.0640  -62.7043 H         1 CEI201      0.0000 
     35 H          58.4999   31.0435  -61.4210 H         1 CEI201      0.0000 
     36 H          55.7567   32.2787  -58.4917 H         1 CEI201      0.0000 
     37 H          53.9535   31.3071  -59.7813 H         1 CEI201      0.0000 
     38 H          55.3837   27.7725  -62.4610 H         1 CEI201      0.0000 
     39 H          52.3648   26.7882  -61.8415 H         1 CEI201      0.0000 
     40 H          51.6532   25.3989  -61.0028 H         1 CEI201      0.0000 
     41 H          52.0248   26.6139  -64.1294 H         1 CEI201      0.0000 
     42 H          51.9887   25.3801  -66.2136 H         1 CEI201      0.0000 
     43 H          52.4088   22.9907  -66.2234 H         1 CEI201      0.0000 
     44 H          52.8604   21.8345  -64.1396 H         1 CEI201      0.0000 
     45 H          52.8912   23.0690  -62.0522 H         1 CEI201      0.0000 
     46 H          56.9816   25.0496  -58.8736 H         1 CEI201      0.0000 
     47 H          54.3102   21.7885  -59.9568 H         1 CEI201      0.0000 
     48 H          54.7106   19.7698  -58.6799 H         1 CEI201      0.0000 
     49 H          56.8079   21.9979  -55.8086 H         1 CEI201      0.0000 
     50 H          56.4732   24.0097  -57.1227 H         1 CEI201      0.0000 
     51 H          59.0135   32.6063  -59.7388 H         1 CEI201      0.0000 
     52 H          56.7008   19.8034  -55.7144 H         1 CEI201      0.0000 
@<TRIPOS>BOND
     1    2    1 2    
     2    3    2 1    
     3   11    2 am   
     4    4    3 1    
     5   32    3 1    
     6   33    3 1    
     7    5    4 ar   
     8   10    4 ar   
     9    6    5 ar   
    10   34    5 1    
    11    7    6 ar   
    12   35    6 1    
    13    8    7 1    
    14    9    7 ar   
    15   51    8 1    
    16   10    9 ar   
    17   36    9 1    
    18   37   10 1    
    19   12   11 1    
    20   38   11 1    
    21   13   12 ar   
    22   24   12 ar   
    23   14   13 1    
    24   21   13 ar   
    25   15   14 1    
    26   39   14 1    
    27   40   14 1    
    28   16   15 ar   
    29   20   15 ar   
    30   17   16 ar   
    31   41   16 1    
    32   18   17 ar   
    33   42   17 1    
    34   19   18 ar   
    35   43   18 1    
    36   20   19 ar   
    37   44   19 1    
    38   45   20 1    
    39   22   21 ar   
    40   23   22 ar   
    41   25   22 1    
    42   24   23 ar   
    43   46   23 1    
    44   26   25 ar   
    45   31   25 ar   
    46   27   26 ar   
    47   47   26 1    
    48   28   27 ar   
    49   48   27 1    
    50   29   28 1    
    51   30   28 ar   
    52   52   29 1    
    53   31   30 ar   
    54   49   30 1    
    55   50   31 1    
@<TRIPOS>SUBSTRUCTURE
     1 CEI201      1 GROUP   
@<TRIPOS>SET

