#    Name: 4aa2_ARG_PRO_LYS_ILE_PRO_PRO_1_INTS_M
#    Modification time : Tue Mar 25 05:21:53 2014

@<TRIPOS>MOLECULE
4aa2_ARG_PRO_LYS_ILE_PRO_PRO_1_INTS_M
   95     0    12     0     0
SMALL
NO_CHARGES


@<TRIPOS>ATOM
      1 CA         23.4315    3.7140    8.9805 C.3       4 GLC5        0.0000 
      2 CA         23.7700    5.2440   10.1600 C.3      12 GLL5        0.0000 
      3 CA         23.0930    2.1840    7.8010 C.3       8 GLP5        0.0000 
      4 CA         22.3965    5.6215    9.0155 C.3       4 GLC5        0.0000 
      5 CA         21.0230    5.9990    7.8710 C.3       8 GLP5        0.0000 
      6 CA         23.1900    6.5600    8.2705 C.3       4 GLC5        0.0000 
      7 CA         24.5390    6.3380    9.4930 C.3      12 GLL5        0.0000 
      8 CA         21.8410    6.7820    7.0480 C.3       8 GLP5        0.0000 
      9 CA         22.8270    8.0845    9.4335 C.3       4 GLC5        0.0000 
     10 CA         24.4410    7.4720   10.4680 C.3      12 GLL5        0.0000 
     11 CA         21.2130    8.6970    8.3990 C.3       8 GLP5        0.0000 
     12 O          22.9895    3.3250   12.4630 O.2       1 ALC1        0.0000 
     13 O          24.4430    3.2490   12.6430 O.2       9 ALL1        0.0000 
     14 O          21.5360    3.4010   12.2830 O.2       5 ALP1        0.0000 
     15 CA         24.4060    0.1975   13.8490 C.3       4 GLC5        0.0000 
     16 CA         25.2120    2.1170   13.1330 C.3      12 GLL5        0.0000 
     17 CA         23.6000   -1.7220   14.5650 C.3       8 GLP5        0.0000 
     18 N          22.9130    0.9345   11.0165 N.am      2 SEC2        0.0000 
     19 N          24.1980    0.6370   11.5520 N.am     10 SEL2        0.0000 
     20 N          21.6280    1.2320   10.4810 N.am      6 SEP2        0.0000 
     21 N          23.4385   -0.5085   11.1730 N.am      2 SEC2        0.0000 
     22 N          22.6790   -1.6540   10.7940 N.am      6 SEP2        0.0000 
     23 CA         22.6030    1.0015   13.4840 C.3       4 GLC5        0.0000 
     24 CA         24.5620    1.5540   14.3920 C.3      12 GLL5        0.0000 
     25 CA         20.6440    0.4490   12.5760 C.3       8 GLP5        0.0000 
     26 CA         22.4095    2.9935   15.7415 C.3       4 GLC5        0.0000 
     27 CA         24.2060    2.5750   15.4670 C.3      12 GLL5        0.0000 
     28 CA         20.6130    3.4120   16.0160 C.3       8 GLP5        0.0000 
     29 O          27.5960    0.8480   12.5290 O.2       1 ALC1        0.0000 
     30 O          26.4470    0.5920   11.7000 O.2       9 ALL1        0.0000 
     31 O          28.7450    1.1040   13.3580 O.2       5 ALP1        0.0000 
     32 Zn         27.3280   -2.0530   12.7055 Zn        3 ZIC7        0.0000 
     33 Zn         28.0680   -1.6860   11.8580 Zn       11 ZIL7        0.0000 
     34 Zn         26.5880   -2.4200   13.5530 Zn        7 ZIP7        0.0000 
     35 N          29.3205   -1.2830   11.9660 N.am      2 SEC2        0.0000 
     36 N          28.0680   -1.6860   11.8580 N.am     10 SEL2        0.0000 
     37 N          30.5730   -0.8800   12.0740 N.am      6 SEP2        0.0000 
     38 N          28.4065   -0.2910   12.6080 N.am      2 SEC2        0.0000 
     39 N          28.7450    1.1040   13.3580 N.am      6 SEP2        0.0000 
     40 CA         30.3285    2.1675   10.6875 C.3       4 GLC5        0.0000 
     41 CA         28.8170    0.8710    9.8180 C.3      12 GLL5        0.0000 
     42 CA         31.8400    3.4640   11.5570 C.3       8 GLP5        0.0000 
     43 CA         24.8550    1.9860    8.4125 C.3       4 GLC5        0.0000 
     44 CA         26.6170    1.7880    9.0240 C.3      12 GLL5        0.0000 
     45 CA         28.9425    0.2485    7.4370 C.3       4 GLC5        0.0000 
     46 CA         29.6410    1.4980    8.7160 C.3      12 GLL5        0.0000 
     47 CA         28.2440   -1.0010    6.1580 C.3       8 GLP5        0.0000 
     48 CA         29.7545    1.9500    7.1005 C.3       4 GLC5        0.0000 
     49 CA         29.8680    2.4020    5.4850 C.3       8 GLP5        0.0000 
     50 CA         30.5055    3.2195    9.1475 C.3       4 GLC5        0.0000 
     51 CA         31.3700    4.9410    9.5790 C.3       8 GLP5        0.0000 
     52 N          29.4635   -2.3180    8.0690 N.am      2 SEC2        0.0000 
     53 N          29.8140   -2.7780    9.3500 N.am     10 SEL2        0.0000 
     54 N          29.1130   -1.8580    6.7880 N.am      6 SEP2        0.0000 
     55 CA         24.2635   -4.0555    9.4875 C.3       4 GLC5        0.0000 
     56 CA         26.1910   -4.1320    8.5490 C.3      12 GLL5        0.0000 
     57 CA         22.3360   -3.9790   10.4260 C.3       8 GLP5        0.0000 
     58 CA         31.2930   -3.7040   11.9025 C.3       4 GLC5        0.0000 
     59 CA         31.6500   -4.6520   10.3020 C.3      12 GLL5        0.0000 
     60 CA         30.9360   -2.7560   13.5030 C.3       8 GLP5        0.0000 
     61 N          33.5560   -5.9265    8.0810 N.am      2 SEC2        0.0000 
     62 N          33.0810   -4.5050    8.3970 N.am     10 SEL2        0.0000 
     63 N          34.0310   -7.3480    7.7650 N.am      6 SEP2        0.0000 
     64 N          33.6930   -4.2540    7.2250 N.am      2 SEC2        0.0000 
     65 N          34.3050   -4.0030    6.0530 N.am      6 SEP2        0.0000 
     66 N          34.1080   -4.5130    9.1960 N.am      2 SEC2        0.0000 
     67 N          35.1350   -4.5210    9.9950 N.am      6 SEP2        0.0000 
     68 CA         30.3900   -4.2415   12.5060 C.3       4 GLC5        0.0000 
     69 CA         29.8440   -5.7270   11.5090 C.3      12 GLL5        0.0000 
     70 CA         23.9265    0.6016   15.6929 C.3       4 GLC5        0.0000 
     71 CA         25.2700    2.6340   16.5480 C.3      12 GLL5        0.0000 
     72 CA         23.0260   -1.1460   15.6470 C.3       8 GLP5        0.0000 
     73 CA         25.1805    2.1966   17.9194 C.3       4 GLC5        0.0000 
     74 CA         24.8890    1.1930   19.6560 C.3       8 GLP5        0.0000 
     75 CA         31.0390    0.7517    9.5145 C.3       4 GLC5        0.0000 
     76 CA         32.8490    0.3190    9.7620 C.3       8 GLP5        0.0000 
     77 CA         27.8018    0.1200    7.7371 C.3       4 GLC5        0.0000 
     78 CA         27.3870    0.5170    9.3990 C.3      12 GLL5        0.0000 
     79 CA         26.5330   -4.8967   11.2845 C.3       4 GLC5        0.0000 
     80 CA         27.8960   -3.8910   10.2480 C.3      12 GLL5        0.0000 
     81 CA         25.4630   -5.4220   12.8480 C.3       8 GLP5        0.0000 
     82 CA         25.3248   -5.8660    8.4098 C.3       4 GLC5        0.0000 
     83 CA         27.3100   -4.8520    9.1940 C.3      12 GLL5        0.0000 
     84 CA         23.8990   -7.2400    7.9480 C.3       8 GLP5        0.0000 
     85 CA         27.2828   -2.2037    7.3980 C.3       4 GLC5        0.0000 
     86 CA         24.8522   -3.3003    7.5035 C.3       4 GLC5        0.0000 
     87 CA         26.4520   -2.6810    8.7270 C.3      12 GLL5        0.0000 
     88 CA         23.3830   -3.1940    6.3690 C.3       8 GLP5        0.0000 
     89 CA         33.8075   -4.3533   10.6668 C.3       4 GLC5        0.0000 
     90 CA         35.7080   -3.4490   10.6390 C.3       8 GLP5        0.0000 
     91 CA         33.4042   -6.5265   12.0120 C.3       4 GLC5        0.0000 
     92 CA         32.1640   -5.8630   11.0870 C.3      12 GLL5        0.0000 
     93 CA         35.2400   -6.7800   12.7850 C.3       8 GLP5        0.0000 
     94 CA         31.6947   -4.9225   12.7270 C.3       4 GLC5        0.0000 
     95 CA         31.8210   -3.5720   14.2150 C.3       8 GLP5        0.0000 
@<TRIPOS>BOND
@<TRIPOS>SUBSTRUCTURE
     1 ALC1       12 GROUP        1 X    ALC  0     ROOT ALC X 1
     2 SEC2       18 GROUP        1 X    SEC  0     **** SEC X 2
     3 ZIC7       32 GROUP        1 X    ZIC  0     **** ZIC X 5
     4 GLC5        1 GROUP        1 X    GLC  0     **** GLC X 6
     5 ALP1       14 GROUP        1 Y    ALP  0     ROOT ALP Y 8
     6 SEP2       20 GROUP        1 Y    SEP  0     **** SEP Y 9
     7 ZIP7       34 GROUP        1 Y    ZIP  0     **** ZIP Y 12
     8 GLP5        3 GROUP        1 Y    GLP  0     **** GLP Y 13
     9 ALL1       13 GROUP        1 Z    ALL  0     ROOT ALL Z 15
    10 SEL2       19 GROUP        1 Z    SEL  0     **** SEL Z 16
    11 ZIL7       33 GROUP        1 Z    ZIL  0     **** ZIL Z 19
    12 GLL5        2 GROUP        1 Z    GLL  0     **** GLL Z 20
@<TRIPOS>SET

