#    Name: 4aa2_ARG_PRO_LYS_ILE_PRO_PRO_1_ligand
#    Modification time : Tue Mar 25 05:21:53 2014

@<TRIPOS>MOLECULE
4aa2_ARG_PRO_LYS_ILE_PRO_PRO_1_ligand
  111   113     6     0     0
SMALL
NO_CHARGES


@<TRIPOS>ATOM
      1 N          25.5220    9.3440   14.3110 N.4       1 ARG6        0.0000
      2 CA         25.5600    8.7300   12.9450 C.3       1 ARG6        0.0000
      3 C          24.9820    7.3020   12.9490 C.2       1 ARG6        0.0000
      4 O          24.9070    6.6750   14.0160 O.2       1 ARG6        0.0000
      5 CB         26.9970    8.7220   12.4140 C.3       1 ARG6        0.0000
      6 CG         27.1070    9.0270   10.9190 C.3       1 ARG6        0.0000
      7 CD         28.1380    8.1350   10.2310 C.3       1 ARG6        0.0000
      8 NE         29.4500    8.2470   10.8640 N.pl3     1 ARG6        0.0000
      9 CZ         30.3670    9.1580   10.5470 C.cat     1 ARG6        0.0000
     10 NH1        30.1300   10.0490    9.5880 N.pl3     1 ARG6        0.0000
     11 NH2        31.5250    9.1790   11.1940 N.pl3     1 ARG6        0.0000
     12 HA         24.9590    9.3325   12.2664 H         1 ARG6        0.0000
     13 HB2        27.4441    7.7350   12.6115 H         1 ARG6        0.0000
     14 HB3        27.5879    9.4634   12.9747 H         1 ARG6        0.0000
     15 HG2        27.3926   10.0739   10.7876 H         1 ARG6        0.0000
     16 HG3        26.1311    8.8759   10.4504 H         1 ARG6        0.0000
     17 HD2        28.1899    8.4260    9.1721 H         1 ARG6        0.0000
     18 HD3        27.7737    7.0985   10.2696 H         1 ARG6        0.0000
     19 HE         29.6349    7.5289   11.6225 H         1 ARG6        0.0000
     20 HH11       29.2608    9.9528    9.1030 H         1 ARG6        0.0000
     21 HH12       30.8424   10.7346    9.4386 H         1 ARG6        0.0000
     22 HH21       32.1713    9.8898   10.9164 H         1 ARG6        0.0000
     23 HH22       31.6468    8.4821   11.9008 H         1 ARG6        0.0000
     24 HNCA       26.0519    8.8126   14.9719 H         1 ARG6        0.0000
     25 H          25.8971   10.2710   14.3121 H         1 ARG6        0.0000
     26 H          24.5887    9.4051   14.6649 H         1 ARG6        0.0000
     27 N          24.5620    6.7850   11.7650 N.am      2 PRO7        0.0000
     28 CA         24.0340    5.4210   11.6680 C.3       2 PRO7        0.0000
     29 C          25.0070    4.3470   12.1460 C.2       2 PRO7        0.0000
     30 O          26.2310    4.5170   12.0580 O.2       2 PRO7        0.0000
     31 CB         23.7700    5.2440   10.1600 C.3       2 PRO7        0.0000
     32 CG         24.5390    6.3380    9.4930 C.3       2 PRO7        0.0000
     33 CD         24.4410    7.4720   10.4680 C.3       2 PRO7        0.0000
     34 HA         23.1015    5.3358   12.1677 H         2 PRO7        0.0000
     35 HB2        22.7224    5.3516    9.9777 H         2 PRO7        0.0000
     36 HB3        24.1329    4.2859    9.8559 H         2 PRO7        0.0000
     37 HG2        24.0751    6.6064    8.5721 H         2 PRO7        0.0000
     38 HG3        25.5572    6.0500    9.3682 H         2 PRO7        0.0000
     39 HD2        25.2512    8.1465   10.3191 H         2 PRO7        0.0000
     40 HD3        23.4916    7.9450   10.3765 H         2 PRO7        0.0000
     41 N          24.4430    3.2490   12.6430 N.am      3 LYS8        0.0000
     42 CA         25.2120    2.1170   13.1330 C.3       3 LYS8        0.0000
     43 C          25.2470    1.0480   12.0490 C.2       3 LYS8        0.0000
     44 O          24.1980    0.6370   11.5520 O.2       3 LYS8        0.0000
     45 CB         24.5620    1.5540   14.3920 C.3       3 LYS8        0.0000
     46 CG         24.2060    2.5750   15.4670 C.3       3 LYS8        0.0000
     47 CD         25.2700    2.6340   16.5480 C.3       3 LYS8        0.0000
     48 CE         26.2060    3.7960   16.3580 C.3       3 LYS8        0.0000
     49 NZ         25.6340    5.0430   16.9210 N.4       3 LYS8        0.0000
     50 HNCA       23.3998    3.1461   12.7060 H         3 LYS8        0.0000
     51 HA         26.2173    2.4071   13.3606 H         3 LYS8        0.0000
     52 HB2        25.2405    0.7931   14.8338 H         3 LYS8        0.0000
     53 HB3        23.6404    1.0051   14.1025 H         3 LYS8        0.0000
     54 HG2        23.2477    2.3029   15.9157 H         3 LYS8        0.0000
     55 HG3        24.1030    3.5598   15.0052 H         3 LYS8        0.0000
     56 HD2        25.8417    1.6967   16.5379 H         3 LYS8        0.0000
     57 HD3        24.7801    2.7136   17.5273 H         3 LYS8        0.0000
     58 HE2        26.4034    3.9259   15.2858 H         3 LYS8        0.0000
     59 HE3        27.1627    3.5695   16.8467 H         3 LYS8        0.0000
     60 HZ1        26.2509    5.8211   16.8026 H         3 LYS8        0.0000
     61 HZ2        24.7686    5.2857   16.4825 H         3 LYS8        0.0000
     62 HZ3        25.4527    4.9591   17.9009 H         3 LYS8        0.0000
     63 N          26.4470    0.5920   11.7000 N.am      4 ILE9        0.0000
     64 CA         26.6460   -0.2640   10.5250 C.3       4 ILE9        0.0000
     65 C          27.3650   -1.5950   10.8480 C.2       4 ILE9        0.0000
     66 O          28.0680   -1.6860   11.8580 O.2       4 ILE9        0.0000
     67 CB         27.3870    0.5170    9.3990 C.3       4 ILE9        0.0000
     68 CG1        28.8170    0.8710    9.8180 C.3       4 ILE9        0.0000
     69 CG2        26.6170    1.7880    9.0240 C.3       4 ILE9        0.0000
     70 CD1        29.6410    1.4980    8.7160 C.3       4 ILE9        0.0000
     71 HNCA       27.3096    0.8172   12.2407 H         4 ILE9        0.0000
     72 HA         25.6544   -0.5310   10.1021 H         4 ILE9        0.0000
     73 HB         27.4332   -0.1241    8.5246 H         4 ILE9        0.0000
     74 HG12       29.3172   -0.0468   10.1715 H         4 ILE9        0.0000
     75 HG13       28.7709    1.5611   10.6778 H         4 ILE9        0.0000
     76 HG21       26.5185    2.4063    9.8038 H         4 ILE9        0.0000
     77 HG22       27.0774    2.3010    8.2995 H         4 ILE9        0.0000
     78 HG23       25.6953    1.5807    8.6961 H         4 ILE9        0.0000
     79 HD11       30.5661    1.7196    9.0242 H         4 ILE9        0.0000
     80 HD12       29.7326    0.8888    7.9283 H         4 ILE9        0.0000
     81 HD13       29.2314    2.3475    8.3835 H         4 ILE9        0.0000
     82 N          27.1940   -2.6320    9.9970 N.am      5 PRO10       0.0000
     83 CA         27.8960   -3.8910   10.2480 C.3       5 PRO10       0.0000
     84 C          29.3980   -3.7390   10.0110 C.2       5 PRO10       0.0000
     85 O          29.8140   -2.7780    9.3500 O.2       5 PRO10       0.0000
     86 CB         27.3100   -4.8520    9.1940 C.3       5 PRO10       0.0000
     87 CG         26.1910   -4.1320    8.5490 C.3       5 PRO10       0.0000
     88 CD         26.4520   -2.6810    8.7270 C.3       5 PRO10       0.0000
     89 HA         27.6955   -4.2691   11.1992 H         5 PRO10       0.0000
     90 HB2        26.9628   -5.7372    9.6948 H         5 PRO10       0.0000
     91 HB3        28.0796   -5.0880    8.4819 H         5 PRO10       0.0000
     92 HG2        25.2540   -4.3986    9.0217 H         5 PRO10       0.0000
     93 HG3        26.1514   -4.3726    7.4940 H         5 PRO10       0.0000
     94 HD2        27.0549   -2.3153    7.9242 H         5 PRO10       0.0000
     95 HD3        25.5288   -2.1494    8.8094 H         5 PRO10       0.0000
     96 N          30.2110   -4.6700   10.5510 N.am      6 PRO11       0.0000
     97 CA         31.6500   -4.6520   10.3020 C.3       6 PRO11       0.0000
     98 C          31.9760   -4.8190    8.8200 C.2       6 PRO11       0.0000
     99 O          33.0810   -4.5050    8.3970 O.2       6 PRO11       0.0000
    100 CB         32.1640   -5.8630   11.0870 C.3       6 PRO11       0.0000
    101 CG         30.9730   -6.6830   11.3910 C.3       6 PRO11       0.0000
    102 CD         29.8440   -5.7270   11.5090 C.3       6 PRO11       0.0000
    103 OXT        31.1490   -5.2650    8.0230 O.3       6 PRO11       0.0000
    104 HA         32.0985   -3.7842   10.6934 H         6 PRO11       0.0000
    105 HB2        32.6333   -5.5168   11.9887 H         6 PRO11       0.0000
    106 HB3        32.8576   -6.4049   10.4718 H         6 PRO11       0.0000
    107 HG2        31.1096   -7.2092   12.3227 H         6 PRO11       0.0000
    108 HG3        30.7843   -7.3794   10.5891 H         6 PRO11       0.0000
    109 HD2        28.9312   -6.1980   11.2175 H         6 PRO11       0.0000
    110 HD3        29.7961   -5.3350   12.5010 H         6 PRO11       0.0000
    111 H          31.6427   -5.3483    7.1574 H         6 PRO11       0.0000
@<TRIPOS>BOND
     1    2    1 1
     2   24    1 1
     3   25    1 1
     4   26    1 1
     5    3    2 1
     6    5    2 1
     7   12    2 1
     8    4    3 2
     9    6    5 1
    10   13    5 1
    11   14    5 1
    12    7    6 1
    13   15    6 1
    14   16    6 1
    15    8    7 1
    16   17    7 1
    17   18    7 1
    18    9    8 ar
    19   19    8 1
    20   10    9 ar
    21   11    9 ar
    22   20   10 1
    23   21   10 1
    24   22   11 1
    25   23   11 1
    26   28   27 1
    27   33   27 1
    28   29   28 1
    29   31   28 1
    30   34   28 1
    31   30   29 2
    32   32   31 1
    33   35   31 1
    34   36   31 1
    35   33   32 1
    36   37   32 1
    37   38   32 1
    38   39   33 1
    39   40   33 1
    40   42   41 1
    41   50   41 1
    42   43   42 1
    43   45   42 1
    44   51   42 1
    45   44   43 2
    46   46   45 1
    47   52   45 1
    48   53   45 1
    49   47   46 1
    50   54   46 1
    51   55   46 1
    52   48   47 1
    53   56   47 1
    54   57   47 1
    55   49   48 1
    56   58   48 1
    57   59   48 1
    58   60   49 1
    59   61   49 1
    60   62   49 1
    61   64   63 1
    62   71   63 1
    63   65   64 1
    64   67   64 1
    65   72   64 1
    66   66   65 2
    67   68   67 1
    68   69   67 1
    69   73   67 1
    70   70   68 1
    71   74   68 1
    72   75   68 1
    73   76   69 1
    74   77   69 1
    75   78   69 1
    76   79   70 1
    77   80   70 1
    78   81   70 1
    79   83   82 1
    80   88   82 1
    81   84   83 1
    82   86   83 1
    83   89   83 1
    84   85   84 2
    85   87   86 1
    86   90   86 1
    87   91   86 1
    88   88   87 1
    89   92   87 1
    90   93   87 1
    91   94   88 1
    92   95   88 1
    93   97   96 1
    94  102   96 1
    95   98   97 1
    96  100   97 1
    97  104   97 1
    98   99   98 2
    99  103   98 1
   100  101  100 1
   101  105  100 1
   102  106  100 1
   103  102  101 1
   104  107  101 1
   105  108  101 1
   106  109  102 1
   107  110  102 1
   108  111  103 1
   109   27    3 am
   110   41   29 am
   111   63   43 am
   112   82   65 am
   113   96   84 am
@<TRIPOS>SUBSTRUCTURE
     1 ARG6        1 RESIDUE
     2 PRO7       27 RESIDUE
     3 LYS8       41 RESIDUE
     4 ILE9       63 RESIDUE
     5 PRO10      82 RESIDUE
     6 PRO11      96 RESIDUE
@<TRIPOS>SET

