#    Name: 1ohs_5SD_2_INTS_M
#    Modification time : Mon Mar 24 20:11:26 2014

@<TRIPOS>MOLECULE
1ohs_5SD_2_INTS_M
   54     0     6     0     0
SMALL
NO_CHARGES


@<TRIPOS>ATOM
      1 CA          3.1815   14.0340    6.2330 C.3       2 GLC5        0.0000 
      2 CA          1.5540   14.9840    6.2710 C.3       6 GLL5        0.0000 
      3 CA          4.8090   13.0840    6.1950 C.3       4 GLP5        0.0000 
      4 CA          3.5060   14.9645    5.4210 C.3       2 GLC5        0.0000 
      5 CA          2.0890   16.4530    5.9760 C.3       6 GLL5        0.0000 
      6 CA          4.9230   13.4760    4.8660 C.3       4 GLP5        0.0000 
      7 CA         -3.1410   16.3015    8.6200 C.3       2 GLC5        0.0000 
      8 CA         -1.0320   15.8730    9.0330 C.3       6 GLL5        0.0000 
      9 CA         -5.2500   16.7300    8.2070 C.3       4 GLP5        0.0000 
     10 CA         -3.4130   14.7600    9.6950 C.3       2 GLC5        0.0000 
     11 CA         -1.5610   14.4380    9.2950 C.3       6 GLL5        0.0000 
     12 CA         -5.2650   15.0820   10.0950 C.3       4 GLP5        0.0000 
     13 CA         -2.8385   14.0940    7.5920 C.3       2 GLC5        0.0000 
     14 CA         -4.1160   13.7500    5.8890 C.3       4 GLP5        0.0000 
     15 CA         -0.1760    9.1275    7.2795 C.3       2 GLC5        0.0000 
     16 CA          0.7910   10.8570    8.1440 C.3       6 GLL5        0.0000 
     17 CA         -1.1430    7.3980    6.4150 C.3       4 GLP5        0.0000 
     18 CA          0.8270   10.1185    6.1860 C.3       2 GLC5        0.0000 
     19 CA          0.8630    9.3800    4.2280 C.3       4 GLP5        0.0000 
     20 CA          2.3680    9.6080    8.4845 C.3       2 GLC5        0.0000 
     21 CA          3.9450    8.3590    8.8250 C.3       4 GLP5        0.0000 
     22 CA         -3.5850   11.4890   11.6730 C.3       2 GLC5        0.0000 
     23 CA         -1.7680   11.6420   10.8070 C.3       6 GLL5        0.0000 
     24 CA         -5.4020   11.3360   12.5390 C.3       4 GLP5        0.0000 
     25 CA         -2.2960    8.6445   11.6735 C.3       2 GLC5        0.0000 
     26 CA         -1.9500   10.0460   10.6720 C.3       6 GLL5        0.0000 
     27 CA         -2.6420    7.2430   12.6750 C.3       4 GLP5        0.0000 
     28 CA         -3.6485    9.7515   10.7795 C.3       2 GLC5        0.0000 
     29 CA         -5.3470    9.4570   10.8870 C.3       4 GLP5        0.0000 
     30 N          -0.2320    7.2825    9.3985 N.am      1 SEC2        0.0000 
     31 N          -0.5440    8.4840    9.5200 N.am      5 SEL2        0.0000 
     32 N           0.0800    6.0810    9.2770 N.am      3 SEP2        0.0000 
     33 CA          3.0195   10.9050   11.1245 C.3       2 GLC5        0.0000 
     34 CA          1.1270   10.9030   10.6590 C.3       6 GLL5        0.0000 
     35 CA          4.9120   10.9070   11.5900 C.3       4 GLP5        0.0000 
     36 CA          1.3735   11.7415   12.2645 C.3       2 GLC5        0.0000 
     37 CA          1.6200   12.5800   13.8700 C.3       4 GLP5        0.0000 
     38 CA          1.3370    8.9700   11.3630 C.3       2 GLC5        0.0000 
     39 CA          1.5470    7.0370   12.0670 C.3       4 GLP5        0.0000 
     40 CA          2.5360    9.6310    9.7420 C.3       2 GLC5        0.0000 
     41 CA          3.4050   14.1345    7.4705 C.3       2 GLC5        0.0000 
     42 CA          2.0010   15.1850    8.7460 C.3       6 GLL5        0.0000 
     43 CA          0.8958   15.4708    4.3108 C.3       2 GLC5        0.0000 
     44 CA         -0.0300   15.2230    2.4980 C.3       4 GLP5        0.0000 
     45 CA         -1.1918   17.1230    6.0217 C.3       2 GLC5        0.0000 
     46 CA         -0.3110   15.9160    7.6920 C.3       6 GLL5        0.0000 
     47 CA         -2.3410   17.5960    4.4890 C.3       4 GLP5        0.0000 
     48 CA         -1.5722   15.5862   11.0880 C.3       2 GLC5        0.0000 
     49 CA         -1.8480   16.0170   13.0120 C.3       4 GLP5        0.0000 
     50 CA          2.9020   11.6527    7.2573 C.3       2 GLC5        0.0000 
     51 CA          1.3970   12.3020    7.8630 C.3       6 GLL5        0.0000 
     52 CA          4.7100   11.7260    6.5110 C.3       4 GLP5        0.0000 
     53 CA         -1.7770   10.7780   12.6182 C.3       2 GLC5        0.0000 
     54 CA         -1.6950   10.7120   14.4970 C.3       4 GLP5        0.0000 
@<TRIPOS>BOND
@<TRIPOS>SUBSTRUCTURE
     1 SEC2       30 GROUP        1 X    SEC  0     ROOT SEC X 2
     2 GLC5        1 GROUP        1 X    GLC  0     **** GLC X 6
     3 SEP2       32 GROUP        1 Y    SEP  0     ROOT SEP Y 9
     4 GLP5        3 GROUP        1 Y    GLP  0     **** GLP Y 13
     5 SEL2       31 GROUP        1 Z    SEL  0     ROOT SEL Z 16
     6 GLL5        2 GROUP        1 Z    GLL  0     **** GLL Z 20
@<TRIPOS>SET

