#    Name: 1ohs_5SD_2_ligand
#    Modification time : Mon Mar 24 20:11:26 2014

@<TRIPOS>MOLECULE
1ohs_5SD_2_ligand
   49    52     1     0     0
SMALL
NO_CHARGES


@<TRIPOS>ATOM
      1 C1          1.5540   14.9840    6.2710 C.3       1 5SD1326     0.0000 
      2 C2          2.0890   16.4530    5.9760 C.3       1 5SD1326     0.0000 
      3 C3          1.1830   17.5800    6.3930 C.2       1 5SD1326     0.0000 
      4 O3          1.2650   18.6850    5.8530 O.2       1 5SD1326     0.0000 
      5 C4          0.2260   17.3840    7.4170 C.3       1 5SD1326     0.0000 
      6 C5         -0.3110   15.9160    7.6920 C.3       1 5SD1326     0.0000 
      7 C6         -1.0320   15.8730    9.0330 C.3       1 5SD1326     0.0000 
      8 C7         -1.5610   14.4380    9.2950 C.3       1 5SD1326     0.0000 
      9 C8         -0.4440   13.3490    9.2870 C.3       1 5SD1326     0.0000 
     10 C9          0.3040   13.4060    7.9010 C.3       1 5SD1326     0.0000 
     11 C10         0.8940   14.8810    7.6530 C.3       1 5SD1326     0.0000 
     12 C11         1.3970   12.3020    7.8630 C.3       1 5SD1326     0.0000 
     13 C12         0.7910   10.8570    8.1440 C.3       1 5SD1326     0.0000 
     14 C13         0.1070   10.8470    9.5340 C.3       1 5SD1326     0.0000 
     15 C14        -1.0110   11.9220    9.5270 C.3       1 5SD1326     0.0000 
     16 C15        -1.7680   11.6420   10.8070 C.3       1 5SD1326     0.0000 
     17 C16        -1.9500   10.0460   10.6720 C.3       1 5SD1326     0.0000 
     18 C17        -0.7560    9.6050    9.8350 C.2       1 5SD1326     0.0000 
     19 O17        -0.5440    8.4840    9.5200 O.2       1 5SD1326     0.0000 
     20 C18         1.1270   10.9030   10.6590 C.3       1 5SD1326     0.0000 
     21 C19         2.0010   15.1850    8.7460 C.3       1 5SD1326     0.0000 
     22 H           2.3998   14.3052    6.2120 H         1 5SD1326     0.0000 
     23 H           0.8355   14.7313    5.4967 H         1 5SD1326     0.0000 
     24 H           2.2929   16.5082    4.8888 H         1 5SD1326     0.0000 
     25 H           3.0707   16.5446    6.4805 H         1 5SD1326     0.0000 
     26 H          -0.7020   18.0108    7.2487 H         1 5SD1326     0.0000 
     27 H           0.6032   17.7526    8.4191 H         1 5SD1326     0.0000 
     28 H          -0.9902   15.6644    6.9014 H         1 5SD1326     0.0000 
     29 H          -1.8710   16.5556    9.0214 H         1 5SD1326     0.0000 
     30 H          -0.3481   16.1413    9.8269 H         1 5SD1326     0.0000 
     31 H          -2.2996   14.1861    8.5271 H         1 5SD1326     0.0000 
     32 H          -2.0624   14.4166   10.2680 H         1 5SD1326     0.0000 
     33 H           0.2703   13.5815   10.0518 H         1 5SD1326     0.0000 
     34 H          -0.4228   13.2099    7.1301 H         1 5SD1326     0.0000 
     35 H           2.1447   12.5056    8.6204 H         1 5SD1326     0.0000 
     36 H           1.8629   12.2863    6.8848 H         1 5SD1326     0.0000 
     37 H           1.5962   10.1472    8.1281 H         1 5SD1326     0.0000 
     38 H           0.0683   10.6425    7.3797 H         1 5SD1326     0.0000 
     39 H          -1.6639   11.6476    8.6826 H         1 5SD1326     0.0000 
     40 H          -2.7149   12.0674   10.7919 H         1 5SD1326     0.0000 
     41 H          -1.1814   11.8204   11.6448 H         1 5SD1326     0.0000 
     42 H          -2.8561    9.8709   10.1643 H         1 5SD1326     0.0000 
     43 H          -1.9064    9.6376   11.6420 H         1 5SD1326     0.0000 
     44 H           1.7535   10.1240   10.6314 H         1 5SD1326     0.0000 
     45 H           1.6863   11.7307   10.6124 H         1 5SD1326     0.0000 
     46 H           0.6892   10.8953   11.5580 H         1 5SD1326     0.0000 
     47 H           2.7596   14.5353    8.6970 H         1 5SD1326     0.0000 
     48 H           2.3906   16.0994    8.6357 H         1 5SD1326     0.0000 
     49 H           1.6309   15.1340    9.6736 H         1 5SD1326     0.0000 
@<TRIPOS>BOND
     1    2    1 1    
     2   11    1 1    
     3   22    1 1    
     4   23    1 1    
     5    3    2 1    
     6   24    2 1    
     7   25    2 1    
     8    4    3 2    
     9    5    3 1    
    10    6    5 1    
    11   26    5 1    
    12   27    5 1    
    13    7    6 1    
    14   11    6 1    
    15   28    6 1    
    16    8    7 1    
    17   29    7 1    
    18   30    7 1    
    19    9    8 1    
    20   31    8 1    
    21   32    8 1    
    22   10    9 1    
    23   15    9 1    
    24   33    9 1    
    25   11   10 1    
    26   12   10 1    
    27   34   10 1    
    28   21   11 1    
    29   13   12 1    
    30   35   12 1    
    31   36   12 1    
    32   14   13 1    
    33   37   13 1    
    34   38   13 1    
    35   15   14 1    
    36   18   14 1    
    37   20   14 1    
    38   16   15 1    
    39   39   15 1    
    40   17   16 1    
    41   40   16 1    
    42   41   16 1    
    43   18   17 1    
    44   42   17 1    
    45   43   17 1    
    46   19   18 2    
    47   44   20 1    
    48   45   20 1    
    49   46   20 1    
    50   47   21 1    
    51   48   21 1    
    52   49   21 1    
@<TRIPOS>SUBSTRUCTURE
     1 5SD1326     1 GROUP   
@<TRIPOS>SET

