#    Name: 3hf3_FMN_1_INTS_M
#    Modification time : Tue Mar 25 14:12:47 2014

@<TRIPOS>MOLECULE
3hf3_FMN_1_INTS_M
   73     0    12     0     0
SMALL
NO_CHARGES


@<TRIPOS>ATOM
      1 N          40.7765  -30.8350   19.6885 N.am      2 SEC2        0.0000 
      2 N          41.6140  -31.9950   19.1000 N.am     10 SEL2        0.0000 
      3 N          39.9390  -29.6750   20.2770 N.am      6 SEP2        0.0000 
      4 N          40.7680  -33.1770   18.9420 N.am      2 SEC2        0.0000 
      5 N          39.9220  -34.3590   18.7840 N.am      6 SEP2        0.0000 
      6 O          41.5405  -29.3105   18.1840 O.2       1 ALC1        0.0000 
      7 O          42.1340  -30.3960   17.5090 O.2       9 ALL1        0.0000 
      8 O          40.9470  -28.2250   18.8590 O.2       5 ALP1        0.0000 
      9 N          42.4350  -28.9580   14.0045 N.am      2 SEC2        0.0000 
     10 N          42.4410  -29.0280   15.6690 N.am     10 SEL2        0.0000 
     11 N          42.4290  -28.8880   12.3400 N.am      6 SEP2        0.0000 
     12 N          41.7740  -27.6490   15.9195 N.am      2 SEC2        0.0000 
     13 N          41.1070  -26.2700   16.1700 N.am      6 SEP2        0.0000 
     14 N          42.8505  -29.9560   13.1955 N.am      2 SEC2        0.0000 
     15 N          43.2720  -31.0240   14.0510 N.am     10 SEL2        0.0000 
     16 CA         42.0115  -32.1785   11.1195 C.3       4 GLC5        0.0000 
     17 CA         43.8390  -32.9420   10.9580 C.3      12 GLL5        0.0000 
     18 CA         40.1840  -31.4150   11.2810 C.3       8 GLP5        0.0000 
     19 CA         42.5590  -33.5855    8.2055 C.3       4 GLC5        0.0000 
     20 CA         44.1540  -32.7450    9.5050 C.3      12 GLL5        0.0000 
     21 CA         40.9640  -34.4260    6.9060 C.3       8 GLP5        0.0000 
     22 CA         42.6720  -36.8105    9.7825 C.3       4 GLC5        0.0000 
     23 CA         43.7580  -35.4390   10.5560 C.3      12 GLL5        0.0000 
     24 CA         41.5860  -38.1820    9.0090 C.3       8 GLP5        0.0000 
     25 CA         44.8570  -35.8810    8.9305 C.3       4 GLC5        0.0000 
     26 CA         45.9560  -36.3230    7.3050 C.3       8 GLP5        0.0000 
     27 CA         40.3520  -34.0150   13.3635 C.3       4 GLC5        0.0000 
     28 CA         40.9800  -35.2840   14.8890 C.3      12 GLL5        0.0000 
     29 CA         39.7240  -32.7460   11.8380 C.3       8 GLP5        0.0000 
     30 N          38.7660  -34.5290   15.8995 N.am      2 SEC2        0.0000 
     31 N          40.1290  -34.3410   15.4930 N.am     10 SEL2        0.0000 
     32 N          37.4030  -34.7170   16.3060 N.am      6 SEP2        0.0000 
     33 N          40.0255  -34.3500   17.1385 N.am      2 SEC2        0.0000 
     34 O          40.0540  -33.0510   15.1125 O.2       1 ALC1        0.0000 
     35 O          40.1290  -34.3410   15.4930 O.2       9 ALL1        0.0000 
     36 O          39.9790  -31.7610   14.7320 O.2       5 ALP1        0.0000 
     37 CA         38.9830  -37.5400   16.2850 C.3       4 GLC5        0.0000 
     38 CA         40.5020  -36.6460   15.3790 C.3      12 GLL5        0.0000 
     39 CA         37.4640  -38.4340   17.1910 C.3       8 GLP5        0.0000 
     40 N          40.1865  -35.4820   17.7890 N.am      2 SEC2        0.0000 
     41 N          40.4510  -36.6050   16.7940 N.am     10 SEL2        0.0000 
     42 CA         39.1560  -38.7825   16.1720 C.3       4 GLC5        0.0000 
     43 CA         40.8480  -39.1310   15.1530 C.3      12 GLL5        0.0000 
     44 CA         40.0325  -40.7220   15.8335 C.3       4 GLC5        0.0000 
     45 CA         39.2170  -42.3130   16.5140 C.3       8 GLP5        0.0000 
     46 NZ         41.2600  -41.3275   12.5175 N.4       3 LYC4        0.0000 
     47 NZ         40.0130  -41.1700   12.8180 N.4      11 LYL4        0.0000 
     48 NZ         42.9810  -40.8210   11.1770 N.4       7 LYP4        0.0000 
     49 N          39.6230  -42.2570   13.5805 N.am      2 SEC2        0.0000 
     50 N          40.0130  -41.1700   12.8180 N.am     10 SEL2        0.0000 
     51 N          39.2330  -43.3440   14.3430 N.am      6 SEP2        0.0000 
     52 N          41.1380  -40.5065   11.7265 N.am      2 SEC2        0.0000 
     53 N          42.2630  -39.8430   10.6350 N.am      6 SEP2        0.0000 
     54 N          41.2600  -41.3275   12.5175 N.am      2 SEC2        0.0000 
     55 N          42.5070  -41.4850   12.2170 N.am      6 SEP2        0.0000 
     56 NZ         41.1535  -39.3350   11.3275 N.4       3 LYC4        0.0000 
     57 NZ         40.0440  -38.8270   12.0200 N.4      11 LYL4        0.0000 
     58 N          39.3310  -38.2920   10.9805 N.am      2 SEC2        0.0000 
     59 N          40.0440  -38.8270   12.0200 N.am     10 SEL2        0.0000 
     60 N          38.6180  -37.7570    9.9410 N.am      6 SEP2        0.0000 
     61 N          41.1535  -39.3350   11.3275 N.am      2 SEC2        0.0000 
     62 N          37.1745  -38.6250   12.5035 N.am      2 SEC2        0.0000 
     63 N          37.9160  -39.8920   12.8490 N.am     10 SEL2        0.0000 
     64 N          36.4330  -37.3580   12.1580 N.am      6 SEP2        0.0000 
     65 CA         42.0690  -31.2075   12.4425 C.3       4 GLC5        0.0000 
     66 CA         43.3340  -32.0700   13.1500 C.3      12 GLL5        0.0000 
     67 CA         40.6040  -30.4560   12.3960 C.3       8 GLP5        0.0000 
     68 CA         43.3810  -29.8710   12.1395 C.3       4 GLC5        0.0000 
     69 CA         43.2280  -27.7830   11.7900 C.3       8 GLP5        0.0000 
     70 CA         41.5261  -33.2984   12.3556 C.3       4 GLC5        0.0000 
     71 CA         43.6470  -34.2360   11.4520 C.3      12 GLL5        0.0000 
     72 CA         38.6765  -35.3130   15.1230 C.3       4 GLC5        0.0000 
     73 CA         36.6120  -34.6610   15.1120 C.3       8 GLP5        0.0000 
@<TRIPOS>BOND
@<TRIPOS>SUBSTRUCTURE
     1 ALC1        6 GROUP        1 X    ALC  0     ROOT ALC X 1
     2 SEC2        1 GROUP        1 X    SEC  0     **** SEC X 2
     3 LYC4       46 GROUP        1 X    LYC  0     **** LYC X 4
     4 GLC5       16 GROUP        1 X    GLC  0     **** GLC X 6
     5 ALP1        8 GROUP        1 Y    ALP  0     ROOT ALP Y 8
     6 SEP2        3 GROUP        1 Y    SEP  0     **** SEP Y 9
     7 LYP4       48 GROUP        1 Y    LYP  0     **** LYP Y 11
     8 GLP5       18 GROUP        1 Y    GLP  0     **** GLP Y 13
     9 ALL1        7 GROUP        1 Z    ALL  0     ROOT ALL Z 15
    10 SEL2        2 GROUP        1 Z    SEL  0     **** SEL Z 16
    11 LYL4       47 GROUP        1 Z    LYL  0     **** LYL Z 18
    12 GLL5       17 GROUP        1 Z    GLL  0     **** GLL Z 20
@<TRIPOS>SET

