#    Name: 3hf3_FMN_1_ligand
#    Modification time : Tue Mar 25 14:12:47 2014

@<TRIPOS>MOLECULE
3hf3_FMN_1_ligand
   50    52     1     0     0
SMALL
NO_CHARGES


@<TRIPOS>ATOM
      1 N1         42.2500  -32.7480   17.1040 N.2       1 FMN1001     0.0000 
      2 C2         41.9530  -31.7070   17.9430 C.2       1 FMN1001     0.0000 
      3 O2         41.6140  -31.9950   19.1000 O.2       1 FMN1001     0.0000 
      4 N3         42.1340  -30.3960   17.5090 N.am      1 FMN1001     0.0000 
      5 C4         42.5090  -30.1680   16.1800 C.2       1 FMN1001     0.0000 
      6 O4         42.4410  -29.0280   15.6690 O.2       1 FMN1001     0.0000 
      7 C4A        42.8540  -31.2480   15.3550 C.2       1 FMN1001     0.0000 
      8 N5         43.2720  -31.0240   14.0510 N.2       1 FMN1001     0.0000 
      9 C5A        43.3340  -32.0700   13.1500 C.ar      1 FMN1001     0.0000 
     10 C6         43.7340  -31.8480   11.8280 C.ar      1 FMN1001     0.0000 
     11 C7         43.8390  -32.9420   10.9580 C.ar      1 FMN1001     0.0000 
     12 C7M        44.1540  -32.7450    9.5050 C.3       1 FMN1001     0.0000 
     13 C8         43.6470  -34.2360   11.4520 C.ar      1 FMN1001     0.0000 
     14 C8M        43.7580  -35.4390   10.5560 C.3       1 FMN1001     0.0000 
     15 C9         43.3200  -34.4370   12.7830 C.ar      1 FMN1001     0.0000 
     16 C9A        43.1730  -33.3650   13.6290 C.ar      1 FMN1001     0.0000 
     17 N10        42.8060  -33.6050   14.9430 N.pl3     1 FMN1001     0.0000 
     18 C10        42.6590  -32.5410   15.8070 C.2       1 FMN1001     0.0000 
     19 C1'        42.4100  -34.9920   15.3400 C.3       1 FMN1001     0.0000 
     20 C2'        40.9800  -35.2840   14.8890 C.3       1 FMN1001     0.0000 
     21 O2'        40.1290  -34.3410   15.4930 O.3       1 FMN1001     0.0000 
     22 C3'        40.5020  -36.6460   15.3790 C.3       1 FMN1001     0.0000 
     23 O3'        40.4510  -36.6050   16.7940 O.3       1 FMN1001     0.0000 
     24 C4'        41.4630  -37.7460   14.9490 C.3       1 FMN1001     0.0000 
     25 O4'        41.8050  -37.5160   13.5950 O.3       1 FMN1001     0.0000 
     26 C5'        40.8480  -39.1310   15.1530 C.3       1 FMN1001     0.0000 
     27 O5'        39.5990  -39.1990   14.5000 O.3       1 FMN1001     0.0000 
     28 P          39.4350  -39.7800   12.9860 P.3       1 FMN1001     0.0000 
     29 O1P        40.0130  -41.1700   12.8180 O.co2     1 FMN1001     0.0000 
     30 O2P        40.0440  -38.8270   12.0200 O.co2     1 FMN1001     0.0000 
     31 O3P        37.9160  -39.8920   12.8490 O.co2     1 FMN1001     0.0000 
     32 H          41.9963  -29.6131   18.1466 H         1 FMN1001     0.0000 
     33 H          43.9457  -30.9075   11.5018 H         1 FMN1001     0.0000 
     34 H          43.1872  -35.3996   13.1359 H         1 FMN1001     0.0000 
     35 H          42.4663  -35.1017   16.4231 H         1 FMN1001     0.0000 
     36 H          43.0792  -35.7186   14.8791 H         1 FMN1001     0.0000 
     37 H          40.9242  -35.2539   13.8325 H         1 FMN1001     0.0000 
     38 H          39.5379  -36.8417   14.9557 H         1 FMN1001     0.0000 
     39 H          42.3443  -37.6711   15.5866 H         1 FMN1001     0.0000 
     40 H          40.7601  -39.2961   16.2352 H         1 FMN1001     0.0000 
     41 H          41.5614  -39.8689   14.7622 H         1 FMN1001     0.0000 
     42 H          45.0369  -32.2939    9.3742 H         1 FMN1001     0.0000 
     43 H          44.1932  -33.6143    9.0123 H         1 FMN1001     0.0000 
     44 H          43.4660  -32.1804    9.0491 H         1 FMN1001     0.0000 
     45 H          44.6641  -35.5090   10.1388 H         1 FMN1001     0.0000 
     46 H          43.5989  -36.2904   11.0559 H         1 FMN1001     0.0000 
     47 H          43.0932  -35.4088    9.8096 H         1 FMN1001     0.0000 
     48 H          40.3012  -33.4862   15.0034 H         1 FMN1001     0.0000 
     49 H          41.2661  -37.0990   17.0966 H         1 FMN1001     0.0000 
     50 H          41.1005  -37.9894   13.0662 H         1 FMN1001     0.0000 
@<TRIPOS>BOND
     1    2    1 1    
     2   18    1 2    
     3    3    2 2    
     4    4    2 am   
     5    5    4 am   
     6   32    4 1    
     7    6    5 2    
     8    7    5 1    
     9    8    7 2    
    10   18    7 1    
    11    9    8 1    
    12   10    9 ar   
    13   16    9 ar   
    14   11   10 ar   
    15   33   10 1    
    16   12   11 1    
    17   13   11 ar   
    18   42   12 1    
    19   43   12 1    
    20   44   12 1    
    21   14   13 1    
    22   15   13 ar   
    23   45   14 1    
    24   46   14 1    
    25   47   14 1    
    26   16   15 ar   
    27   34   15 1    
    28   17   16 1    
    29   18   17 1    
    30   19   17 1    
    31   20   19 1    
    32   35   19 1    
    33   36   19 1    
    34   21   20 1    
    35   22   20 1    
    36   37   20 1    
    37   48   21 1    
    38   23   22 1    
    39   24   22 1    
    40   38   22 1    
    41   49   23 1    
    42   25   24 1    
    43   26   24 1    
    44   39   24 1    
    45   50   25 1    
    46   27   26 1    
    47   40   26 1    
    48   41   26 1    
    49   28   27 1    
    50   29   28 ar   
    51   30   28 ar   
    52   31   28 ar   
@<TRIPOS>SUBSTRUCTURE
     1 FMN1001     1 GROUP   
@<TRIPOS>SET

