#    Name: 3meh_THP_1_INTS_M
#    Modification time : Mon Mar 24 23:08:02 2014

@<TRIPOS>MOLECULE
3meh_THP_1_INTS_M
   55     0     9     0     0
SMALL
NO_CHARGES


@<TRIPOS>ATOM
      1 NZ         16.5810    9.1180    4.5865 N.4       2 LYC4        0.0000 
      2 NZ         17.8700    9.6050    5.1190 N.4       8 LYL4        0.0000 
      3 NZ         14.1820    9.3310    4.1410 N.4       5 LYP4        0.0000 
      4 NZ         18.2810    9.0555    3.5175 N.4       2 LYC4        0.0000 
      5 NZ         19.1280    7.4330    2.5570 N.4       5 LYP4        0.0000 
      6 N          16.5810    9.1180    4.5865 N.am      1 SEC2        0.0000 
      7 N          17.8700    9.6050    5.1190 N.am      7 SEL2        0.0000 
      8 N          15.2920    8.6310    4.0540 N.am      4 SEP2        0.0000 
      9 N          18.5100    8.5225    4.5065 N.am      1 SEC2        0.0000 
     10 N          19.1500    7.4400    3.8940 N.am      4 SEP2        0.0000 
     11 N          18.2810    9.0555    3.5175 N.am      1 SEC2        0.0000 
     12 N          18.6920    8.5060    1.9160 N.am      4 SEP2        0.0000 
     13 N          19.6705   11.3880    6.3585 N.am      1 SEC2        0.0000 
     14 N          19.1520   11.8560    5.3150 N.am      7 SEL2        0.0000 
     15 N          20.1890   10.9200    7.4020 N.am      4 SEP2        0.0000 
     16 NZ         15.4285   11.2285    4.8770 N.4       2 LYC4        0.0000 
     17 NZ         16.6170   11.8480    5.3550 N.4       8 LYL4        0.0000 
     18 N          15.4285   11.2285    4.8770 N.am      1 SEC2        0.0000 
     19 N          16.6170   11.8480    5.3550 N.am      7 SEL2        0.0000 
     20 N          14.2400   10.6090    4.3990 N.am      4 SEP2        0.0000 
     21 N          22.8740   12.7960    1.3080 N.am      1 SEC2        0.0000 
     22 N          21.8400   13.3860    1.8240 N.am      7 SEL2        0.0000 
     23 N          23.9080   12.2060    0.7920 N.am      4 SEP2        0.0000 
     24 NZ         22.4200   14.6510   -1.1775 N.4       2 LYC4        0.0000 
     25 NZ         22.1860   15.2560    0.0540 N.4       8 LYL4        0.0000 
     26 NZ         22.6540   14.0460   -2.4090 N.4       5 LYP4        0.0000 
     27 N          22.4200   14.6510   -1.1775 N.am      1 SEC2        0.0000 
     28 N          22.1860   15.2560    0.0540 N.am      7 SEL2        0.0000 
     29 N          22.6540   14.0460   -2.4090 N.am      4 SEP2        0.0000 
     30 N          18.2510    9.8025    2.5865 N.am      1 SEC2        0.0000 
     31 N          17.8100   11.0990    3.2570 N.am      7 SEL2        0.0000 
     32 CA         16.5360   13.6670    2.6060 C.3       3 GLC5        0.0000 
     33 CA         17.8520   12.4420    2.6730 C.3       9 GLL5        0.0000 
     34 CA         15.2200   14.8920    2.5390 C.3       6 GLP5        0.0000 
     35 CA         20.6235   11.3160    1.0065 C.3       3 GLC5        0.0000 
     36 CA         18.7760   12.3150    1.4250 C.3       9 GLL5        0.0000 
     37 CA         22.4710   10.3170    0.5880 C.3       6 GLP5        0.0000 
     38 N          21.3740   13.9560   -1.2255 N.am      1 SEC2        0.0000 
     39 N          20.0940   13.8660   -0.0420 N.am      7 SEL2        0.0000 
     40 CA         14.2120   11.6865   -1.9915 C.3       3 GLC5        0.0000 
     41 CA         14.6730   10.1500   -0.5670 C.3       9 GLL5        0.0000 
     42 CA         13.7510   13.2230   -3.4160 C.3       6 GLP5        0.0000 
     43 CA         15.0875   12.5850    0.0860 C.3       3 GLC5        0.0000 
     44 CA         15.8910   10.6380   -0.1950 C.3       9 GLL5        0.0000 
     45 CA         14.2840   14.5320    0.3670 C.3       6 GLP5        0.0000 
     46 CA         16.7855   14.0530    0.6475 C.3       3 GLC5        0.0000 
     47 CA         18.7560   13.5650    0.4730 C.3       9 GLL5        0.0000 
     48 CA         15.2510   15.0820    1.1890 C.3       6 GLP5        0.0000 
     49 CA         14.7625    8.4220    1.1595 C.3       3 GLC5        0.0000 
     50 CA         15.3590    6.8760    2.3490 C.3       6 GLP5        0.0000 
     51 CA         14.5415    8.1290   -0.8845 C.3       3 GLC5        0.0000 
     52 CA         13.6590    9.7860    0.5070 C.3       9 GLL5        0.0000 
     53 CA         14.9170    6.2900   -1.7390 C.3       6 GLP5        0.0000 
     54 CA         13.1445   11.5785    0.0025 C.3       3 GLC5        0.0000 
     55 CA         12.1230   13.1890    0.0350 C.3       6 GLP5        0.0000 
@<TRIPOS>BOND
@<TRIPOS>SUBSTRUCTURE
     1 SEC2        6 GROUP        1 X    SEC  0     ROOT SEC X 2
     2 LYC4        1 GROUP        1 X    LYC  0     **** LYC X 4
     3 GLC5       32 GROUP        1 X    GLC  0     **** GLC X 6
     4 SEP2        8 GROUP        1 Y    SEP  0     ROOT SEP Y 9
     5 LYP4        3 GROUP        1 Y    LYP  0     **** LYP Y 11
     6 GLP5       34 GROUP        1 Y    GLP  0     **** GLP Y 13
     7 SEL2        7 GROUP        1 Z    SEL  0     ROOT SEL Z 16
     8 LYL4        2 GROUP        1 Z    LYL  0     **** LYL Z 18
     9 GLL5       33 GROUP        1 Z    GLL  0     **** GLL Z 20
@<TRIPOS>SET

