#    Name: 3meh_THP_1_ligand
#    Modification time : Mon Mar 24 23:08:02 2014

@<TRIPOS>MOLECULE
3meh_THP_1_ligand
   37    38     1     0     0
SMALL
NO_CHARGES


@<TRIPOS>ATOM
      1 P2         17.8870   11.0820    4.8200 P.3       1 THP150      0.0000 
      2 O4P        17.8700    9.6050    5.1190 O.co2     1 THP150      0.0000 
      3 O5P        19.1520   11.8560    5.3150 O.co2     1 THP150      0.0000 
      4 O6P        16.6170   11.8480    5.3550 O.co2     1 THP150      0.0000 
      5 P1         21.1230   14.5470    0.9840 P.3       1 THP150      0.0000 
      6 O1P        20.4860   15.5050    1.9170 O.co2     1 THP150      0.0000 
      7 O2P        21.8400   13.3860    1.8240 O.co2     1 THP150      0.0000 
      8 O3P        22.1860   15.2560    0.0540 O.co2     1 THP150      0.0000 
      9 O5'        17.8100   11.0990    3.2570 O.3       1 THP150      0.0000 
     10 C5'        17.8520   12.4420    2.6730 C.3       1 THP150      0.0000 
     11 C4'        18.7760   12.3150    1.4250 C.3       1 THP150      0.0000 
     12 O4'        18.4960   11.2290    0.5260 O.3       1 THP150      0.0000 
     13 C3'        18.7560   13.5650    0.4730 C.3       1 THP150      0.0000 
     14 O3'        20.0940   13.8660   -0.0420 O.3       1 THP150      0.0000 
     15 C2'        17.8740   13.1080   -0.7370 C.3       1 THP150      0.0000 
     16 C1'        18.1430   11.5840   -0.8020 C.3       1 THP150      0.0000 
     17 N1         16.8360   10.9350   -1.1620 N.am      1 THP150      0.0000 
     18 C2         16.5360   10.7280   -2.4700 C.2       1 THP150      0.0000 
     19 O2         17.3510   11.1130   -3.3190 O.2       1 THP150      0.0000 
     20 N3         15.3600   10.2420   -2.8710 N.am      1 THP150      0.0000 
     21 C4         14.3880    9.9040   -1.9510 C.2       1 THP150      0.0000 
     22 O4         13.3110    9.5300   -2.2970 O.2       1 THP150      0.0000 
     23 C5         14.6730   10.1500   -0.5670 C.2       1 THP150      0.0000 
     24 C5M        13.6590    9.7860    0.5070 C.3       1 THP150      0.0000 
     25 C6         15.8910   10.6380   -0.1950 C.2       1 THP150      0.0000 
     26 H          18.2943   13.1516    3.3407 H         1 THP150      0.0000 
     27 H          16.8866   12.7597    2.3383 H         1 THP150      0.0000 
     28 H          19.8220   12.2396    1.7663 H         1 THP150      0.0000 
     29 H          18.2889   14.3555    0.9463 H         1 THP150      0.0000 
     30 H          18.2229   13.5700   -1.6129 H         1 THP150      0.0000 
     31 H          16.8632   13.2831   -0.5134 H         1 THP150      0.0000 
     32 H          18.8730   11.3998   -1.5032 H         1 THP150      0.0000 
     33 H          15.1530   10.1084   -3.8855 H         1 THP150      0.0000 
     34 H          16.1161   10.7885    0.8008 H         1 THP150      0.0000 
     35 H          13.4529    8.8075    0.5069 H         1 THP150      0.0000 
     36 H          13.9890   10.0159    1.4225 H         1 THP150      0.0000 
     37 H          12.7924   10.2680    0.3782 H         1 THP150      0.0000 
@<TRIPOS>BOND
     1    2    1 ar   
     2    3    1 ar   
     3    4    1 ar   
     4    9    1 1    
     5    6    5 ar   
     6    7    5 ar   
     7    8    5 ar   
     8   14    5 1    
     9   10    9 1    
    10   11   10 1    
    11   26   10 1    
    12   27   10 1    
    13   12   11 1    
    14   13   11 1    
    15   28   11 1    
    16   16   12 1    
    17   14   13 1    
    18   15   13 1    
    19   29   13 1    
    20   16   15 1    
    21   30   15 1    
    22   31   15 1    
    23   17   16 1    
    24   32   16 1    
    25   18   17 1    
    26   25   17 1    
    27   19   18 2    
    28   20   18 1    
    29   21   20 1    
    30   33   20 1    
    31   22   21 2    
    32   23   21 1    
    33   24   23 1    
    34   25   23 2    
    35   35   24 1    
    36   36   24 1    
    37   37   24 1    
    38   34   25 1    
@<TRIPOS>SUBSTRUCTURE
     1 THP150      1 GROUP   
@<TRIPOS>SET

