#    Name: 4j1f_1HL_1_INTS_M
#    Modification time : Tue Mar 25 05:01:48 2014

@<TRIPOS>MOLECULE
4j1f_1HL_1_INTS_M
   61     0     6     0     0
SMALL
NO_CHARGES


@<TRIPOS>ATOM
      1 CA        -15.4195  -40.2185  -11.9325 C.3       2 GLC5        0.0000 
      2 CA        -15.9970  -40.6260  -10.1230 C.3       6 GLL5        0.0000 
      3 CA        -14.8420  -39.8110  -13.7420 C.3       4 GLP5        0.0000 
      4 O         -15.3930  -38.6855   -7.0965 O.2       1 ALC1        0.0000 
      5 O         -15.5480  -39.6980   -7.8860 O.2       5 ALL1        0.0000 
      6 O         -15.2380  -37.6730   -6.3070 O.2       3 ALP1        0.0000 
      7 CA        -17.8855  -39.1060  -12.3010 C.3       2 GLC5        0.0000 
      8 CA        -18.6970  -39.2530  -10.8980 C.3       6 GLL5        0.0000 
      9 CA        -17.0740  -38.9590  -13.7040 C.3       4 GLP5        0.0000 
     10 CA        -19.6980  -37.9905  -10.9835 C.3       2 GLC5        0.0000 
     11 CA        -20.6990  -36.7280  -11.0690 C.3       4 GLP5        0.0000 
     12 O         -14.1110  -39.8000   -5.6265 O.2       1 ALC1        0.0000 
     13 O         -13.9410  -40.7700   -6.5520 O.2       5 ALL1        0.0000 
     14 O         -14.2810  -38.8300   -4.7010 O.2       3 ALP1        0.0000 
     15 O         -14.5895  -39.2215   -6.4295 O.2       1 ALC1        0.0000 
     16 O         -13.2535  -41.8430   -5.9540 O.2       1 ALC1        0.0000 
     17 O         -12.5660  -42.9160   -5.3560 O.2       3 ALP1        0.0000 
     18 CA        -14.6125  -37.2315   -8.9470 C.3       2 GLC5        0.0000 
     19 CA        -16.2390  -38.1930   -9.5850 C.3       6 GLL5        0.0000 
     20 CA        -12.9860  -36.2700   -8.3090 C.3       4 GLP5        0.0000 
     21 O         -18.3945  -41.9360   -5.4070 O.2       1 ALC1        0.0000 
     22 O         -19.6800  -41.3850   -5.8800 O.2       5 ALL1        0.0000 
     23 O         -17.1090  -42.4870   -4.9340 O.2       3 ALP1        0.0000 
     24 CA        -20.3480  -40.4390   -4.1505 C.3       2 GLC5        0.0000 
     25 CA        -20.6730  -42.5710   -4.0420 C.3       6 GLL5        0.0000 
     26 CA        -20.0230  -38.3070   -4.2590 C.3       4 GLP5        0.0000 
     27 CA        -17.8035  -41.9470   -2.6965 C.3       2 GLC5        0.0000 
     28 CA        -19.3710  -42.8200   -2.1230 C.3       6 GLL5        0.0000 
     29 CA        -16.2360  -41.0740   -3.2700 C.3       4 GLP5        0.0000 
     30 CA        -17.7150  -43.8655   -2.9985 C.3       2 GLC5        0.0000 
     31 CA        -16.0590  -44.9110   -3.8740 C.3       4 GLP5        0.0000 
     32 CA        -18.5505  -44.9100    0.8450 C.3       2 GLC5        0.0000 
     33 CA        -20.0910  -44.2930   -0.2600 C.3       6 GLL5        0.0000 
     34 CA        -17.0100  -45.5270    1.9500 C.3       4 GLP5        0.0000 
     35 CA        -16.2610  -42.1975  -13.0980 C.3       2 GLC5        0.0000 
     36 CA        -15.8510  -43.1370  -11.5240 C.3       6 GLL5        0.0000 
     37 CA        -16.6710  -41.2580  -14.6720 C.3       4 GLP5        0.0000 
     38 CA        -15.8015  -38.2700  -11.0858 C.3       2 GLC5        0.0000 
     39 CA        -16.4430  -39.6130   -9.0300 C.3       6 GLL5        0.0000 
     40 CA        -15.2620  -37.6370  -12.8640 C.3       4 GLP5        0.0000 
     41 CA        -19.0585  -38.6227   -7.3190 C.3       2 GLC5        0.0000 
     42 CA        -19.5110  -40.8060   -7.1170 C.3       6 GLL5        0.0000 
     43 CA        -19.2670  -36.6020   -7.3570 C.3       4 GLP5        0.0000 
     44 CA        -19.8680  -39.4721   -5.9563 C.3       2 GLC5        0.0000 
     45 CA        -18.1890  -40.4810   -7.4450 C.3       6 GLL5        0.0000 
     46 CA        -19.8463  -38.4870   -8.0072 C.3       2 GLC5        0.0000 
     47 CA        -20.5760  -40.6310   -8.0260 C.3       6 GLL5        0.0000 
     48 CA        -19.0452  -38.0517   -8.8085 C.3       2 GLC5        0.0000 
     49 CA        -18.9500  -39.7500   -9.6220 C.3       6 GLL5        0.0000 
     50 CA        -17.9872  -37.7927   -8.2894 C.3       2 GLC5        0.0000 
     51 CA        -19.0605  -45.7575   -1.3645 C.3       2 GLC5        0.0000 
     52 CA        -20.3130  -43.7210   -1.5640 C.3       6 GLL5        0.0000 
     53 CA        -17.9190  -47.5080   -1.8170 C.3       4 GLP5        0.0000 
     54 CA        -23.3983  -43.4870   -2.2390 C.3       2 GLC5        0.0000 
     55 CA        -21.4900  -44.0540   -2.3260 C.3       6 GLL5        0.0000 
     56 CA        -25.2130  -43.2150   -1.5220 C.3       4 GLP5        0.0000 
     57 CA        -21.7188  -42.5069   -1.6140 C.3       2 GLC5        0.0000 
     58 CA        -22.1050  -41.4780   -0.1580 C.3       4 GLP5        0.0000 
     59 CA        -21.0358  -42.6299   -0.6049 C.3       2 GLC5        0.0000 
     60 CA        -14.6035  -41.1750  -12.2543 C.3       2 GLC5        0.0000 
     61 CA        -14.9510  -42.8650  -10.5180 C.3       6 GLL5        0.0000 
@<TRIPOS>BOND
@<TRIPOS>SUBSTRUCTURE
     1 ALC1        4 GROUP        1 X    ALC  0     ROOT ALC X 1
     2 GLC5        1 GROUP        1 X    GLC  0     **** GLC X 6
     3 ALP1        6 GROUP        1 Y    ALP  0     ROOT ALP Y 8
     4 GLP5        3 GROUP        1 Y    GLP  0     **** GLP Y 13
     5 ALL1        5 GROUP        1 Z    ALL  0     ROOT ALL Z 15
     6 GLL5        2 GROUP        1 Z    GLL  0     **** GLL Z 20
@<TRIPOS>SET

