#    Name: 4j1f_1HL_1_ligand
#    Modification time : Tue Mar 25 05:01:48 2014

@<TRIPOS>MOLECULE
4j1f_1HL_1_ligand
   46    48     1     0     0
SMALL
NO_CHARGES


@<TRIPOS>ATOM
      1 C1        -15.7050  -42.0000   -9.4990 C.3       1 1HL504      0.0000 
      2 C2        -15.9970  -40.6260  -10.1230 C.3       1 1HL504      0.0000 
      3 O3        -14.8330  -41.9060   -8.3660 O.3       1 1HL504      0.0000 
      4 C4        -14.8050  -40.7560   -7.6450 C.2       1 1HL504      0.0000 
      5 N5        -15.5480  -39.6980   -7.8860 N.pl3     1 1HL504      0.0000 
      6 C6        -16.4430  -39.6130   -9.0300 C.3       1 1HL504      0.0000 
      7 C7        -17.9090  -39.9350   -8.6870 C.ar      1 1HL504      0.0000 
      8 C8        -18.1890  -40.4810   -7.4450 C.ar      1 1HL504      0.0000 
      9 C9        -19.5110  -40.8060   -7.1170 C.ar      1 1HL504      0.0000 
     10 C10       -20.5760  -40.6310   -8.0260 C.ar      1 1HL504      0.0000 
     11 C11       -20.2750  -40.1130   -9.2890 C.ar      1 1HL504      0.0000 
     12 C12       -18.9500  -39.7500   -9.6220 C.ar      1 1HL504      0.0000 
     13 F13       -18.6970  -39.2530  -10.8980 F         1 1HL504      0.0000 
     14 N14       -13.9410  -40.7700   -6.5520 N.pl3     1 1HL504      0.0000 
     15 C15       -16.2390  -38.1930   -9.5850 C.3       1 1HL504      0.0000 
     16 N16       -19.6800  -41.3850   -5.8800 N.am      1 1HL504      0.0000 
     17 C17       -20.8110  -41.9620   -5.3680 C.2       1 1HL504      0.0000 
     18 C18       -20.6730  -42.5710   -4.0420 C.ar      1 1HL504      0.0000 
     19 O19       -21.8840  -41.9830   -5.9400 O.2       1 1HL504      0.0000 
     20 N20       -19.5620  -42.2940   -3.3320 N.ar      1 1HL504      0.0000 
     21 C21       -19.3710  -42.8200   -2.1230 C.ar      1 1HL504      0.0000 
     22 C22       -20.3130  -43.7210   -1.5640 C.ar      1 1HL504      0.0000 
     23 C23       -21.4900  -44.0540   -2.3260 C.ar      1 1HL504      0.0000 
     24 C24       -21.6770  -43.4640   -3.5860 C.ar      1 1HL504      0.0000 
     25 C25       -20.0910  -44.2930   -0.2600 C.1       1 1HL504      0.0000 
     26 N26       -19.9390  -44.7650    0.7820 N.1       1 1HL504      0.0000 
     27 C27       -14.9510  -42.8650  -10.5180 C.3       1 1HL504      0.0000 
     28 F28       -14.6770  -44.1010   -9.9320 F         1 1HL504      0.0000 
     29 F29       -15.8510  -43.1370  -11.5240 F         1 1HL504      0.0000 
     30 F30       -13.7790  -42.2130  -11.0150 F         1 1HL504      0.0000 
     31 H         -16.6169  -42.4893   -9.2641 H         1 1HL504      0.0000 
     32 H         -16.7909  -40.7220  -10.8542 H         1 1HL504      0.0000 
     33 H         -15.1018  -40.2490  -10.6033 H         1 1HL504      0.0000 
     34 H         -15.5371  -38.8519   -7.2641 H         1 1HL504      0.0000 
     35 H         -17.4398  -40.6483   -6.7673 H         1 1HL504      0.0000 
     36 H         -21.5195  -40.8731   -7.7675 H         1 1HL504      0.0000 
     37 H         -21.0196  -39.9922   -9.9872 H         1 1HL504      0.0000 
     38 H         -13.9153  -39.9361   -6.0007 H         1 1HL504      0.0000 
     39 H         -13.4210  -41.6128   -6.4129 H         1 1HL504      0.0000 
     40 H         -18.8045  -41.3826   -5.2302 H         1 1HL504      0.0000 
     41 H         -18.5325  -42.5908   -1.5517 H         1 1HL504      0.0000 
     42 H         -22.1621  -44.7057   -1.9435 H         1 1HL504      0.0000 
     43 H         -22.4845  -43.6609   -4.1462 H         1 1HL504      0.0000 
     44 H         -15.2826  -38.0201   -9.8204 H         1 1HL504      0.0000 
     45 H         -16.7775  -38.0370  -10.4130 H         1 1HL504      0.0000 
     46 H         -16.5091  -37.4934   -8.9235 H         1 1HL504      0.0000 
@<TRIPOS>BOND
     1    2    1 1    
     2    3    1 1    
     3   27    1 1    
     4   31    1 1    
     5    6    2 1    
     6   32    2 1    
     7   33    2 1    
     8    4    3 1    
     9    5    4 1    
    10   14    4 2    
    11    6    5 1    
    12   34    5 1    
    13    7    6 1    
    14   15    6 1    
    15    8    7 ar   
    16   12    7 ar   
    17    9    8 ar   
    18   35    8 1    
    19   10    9 ar   
    20   16    9 1    
    21   11   10 ar   
    22   36   10 1    
    23   12   11 ar   
    24   37   11 1    
    25   13   12 1    
    26   38   14 1    
    27   39   14 1    
    28   44   15 1    
    29   45   15 1    
    30   46   15 1    
    31   17   16 am   
    32   40   16 1    
    33   18   17 1    
    34   19   17 2    
    35   20   18 ar   
    36   24   18 ar   
    37   21   20 ar   
    38   22   21 ar   
    39   41   21 1    
    40   23   22 ar   
    41   25   22 1    
    42   24   23 ar   
    43   42   23 1    
    44   43   24 1    
    45   26   25 3    
    46   28   27 1    
    47   29   27 1    
    48   30   27 1    
@<TRIPOS>SUBSTRUCTURE
     1 1HL504      1 GROUP   
@<TRIPOS>SET

