#    Name: 1z6p_194_1_INTS_M
#    Modification time : Mon Apr  7 16:53:29 2014

@<TRIPOS>MOLECULE
1z6p_194_1_INTS_M
   46     0    12     0     0
SMALL
NO_CHARGES


@<TRIPOS>ATOM
      1 N          34.4290    1.5885   52.2810 N.am      2 SEC2        0.0000 
      2 N          33.4070    0.5470   51.7720 N.am     10 SEL2        0.0000 
      3 N          35.4510    2.6300   52.7900 N.am      6 SEP2        0.0000 
      4 NZ         33.1255    3.1225   49.1070 N.4       3 LYC4        0.0000 
      5 NZ         32.5980    2.1990   50.5400 N.4      11 LYL4        0.0000 
      6 NZ         33.6530    4.0460   47.6740 N.4       7 LYP4        0.0000 
      7 NZ         32.1960   -1.0180   46.7220 N.4       3 LYC4        0.0000 
      8 NZ         32.1130   -0.9580   48.1130 N.4      11 LYL4        0.0000 
      9 NZ         33.2610   -1.8930   45.0750 N.4       7 LYP4        0.0000 
     10 N          32.1960   -1.0180   46.7220 N.am      2 SEC2        0.0000 
     11 N          32.1130   -0.9580   48.1130 N.am     10 SEL2        0.0000 
     12 N          32.2790   -1.0780   45.3310 N.am      6 SEP2        0.0000 
     13 N          31.1405    1.1600   46.4370 N.am      2 SEC2        0.0000 
     14 N          31.0290    0.9680   47.7960 N.am     10 SEL2        0.0000 
     15 N          31.2520    1.3520   45.0780 N.am      6 SEP2        0.0000 
     16 N          32.1815    1.8760   47.9035 N.am      2 SEC2        0.0000 
     17 N          33.3340    2.7840   48.0110 N.am      6 SEP2        0.0000 
     18 CA         26.2315   -0.4525   49.7265 C.3       4 GLC5        0.0000 
     19 CA         26.7290   -1.6170   51.5270 C.3      12 GLL5        0.0000 
     20 CA         25.7340    0.7120   47.9260 C.3       8 GLP5        0.0000 
     21 O          23.6710   -0.8795   50.3145 O.2       1 ALC1        0.0000 
     22 O          24.6550   -0.5170   51.2980 O.2       9 ALL1        0.0000 
     23 O          22.6870   -1.2420   49.3310 O.2       5 ALP1        0.0000 
     24 CA         24.8885    1.3085   49.7950 C.3       4 GLC5        0.0000 
     25 CA         24.0430    1.9050   51.6640 C.3      12 GLL5        0.0000 
     26 CA         21.8845    2.1930   52.2155 C.3       4 GLC5        0.0000 
     27 CA         23.9140    2.9440   52.6100 C.3      12 GLL5        0.0000 
     28 CA         19.8550    1.4420   51.8210 C.3       8 GLP5        0.0000 
     29 CA         27.3208    0.1687   49.1090 C.3       4 GLC5        0.0000 
     30 CA         28.5540   -0.3870   50.8790 C.3      12 GLL5        0.0000 
     31 CA         29.6441   -2.0829   49.8077 C.3       4 GLC5        0.0000 
     32 CA         29.2610   -0.3620   49.7050 C.3      12 GLL5        0.0000 
     33 CA         29.5390   -3.9650   49.5890 C.3       8 GLP5        0.0000 
     34 CA         25.1601   -4.3379   51.6726 C.3       4 GLC5        0.0000 
     35 CA         25.5900   -3.6370   53.1050 C.3      12 GLL5        0.0000 
     36 CA         24.2490   -5.2890   50.4980 C.3       8 GLP5        0.0000 
     37 CA         28.2903   -3.4211   50.9550 C.3       4 GLC5        0.0000 
     38 CA         26.9630   -3.6200   52.8770 C.3      12 GLL5        0.0000 
     39 CA         26.0232   -2.8904   50.3608 C.3       4 GLC5        0.0000 
     40 CA         27.5110   -2.6520   52.0030 C.3      12 GLL5        0.0000 
     41 CA         25.2700   -3.6460   48.8910 C.3       8 GLP5        0.0000 
     42 CA         22.3499    1.5876   50.1178 C.3       4 GLC5        0.0000 
     43 CA         21.0150    0.4030   49.7810 C.3       8 GLP5        0.0000 
     44 CA         24.4037    2.4322   48.6875 C.3       4 GLC5        0.0000 
     45 CA         23.8060    2.2220   50.3460 C.3      12 GLL5        0.0000 
     46 CA         25.1820    2.0130   47.2500 C.3       8 GLP5        0.0000 
@<TRIPOS>BOND
@<TRIPOS>SUBSTRUCTURE
     1 ALC1       21 GROUP        1 X    ALC  0     ROOT ALC X 1
     2 SEC2        1 GROUP        1 X    SEC  0     **** SEC X 2
     3 LYC4        4 GROUP        1 X    LYC  0     **** LYC X 4
     4 GLC5       18 GROUP        1 X    GLC  0     **** GLC X 6
     5 ALP1       23 GROUP        1 Y    ALP  0     ROOT ALP Y 8
     6 SEP2        3 GROUP        1 Y    SEP  0     **** SEP Y 9
     7 LYP4        6 GROUP        1 Y    LYP  0     **** LYP Y 11
     8 GLP5       20 GROUP        1 Y    GLP  0     **** GLP Y 13
     9 ALL1       22 GROUP        1 Z    ALL  0     ROOT ALL Z 15
    10 SEL2        2 GROUP        1 Z    SEL  0     **** SEL Z 16
    11 LYL4        5 GROUP        1 Z    LYL  0     **** LYL Z 18
    12 GLL5       19 GROUP        1 Z    GLL  0     **** GLL Z 20
@<TRIPOS>SET

