#    Name: 1z6p_194_1_ligand
#    Modification time : Mon Apr  7 16:53:29 2014

@<TRIPOS>MOLECULE
1z6p_194_1_ligand
   43    45     1     0     0
SMALL
NO_CHARGES


@<TRIPOS>ATOM
      1 C1         30.5040    0.0440   52.1840 C.ar      1 194843      0.0000 
      2 C2         29.1630   -0.2510   52.1070 C.ar      1 194843      0.0000 
      3 C3         28.5540   -0.3870   50.8790 C.ar      1 194843      0.0000 
      4 C4         29.2610   -0.3620   49.7050 C.ar      1 194843      0.0000 
      5 C5         30.5910   -0.0270   49.7610 C.ar      1 194843      0.0000 
      6 C6         31.1940    0.2620   50.9960 C.ar      1 194843      0.0000 
      7 C10        32.5060    0.9780   51.1290 C.2       1 194843      0.0000 
      8 O1         33.4070    0.5470   51.7720 O.co2     1 194843      0.0000 
      9 O2         32.5980    2.1990   50.5400 O.co2     1 194843      0.0000 
     10 C20        31.2730    0.0530   48.4890 C.2       1 194843      0.0000 
     11 O5         32.1130   -0.9580   48.1130 O.co2     1 194843      0.0000 
     12 O4         31.0290    0.9680   47.7960 O.co2     1 194843      0.0000 
     13 O3         27.2090   -0.5640   50.7770 O.3       1 194843      0.0000 
     14 C31        26.7290   -1.6170   51.5270 C.ar      1 194843      0.0000 
     15 C34        25.3550   -1.6180   51.7890 C.ar      1 194843      0.0000 
     16 C35        24.7690   -2.6700   52.5300 C.ar      1 194843      0.0000 
     17 C36        25.5900   -3.6370   53.1050 C.ar      1 194843      0.0000 
     18 C37        26.9630   -3.6200   52.8770 C.ar      1 194843      0.0000 
     19 C38        27.5110   -2.6520   52.0030 C.ar      1 194843      0.0000 
     20 N1         24.6550   -0.5170   51.2980 N.am      1 194843      0.0000 
     21 C44        24.3410    0.5060   52.1230 C.2       1 194843      0.0000 
     22 O6         24.2880    0.2770   53.3100 O.2       1 194843      0.0000 
     23 C51        24.0430    1.9050   51.6640 C.ar      1 194843      0.0000 
     24 C53        23.9140    2.9440   52.6100 C.ar      1 194843      0.0000 
     25 C54        23.5450    4.2460   52.1680 C.ar      1 194843      0.0000 
     26 C55        23.2770    4.4870   50.8220 C.ar      1 194843      0.0000 
     27 C56        23.4450    3.4810   49.9040 C.ar      1 194843      0.0000 
     28 C57        23.8060    2.2220   50.3460 C.ar      1 194843      0.0000 
     29 N2         23.6070    5.3760   53.0680 N.pl3     1 194843      0.0000 
     30 O7         24.1480    5.2870   54.1090 O.2       1 194843      0.0000 
     31 O8         23.2250    6.5490   52.6940 O.2       1 194843      0.0000 
     32 H          30.9835    0.1027   53.0788 H         1 194843      0.0000 
     33 H          28.6098   -0.3712   52.9723 H         1 194843      0.0000 
     34 H          28.8130   -0.5856   48.8155 H         1 194843      0.0000 
     35 H          23.7567   -2.7117   52.6366 H         1 194843      0.0000 
     36 H          25.1785   -4.3686   53.7022 H         1 194843      0.0000 
     37 H          27.5777   -4.2956   53.3315 H         1 194843      0.0000 
     38 H          28.4992   -2.7318   51.7287 H         1 194843      0.0000 
     39 H          24.3848   -0.5014   50.2998 H         1 194843      0.0000 
     40 H          24.0811    2.7709   53.5952 H         1 194843      0.0000 
     41 H          22.9549    5.4188   50.5272 H         1 194843      0.0000 
     42 H          23.3057    3.6562   48.9025 H         1 194843      0.0000 
     43 H          23.9060    1.4533   49.6215 H         1 194843      0.0000 
@<TRIPOS>BOND
     1    2    1 ar   
     2    6    1 ar   
     3   32    1 1    
     4    3    2 ar   
     5   33    2 1    
     6    4    3 ar   
     7   13    3 1    
     8    5    4 ar   
     9   34    4 1    
    10    6    5 ar   
    11   10    5 1    
    12    7    6 1    
    13    8    7 ar   
    14    9    7 ar   
    15   11   10 ar   
    16   12   10 ar   
    17   14   13 1    
    18   15   14 ar   
    19   19   14 ar   
    20   16   15 ar   
    21   20   15 1    
    22   17   16 ar   
    23   35   16 1    
    24   18   17 ar   
    25   36   17 1    
    26   19   18 ar   
    27   37   18 1    
    28   38   19 1    
    29   21   20 am   
    30   39   20 1    
    31   22   21 2    
    32   23   21 1    
    33   24   23 ar   
    34   28   23 ar   
    35   25   24 ar   
    36   40   24 1    
    37   26   25 ar   
    38   29   25 1    
    39   27   26 ar   
    40   41   26 1    
    41   28   27 ar   
    42   42   27 1    
    43   43   28 1    
    44   30   29 2    
    45   31   29 2    
@<TRIPOS>SUBSTRUCTURE
     1 194843      1 GROUP   
@<TRIPOS>SET

