#    Name: 3uuc_0D1_4_INTS_M
#    Modification time : Mon Mar 24 23:34:36 2014

@<TRIPOS>MOLECULE
3uuc_0D1_4_INTS_M
   59     0     9     0     0
SMALL
NO_CHARGES


@<TRIPOS>ATOM
      1 CA        -21.5985   -3.5195   36.8065 C.3       3 GLC5        0.0000 
      2 CA        -21.9350   -3.5340   34.5940 C.3       9 GLL5        0.0000 
      3 CA        -21.2620   -3.5050   39.0190 C.3       6 GLP5        0.0000 
      4 CA        -23.4215   -3.4825   37.2705 C.3       3 GLC5        0.0000 
      5 CA        -23.1270   -3.8760   35.2240 C.3       9 GLL5        0.0000 
      6 CA        -23.7160   -3.0890   39.3170 C.3       6 GLP5        0.0000 
      7 N         -25.4000   -5.8715   36.9400 N.am      2 SEC2        0.0000 
      8 N         -24.9280   -5.3950   35.5440 N.am      8 SEL2        0.0000 
      9 N         -25.8720   -6.3480   38.3360 N.am      5 SEP2        0.0000 
     10 O         -25.5745   -6.2185   34.7665 O.2       1 ALC1        0.0000 
     11 O         -24.9280   -5.3950   35.5440 O.2       7 ALL1        0.0000 
     12 O         -26.2210   -7.0420   33.9890 O.2       4 ALP1        0.0000 
     13 O         -26.4980   -5.9300   35.2855 O.2       1 ALC1        0.0000 
     14 O         -28.0680   -6.4650   35.0270 O.2       4 ALP1        0.0000 
     15 CA        -23.5460   -7.8940   34.5870 C.3       3 GLC5        0.0000 
     16 CA        -23.1820   -5.9690   34.0180 C.3       9 GLL5        0.0000 
     17 CA        -23.9100   -9.8190   35.1560 C.3       6 GLP5        0.0000 
     18 CA        -24.2195   -4.6235   32.6240 C.3       3 GLC5        0.0000 
     19 CA        -25.2570   -3.2780   31.2300 C.3       6 GLP5        0.0000 
     20 CA        -19.2165   -0.6730   34.8965 C.3       3 GLC5        0.0000 
     21 CA        -19.1080   -2.6620   35.3050 C.3       9 GLL5        0.0000 
     22 CA        -19.3250    1.3160   34.4880 C.3       6 GLP5        0.0000 
     23 CA        -20.1850   -3.0835   37.1620 C.3       3 GLC5        0.0000 
     24 CA        -19.5060   -4.3270   36.1160 C.3       3 GLC5        0.0000 
     25 CA        -19.9040   -5.9920   36.9270 C.3       6 GLP5        0.0000 
     26 CA        -18.7490   -1.7890   37.0635 C.3       3 GLC5        0.0000 
     27 CA        -18.3900   -0.9160   38.8220 C.3       6 GLP5        0.0000 
     28 CA        -16.1555   -2.8660   33.6685 C.3       3 GLC5        0.0000 
     29 CA        -17.6680   -2.7550   32.7360 C.3       9 GLL5        0.0000 
     30 CA        -14.6430   -2.9770   34.6010 C.3       6 GLP5        0.0000 
     31 CA        -17.1165   -2.7595   30.7285 C.3       3 GLC5        0.0000 
     32 CA        -16.5650   -2.7640   28.7210 C.3       6 GLP5        0.0000 
     33 O         -18.9705   -7.0135   27.5725 O.2       1 ALC1        0.0000 
     34 O         -19.4930   -5.6610   27.7320 O.2       7 ALL1        0.0000 
     35 O         -18.4480   -8.3660   27.4130 O.2       4 ALP1        0.0000 
     36 CA        -21.3330   -2.0750   30.9595 C.3       3 GLC5        0.0000 
     37 CA        -20.8880   -3.9980   30.6860 C.3       9 GLL5        0.0000 
     38 CA        -21.7780   -0.1520   31.2330 C.3       6 GLP5        0.0000 
     39 CA        -23.0725   -3.6380   30.9580 C.3       3 GLC5        0.0000 
     40 CA        -24.3275   -3.1442   34.1160 C.3       3 GLC5        0.0000 
     41 CA        -25.5130   -1.8940   33.3100 C.3       6 GLP5        0.0000 
     42 CA        -23.0842   -6.1007   31.7242 C.3       3 GLC5        0.0000 
     43 CA        -23.5870   -6.4030   29.7440 C.3       6 GLP5        0.0000 
     44 CA        -19.7503   -4.8093   35.1333 C.3       3 GLC5        0.0000 
     45 CA        -20.1480   -4.0590   33.0170 C.3       9 GLL5        0.0000 
     46 CA        -16.7967   -5.7007   30.4492 C.3       3 GLC5        0.0000 
     47 CA        -18.9470   -5.2910   31.3190 C.3       9 GLL5        0.0000 
     48 CA        -14.7340   -5.9060   30.2390 C.3       6 GLP5        0.0000 
     49 CA        -18.9101   -6.9420   31.5835 C.3       3 GLC5        0.0000 
     50 CA        -18.7720   -5.7000   30.0000 C.3       9 GLL5        0.0000 
     51 CA        -18.6980   -8.6020   32.4190 C.3       6 GLP5        0.0000 
     52 CA        -19.8965   -7.2387   28.9700 C.3       3 GLC5        0.0000 
     53 CA        -20.5750   -9.0000   28.4300 C.3       6 GLP5        0.0000 
     54 CA        -17.9134   -4.0696   29.2804 C.3       3 GLC5        0.0000 
     55 CA        -19.6640   -5.2550   29.0200 C.3       9 GLL5        0.0000 
     56 CA        -19.6930   -2.8973   28.9160 C.3       3 GLC5        0.0000 
     57 CA        -20.7200   -4.4030   29.3620 C.3       9 GLL5        0.0000 
     58 CA        -18.5820   -1.5940   27.8080 C.3       6 GLP5        0.0000 
     59 CA        -22.0635   -5.4082   29.8412 C.3       3 GLC5        0.0000 
@<TRIPOS>BOND
@<TRIPOS>SUBSTRUCTURE
     1 ALC1       10 GROUP        1 X    ALC  0     ROOT ALC X 1
     2 SEC2        7 GROUP        1 X    SEC  0     **** SEC X 2
     3 GLC5        1 GROUP        1 X    GLC  0     **** GLC X 6
     4 ALP1       12 GROUP        1 Y    ALP  0     ROOT ALP Y 8
     5 SEP2        9 GROUP        1 Y    SEP  0     **** SEP Y 9
     6 GLP5        3 GROUP        1 Y    GLP  0     **** GLP Y 13
     7 ALL1       11 GROUP        1 Z    ALL  0     ROOT ALL Z 15
     8 SEL2        8 GROUP        1 Z    SEL  0     **** SEL Z 16
     9 GLL5        2 GROUP        1 Z    GLL  0     **** GLL Z 20
@<TRIPOS>SET

