#    Name: 3uuc_0D1_4_ligand
#    Modification time : Mon Mar 24 23:34:36 2014

@<TRIPOS>MOLECULE
3uuc_0D1_4_ligand
   28    29     1     0     0
SMALL
NO_CHARGES


@<TRIPOS>ATOM
      1 CAI       -21.9350   -3.5340   34.5940 C.ar      1 0D11        0.0000 
      2 CAE       -23.1270   -3.8760   35.2240 C.ar      1 0D11        0.0000 
      3 CAO       -23.7530   -5.0840   34.9350 C.ar      1 0D11        0.0000 
      4 OAA       -24.9280   -5.3950   35.5440 O.3       1 0D11        0.0000 
      5 CAF       -23.1820   -5.9690   34.0180 C.ar      1 0D11        0.0000 
      6 CAJ       -21.9810   -5.6280   33.3910 C.ar      1 0D11        0.0000 
      7 CAQ       -21.3340   -4.4110   33.6840 C.ar      1 0D11        0.0000 
      8 CAN       -20.1480   -4.0590   33.0170 C.2       1 0D11        0.0000 
      9 CAM       -19.0450   -3.1940   33.6620 C.2       1 0D11        0.0000 
     10 CLD       -19.1080   -2.6620   35.3050 Cl        1 0D11        0.0000 
     11 CLC       -17.6680   -2.7550   32.7360 Cl        1 0D11        0.0000 
     12 CAR       -19.9980   -4.4370   31.6730 C.ar      1 0D11        0.0000 
     13 CAK       -18.9470   -5.2910   31.3190 C.ar      1 0D11        0.0000 
     14 CAG       -18.7720   -5.7000   30.0000 C.ar      1 0D11        0.0000 
     15 CAP       -19.6640   -5.2550   29.0200 C.ar      1 0D11        0.0000 
     16 OAB       -19.4930   -5.6610   27.7320 O.3       1 0D11        0.0000 
     17 CAH       -20.7200   -4.4030   29.3620 C.ar      1 0D11        0.0000 
     18 CAL       -20.8880   -3.9980   30.6860 C.ar      1 0D11        0.0000 
     19 H         -21.4876   -2.6278   34.7966 H         1 0D11        0.0000 
     20 H         -23.5485   -3.2311   35.9084 H         1 0D11        0.0000 
     21 H         -23.6387   -6.8589   33.8071 H         1 0D11        0.0000 
     22 H         -21.5591   -6.2704   32.7055 H         1 0D11        0.0000 
     23 H         -18.2944   -5.6202   32.0486 H         1 0D11        0.0000 
     24 H         -17.9992   -6.3200   29.7476 H         1 0D11        0.0000 
     25 H         -21.3695   -4.0774   28.6375 H         1 0D11        0.0000 
     26 H         -21.6654   -3.3767   30.9393 H         1 0D11        0.0000 
     27 H         -25.5622   -5.5932   34.7966 H         1 0D11        0.0000 
     28 H         -19.1395   -6.5940   27.7996 H         1 0D11        0.0000 
@<TRIPOS>BOND
     1    2    1 ar   
     2    7    1 ar   
     3   19    1 1    
     4    3    2 ar   
     5   20    2 1    
     6    4    3 1    
     7    5    3 ar   
     8   27    4 1    
     9    6    5 ar   
    10   21    5 1    
    11    7    6 ar   
    12   22    6 1    
    13    8    7 1    
    14    9    8 2    
    15   12    8 1    
    16   10    9 1    
    17   11    9 1    
    18   13   12 ar   
    19   18   12 ar   
    20   14   13 ar   
    21   23   13 1    
    22   15   14 ar   
    23   24   14 1    
    24   16   15 1    
    25   17   15 ar   
    26   28   16 1    
    27   18   17 ar   
    28   25   17 1    
    29   26   18 1    
@<TRIPOS>SUBSTRUCTURE
     1 0D11        1 GROUP   
@<TRIPOS>SET

