#    Name: 1fp2_SAH_1_INTS_M
#    Modification time : Tue Mar 25 01:37:36 2014

@<TRIPOS>MOLECULE
1fp2_SAH_1_INTS_M
   67     0    12     0     0
SMALL
NO_CHARGES


@<TRIPOS>ATOM
      1 O         -22.1030    8.8830    5.7230 O.2       1 ALC1        0.0000 
      2 O         -21.5100    7.5750    5.8670 O.2       9 ALL1        0.0000 
      3 O         -22.6960   10.1910    5.5790 O.2       5 ALP1        0.0000 
      4 O         -22.1270    6.6830    6.8160 O.2       1 ALC1        0.0000 
      5 O         -22.7440    5.7910    7.7650 O.2       5 ALP1        0.0000 
      6 CA        -22.6025    8.8085    7.9330 C.3       4 GLC5        0.0000 
      7 CA        -20.5330    8.9120    7.6460 C.3      12 GLL5        0.0000 
      8 CA        -24.6720    8.7050    8.2200 C.3       8 GLP5        0.0000 
      9 CA        -19.0255   10.6350   11.3450 C.3       4 GLC5        0.0000 
     10 CA        -20.4170   10.1560   10.0700 C.3      12 GLL5        0.0000 
     11 CA        -17.6340   11.1140   12.6200 C.3       8 GLP5        0.0000 
     12 CA        -18.9825    8.4885   10.1195 C.3       4 GLC5        0.0000 
     13 CA        -17.5480    6.8210   10.1690 C.3       8 GLP5        0.0000 
     14 NZ        -17.9645    5.9500    6.1590 N.4       3 LYC4        0.0000 
     15 NZ        -18.0100    7.7880    6.6160 N.4      11 LYL4        0.0000 
     16 NZ        -17.9190    4.1120    5.7020 N.4       7 LYP4        0.0000 
     17 NZ        -18.7185    5.1025    6.1550 N.4       3 LYC4        0.0000 
     18 NZ        -19.5180    6.0930    6.6080 N.4      11 LYL4        0.0000 
     19 N         -18.7185    5.1025    6.1550 N.am      2 SEC2        0.0000 
     20 N         -19.5180    6.0930    6.6080 N.am     10 SEL2        0.0000 
     21 N         -17.9190    4.1120    5.7020 N.am      6 SEP2        0.0000 
     22 CA        -23.5090   11.5595    7.3950 C.3       4 GLC5        0.0000 
     23 CA        -22.2260   11.7440    9.2160 C.3      12 GLL5        0.0000 
     24 CA        -24.7920   11.3750    5.5740 C.3       8 GLP5        0.0000 
     25 CA        -20.9830   13.4170   10.8120 C.3       4 GLC5        0.0000 
     26 CA        -21.4100   13.0450    9.0360 C.3      12 GLL5        0.0000 
     27 CA        -20.5560   13.7890   12.5880 C.3       8 GLP5        0.0000 
     28 O         -21.6325   13.3455    6.6140 O.2       1 ALC1        0.0000 
     29 O         -20.8630   13.1010    7.6850 O.2       9 ALL1        0.0000 
     30 O         -22.4020   13.5900    5.5430 O.2       5 ALP1        0.0000 
     31 CA        -21.7885   14.5705   10.9470 C.3       4 GLC5        0.0000 
     32 CA        -22.4560   14.0910    9.2780 C.3      12 GLL5        0.0000 
     33 CA        -21.1210   15.0500   12.6160 C.3       8 GLP5        0.0000 
     34 N         -22.5980   16.7740    9.1690 N.am      2 SEC2        0.0000 
     35 N         -22.1450   15.3350    8.6830 N.am     10 SEL2        0.0000 
     36 N         -23.0510   18.2130    9.6550 N.am      6 SEP2        0.0000 
     37 O         -22.4720   15.5110    7.4390 O.2       1 ALC1        0.0000 
     38 O         -22.1450   15.3350    8.6830 O.2       9 ALL1        0.0000 
     39 O         -22.7990   15.6870    6.1950 O.2       5 ALP1        0.0000 
     40 CA        -24.3070   12.4900    7.3515 C.3       4 GLC5        0.0000 
     41 CA        -23.8220   13.6050    9.1290 C.3      12 GLL5        0.0000 
     42 CA        -29.3515   17.1080    7.5820 C.3       4 GLC5        0.0000 
     43 CA        -28.0950   15.9750    8.9150 C.3      12 GLL5        0.0000 
     44 CA        -30.6080   18.2410    6.2490 C.3       8 GLP5        0.0000 
     45 CA        -29.2800   14.6825    8.5820 C.3       4 GLC5        0.0000 
     46 CA        -30.4650   13.3900    8.2490 C.3       8 GLP5        0.0000 
     47 O         -30.1900   17.2215    9.2875 O.2       1 ALC1        0.0000 
     48 O         -28.9580   16.6060    9.6810 O.2       9 ALL1        0.0000 
     49 O         -31.4220   17.8370    8.8940 O.2       5 ALP1        0.0000 
     50 N         -29.6400   15.8420    7.0720 N.am      2 SEC2        0.0000 
     51 N         -28.2710   15.8340    7.5840 N.am     10 SEL2        0.0000 
     52 N         -31.0090   15.8500    6.5600 N.am      6 SEP2        0.0000 
     53 CA        -25.9890   15.3830    5.2480 C.3       4 GLC5        0.0000 
     54 CA        -27.3780   15.1900    6.7620 C.3      12 GLL5        0.0000 
     55 CA        -24.6000   15.5760    3.7340 C.3       8 GLP5        0.0000 
     56 CA        -26.1605   16.6690    7.3835 C.3       4 GLC5        0.0000 
     57 CA        -24.9430   18.1480    8.0050 C.3       8 GLP5        0.0000 
     58 CA        -28.9930   16.7155    6.5055 C.3       4 GLC5        0.0000 
     59 CA        -28.9215   14.2900    7.5055 C.3       4 GLC5        0.0000 
     60 CA        -18.8175    8.0667    9.1212 C.3       4 GLC5        0.0000 
     61 CA        -23.4132   10.0023    8.7317 C.3       4 GLC5        0.0000 
     62 CA        -21.4855   11.8974   11.2911 C.3       4 GLC5        0.0000 
     63 CA        -21.2330   12.6700   13.1390 C.3       8 GLP5        0.0000 
     64 CA        -27.6145   13.6595    9.5940 C.3       4 GLC5        0.0000 
     65 CA        -26.8350   15.3560    9.4280 C.3      12 GLL5        0.0000 
     66 CA        -28.8100   12.2740   10.2200 C.3       8 GLP5        0.0000 
     67 CA        -25.8385   16.6739    8.4224 C.3       4 GLC5        0.0000 
@<TRIPOS>BOND
@<TRIPOS>SUBSTRUCTURE
     1 ALC1        1 GROUP        1 X    ALC  0     ROOT ALC X 1
     2 SEC2       19 GROUP        1 X    SEC  0     **** SEC X 2
     3 LYC4       14 GROUP        1 X    LYC  0     **** LYC X 4
     4 GLC5        6 GROUP        1 X    GLC  0     **** GLC X 6
     5 ALP1        3 GROUP        1 Y    ALP  0     ROOT ALP Y 8
     6 SEP2       21 GROUP        1 Y    SEP  0     **** SEP Y 9
     7 LYP4       16 GROUP        1 Y    LYP  0     **** LYP Y 11
     8 GLP5        8 GROUP        1 Y    GLP  0     **** GLP Y 13
     9 ALL1        2 GROUP        1 Z    ALL  0     ROOT ALL Z 15
    10 SEL2       20 GROUP        1 Z    SEL  0     **** SEL Z 16
    11 LYL4       15 GROUP        1 Z    LYL  0     **** LYL Z 18
    12 GLL5        7 GROUP        1 Z    GLL  0     **** GLL Z 20
@<TRIPOS>SET

