#    Name: 1fp2_SAH_1_ligand
#    Modification time : Tue Mar 25 01:37:36 2014

@<TRIPOS>MOLECULE
1fp2_SAH_1_ligand
   46    48     1     0     0
SMALL
NO_CHARGES


@<TRIPOS>ATOM
      1 N         -21.5100    7.5750    5.8670 N.4       1 SAH1699     0.0000 
      2 CA        -20.2400    8.2940    6.3610 C.3       1 SAH1699     0.0000 
      3 CB        -20.5330    8.9120    7.6460 C.3       1 SAH1699     0.0000 
      4 CG        -19.6410    9.7130    8.5010 C.3       1 SAH1699     0.0000 
      5 SD        -20.4170   10.1560   10.0700 S.3       1 SAH1699     0.0000 
      6 C         -19.1820    7.3130    6.5150 C.2       1 SAH1699     0.0000 
      7 O         -18.0100    7.7880    6.6160 O.co2     1 SAH1699     0.0000 
      8 OXT       -19.5180    6.0930    6.6080 O.co2     1 SAH1699     0.0000 
      9 C5'       -22.0830   10.8550    9.2710 C.3       1 SAH1699     0.0000 
     10 C4'       -22.2260   11.7440    9.2160 C.3       1 SAH1699     0.0000 
     11 O4'       -23.6860   12.1590    9.2040 O.3       1 SAH1699     0.0000 
     12 C3'       -21.4100   13.0450    9.0360 C.3       1 SAH1699     0.0000 
     13 O3'       -20.8630   13.1010    7.6850 O.3       1 SAH1699     0.0000 
     14 C2'       -22.4560   14.0910    9.2780 C.3       1 SAH1699     0.0000 
     15 O2'       -22.1450   15.3350    8.6830 O.3       1 SAH1699     0.0000 
     16 C1'       -23.8220   13.6050    9.1290 C.3       1 SAH1699     0.0000 
     17 N9        -24.9620   14.2850    9.2880 N.pl3     1 SAH1699     0.0000 
     18 C8        -25.2450   14.6730   10.6030 C.2       1 SAH1699     0.0000 
     19 N7        -26.3370   15.3010   10.7010 N.2       1 SAH1699     0.0000 
     20 C5        -26.8350   15.3560    9.4280 C.ar      1 SAH1699     0.0000 
     21 C6        -28.0950   15.9750    8.9150 C.ar      1 SAH1699     0.0000 
     22 N6        -28.9580   16.6060    9.6810 N.pl3     1 SAH1699     0.0000 
     23 N1        -28.2710   15.8340    7.5840 N.ar      1 SAH1699     0.0000 
     24 C2        -27.3780   15.1900    6.7620 C.ar      1 SAH1699     0.0000 
     25 N3        -26.2160   14.6210    7.1760 N.ar      1 SAH1699     0.0000 
     26 C4        -26.0030   14.7340    8.5080 C.ar      1 SAH1699     0.0000 
     27 H         -19.9788    9.0311    5.6346 H         1 SAH1699     0.0000 
     28 H         -20.9967    8.0707    8.3392 H         1 SAH1699     0.0000 
     29 H         -21.5252    9.5447    7.5098 H         1 SAH1699     0.0000 
     30 H         -19.3848   10.6830    8.1026 H         1 SAH1699     0.0000 
     31 H         -18.7528    9.1980    8.8344 H         1 SAH1699     0.0000 
     32 H         -22.7118   10.0323    9.9370 H         1 SAH1699     0.0000 
     33 H         -21.9367   10.0584    8.3437 H         1 SAH1699     0.0000 
     34 H         -22.2660   12.0360   10.6231 H         1 SAH1699     0.0000 
     35 H         -20.6862   13.0773    9.7924 H         1 SAH1699     0.0000 
     36 H         -22.3479   14.2800   10.4499 H         1 SAH1699     0.0000 
     37 H         -23.7511   13.6050    7.7802 H         1 SAH1699     0.0000 
     38 H         -24.6035   14.4423   11.3369 H         1 SAH1699     0.0000 
     39 H         -29.7596   16.9866    9.2199 H         1 SAH1699     0.0000 
     40 H         -28.7339   16.6476   10.6547 H         1 SAH1699     0.0000 
     41 H         -27.6210   15.1361    5.7219 H         1 SAH1699     0.0000 
     42 H         -22.2759    8.2083    5.7557 H         1 SAH1699     0.0000 
     43 H         -21.3655    7.1316    4.9824 H         1 SAH1699     0.0000 
     44 H         -21.8071    6.8652    6.5056 H         1 SAH1699     0.0000 
     45 H         -21.6540   13.2502    7.0917 H         1 SAH1699     0.0000 
     46 H         -22.5051   15.2737    7.7521 H         1 SAH1699     0.0000 
@<TRIPOS>BOND
     1    2    1 1    
     2   42    1 1    
     3   43    1 1    
     4   44    1 1    
     5    3    2 1    
     6    6    2 1    
     7   27    2 1    
     8    4    3 1    
     9   28    3 1    
    10   29    3 1    
    11    5    4 1    
    12   30    4 1    
    13   31    4 1    
    14    9    5 1    
    15    7    6 ar   
    16    8    6 ar   
    17   10    9 1    
    18   32    9 1    
    19   33    9 1    
    20   11   10 1    
    21   12   10 1    
    22   34   10 1    
    23   16   11 1    
    24   13   12 1    
    25   14   12 1    
    26   35   12 1    
    27   45   13 1    
    28   15   14 1    
    29   16   14 1    
    30   36   14 1    
    31   46   15 1    
    32   17   16 1    
    33   37   16 1    
    34   18   17 1    
    35   26   17 1    
    36   19   18 2    
    37   38   18 1    
    38   20   19 1    
    39   21   20 ar   
    40   26   20 ar   
    41   22   21 1    
    42   23   21 ar   
    43   39   22 1    
    44   40   22 1    
    45   24   23 ar   
    46   25   24 ar   
    47   41   24 1    
    48   26   25 ar   
@<TRIPOS>SUBSTRUCTURE
     1 SAH1699     1 GROUP   
@<TRIPOS>SET

