#    Name: 4kak_06U_2_INTS_M
#    Modification time : Tue Mar 25 07:38:34 2014

@<TRIPOS>MOLECULE
4kak_06U_2_INTS_M
   74     0     9     0     0
SMALL
NO_CHARGES


@<TRIPOS>ATOM
      1 CA          1.2235  -25.4960    6.1275 C.3       3 GLC5        0.0000 
      2 CA          2.4010  -27.1650    6.1430 C.3       9 GLL5        0.0000 
      3 CA          0.0460  -23.8270    6.1120 C.3       6 GLP5        0.0000 
      4 CA          3.4630  -25.5365    5.5360 C.3       3 GLC5        0.0000 
      5 CA          4.5250  -23.9080    4.9290 C.3       6 GLP5        0.0000 
      6 CA          4.2215  -27.4185    6.8070 C.3       3 GLC5        0.0000 
      7 CA          6.0420  -27.6720    7.4710 C.3       6 GLP5        0.0000 
      8 CA          0.5150  -28.0085    6.1440 C.3       3 GLC5        0.0000 
      9 CA         -1.3710  -28.8520    6.1450 C.3       6 GLP5        0.0000 
     10 N           2.7525  -29.1940    7.3170 N.am      2 SEC2        0.0000 
     11 N           2.5370  -28.5030    6.0980 N.am      8 SEL2        0.0000 
     12 N           2.9680  -29.8850    8.5360 N.am      5 SEP2        0.0000 
     13 CA          0.8520  -25.4190    3.7445 C.3       3 GLC5        0.0000 
     14 CA          2.2470  -27.0570    3.8320 C.3       9 GLL5        0.0000 
     15 CA         -0.5430  -23.7810    3.6570 C.3       6 GLP5        0.0000 
     16 CA          3.3860  -25.4825    4.3805 C.3       3 GLC5        0.0000 
     17 O           2.4615  -27.2715    8.4615 O.2       1 ALC1        0.0000 
     18 O           2.4110  -26.5300    7.3070 O.2       7 ALL1        0.0000 
     19 O           2.5120  -28.0130    9.6160 O.2       4 ALP1        0.0000 
     20 O           2.2680  -25.1345    8.2455 O.2       1 ALC1        0.0000 
     21 O           2.1250  -23.7390    9.1840 O.2       4 ALP1        0.0000 
     22 CA          4.2675  -32.0415    4.5945 C.3       3 GLC5        0.0000 
     23 CA          2.6660  -30.5450    4.8860 C.3       9 GLL5        0.0000 
     24 CA          5.8690  -33.5380    4.3030 C.3       6 GLP5        0.0000 
     25 O           2.2870  -24.9175    2.8750 O.2       1 ALC1        0.0000 
     26 O           2.1080  -26.3870    2.6870 O.2       7 ALL1        0.0000 
     27 O           2.4660  -23.4480    3.0630 O.2       4 ALP1        0.0000 
     28 CA          0.5595  -28.1945    2.5720 C.3       3 GLC5        0.0000 
     29 CA          2.3420  -29.0500    2.4490 C.3       9 GLL5        0.0000 
     30 CA         -1.2230  -27.3390    2.6950 C.3       6 GLP5        0.0000 
     31 CA          0.2625  -28.9410    1.6345 C.3       3 GLC5        0.0000 
     32 CA          2.3180  -29.5370    1.3380 C.3       9 GLL5        0.0000 
     33 CA         -1.7930  -28.3450    1.9310 C.3       6 GLP5        0.0000 
     34 CA         -0.3930  -28.9880    0.6035 C.3       3 GLC5        0.0000 
     35 CA          1.0070  -29.6310   -0.7240 C.3       9 GLL5        0.0000 
     36 CA          0.6795  -31.2130   -2.0865 C.3       3 GLC5        0.0000 
     37 CA          0.3520  -32.7950   -3.4490 C.3       6 GLP5        0.0000 
     38 CA          0.3015  -27.7650   -1.2810 C.3       3 GLC5        0.0000 
     39 CA         -0.4040  -25.8990   -1.8380 C.3       6 GLP5        0.0000 
     40 CA          1.9095  -34.6920   -1.6955 C.3       3 GLC5        0.0000 
     41 CA          2.4440  -34.2850    0.2870 C.3       9 GLL5        0.0000 
     42 CA          1.3750  -35.0990   -3.6780 C.3       6 GLP5        0.0000 
     43 CA          1.8050  -35.8825   -0.8475 C.3       3 GLC5        0.0000 
     44 CA          1.1660  -37.4800   -1.9820 C.3       6 GLP5        0.0000 
     45 CA         -2.9975  -36.3800   -0.2865 C.3       3 GLC5        0.0000 
     46 CA         -2.2090  -35.0150    1.0500 C.3       9 GLL5        0.0000 
     47 CA         -3.7860  -37.7450   -1.6230 C.3       6 GLP5        0.0000 
     48 CA         -2.1865  -37.2685   -0.2005 C.3       3 GLC5        0.0000 
     49 CA         -0.5870  -36.7920    1.2220 C.3       9 GLL5        0.0000 
     50 CA          0.1010  -32.6035    5.2090 C.3       3 GLC5        0.0000 
     51 CA          1.3520  -31.2410    5.2270 C.3       9 GLL5        0.0000 
     52 CA         -1.1500  -33.9660    5.1910 C.3       6 GLP5        0.0000 
     53 CA         -0.0095  -30.0465    5.6860 C.3       3 GLC5        0.0000 
     54 CA          2.9385  -36.5325   -0.9990 C.3       3 GLC5        0.0000 
     55 CA          4.7110  -35.5850   -0.0160 C.3       9 GLL5        0.0000 
     56 CA          0.5360  -28.8225    5.2380 C.3       3 GLC5        0.0000 
     57 CA          2.3630  -28.4310    3.7430 C.3       9 GLL5        0.0000 
     58 CA         -0.3972  -35.0180   -1.1402 C.3       3 GLC5        0.0000 
     59 CA          0.1370  -34.5220    0.7320 C.3       9 GLL5        0.0000 
     60 CA         -1.0730  -34.8410   -3.1270 C.3       6 GLP5        0.0000 
     61 CA          3.7155  -28.4318    1.3782 C.3       3 GLC5        0.0000 
     62 CA          5.1010  -27.5700    0.8630 C.3       6 GLP5        0.0000 
     63 CA          2.3620  -29.1707   -2.0160 C.3       3 GLC5        0.0000 
     64 CA          2.2750  -30.1260   -0.0280 C.3       9 GLL5        0.0000 
     65 CA          3.0830  -28.4630   -3.6560 C.3       6 GLP5        0.0000 
     66 CA          3.3300  -28.8453   -0.4415 C.3       3 GLC5        0.0000 
     67 CA          5.0190  -27.8120   -0.5070 C.3       6 GLP5        0.0000 
     68 CA          0.9037  -32.7884   -1.5493 C.3       3 GLC5        0.0000 
     69 CA          2.2760  -31.5260    0.0780 C.3       9 GLL5        0.0000 
     70 CA         -1.3850  -34.6980   -1.0990 C.3       3 GLC5        0.0000 
     71 CA         -1.1850  -34.0950    0.8080 C.3       9 GLL5        0.0000 
     72 CA         -2.7235  -33.4500   -0.2575 C.3       3 GLC5        0.0000 
     73 CA         -3.7500  -32.3450   -1.4440 C.3       6 GLP5        0.0000 
     74 CA          0.5059  -36.7368   -0.4739 C.3       3 GLC5        0.0000 
@<TRIPOS>BOND
@<TRIPOS>SUBSTRUCTURE
     1 ALC1       17 GROUP        1 X    ALC  0     ROOT ALC X 1
     2 SEC2       10 GROUP        1 X    SEC  0     **** SEC X 2
     3 GLC5        1 GROUP        1 X    GLC  0     **** GLC X 6
     4 ALP1       19 GROUP        1 Y    ALP  0     ROOT ALP Y 8
     5 SEP2       12 GROUP        1 Y    SEP  0     **** SEP Y 9
     6 GLP5        3 GROUP        1 Y    GLP  0     **** GLP Y 13
     7 ALL1       18 GROUP        1 Z    ALL  0     ROOT ALL Z 15
     8 SEL2       11 GROUP        1 Z    SEL  0     **** SEL Z 16
     9 GLL5        2 GROUP        1 Z    GLL  0     **** GLL Z 20
@<TRIPOS>SET

