#    Name: 4kak_06U_2_ligand
#    Modification time : Tue Mar 25 07:38:34 2014

@<TRIPOS>MOLECULE
4kak_06U_2_ligand
   51    53     1     0     0
SMALL
NO_CHARGES


@<TRIPOS>ATOM
      1 N1          2.2570  -26.4440    5.0230 N.ar      1 06U202      0.0000 
      2 C2          2.4010  -27.1650    6.1430 C.ar      1 06U202      0.0000 
      3 N3          2.5370  -28.5030    6.0980 N.ar      1 06U202      0.0000 
      4 C4          2.5230  -29.1550    4.9190 C.ar      1 06U202      0.0000 
      5 C5          2.3630  -28.4310    3.7430 C.ar      1 06U202      0.0000 
      6 C6          2.2470  -27.0570    3.8320 C.ar      1 06U202      0.0000 
      7 CAA         0.4200  -35.8680    0.9610 C.ar      1 06U202      0.0000 
      8 NAH         2.4110  -26.5300    7.3070 N.pl3     1 06U202      0.0000 
      9 CAI         2.6660  -30.5450    4.8860 C.3       1 06U202      0.0000 
     10 NAJ         2.1080  -26.3870    2.6870 N.pl3     1 06U202      0.0000 
     11 CAK         2.3420  -29.0500    2.4490 C.1       1 06U202      0.0000 
     12 CAL         2.3180  -29.5370    1.3380 C.1       1 06U202      0.0000 
     13 CAM         2.2750  -30.1260   -0.0280 C.3       1 06U202      0.0000 
     14 CAN         1.0070  -29.6310   -0.7240 C.3       1 06U202      0.0000 
     15 CAO         2.2760  -31.5260    0.0780 C.ar      1 06U202      0.0000 
     16 CAP         3.4950  -32.1700   -0.0960 C.ar      1 06U202      0.0000 
     17 CAQ         3.5880  -33.5500    0.0140 C.ar      1 06U202      0.0000 
     18 CAR         2.4440  -34.2850    0.2870 C.ar      1 06U202      0.0000 
     19 CAS         1.2140  -33.6650    0.4860 C.ar      1 06U202      0.0000 
     20 CAT         1.1180  -32.2710    0.3520 C.ar      1 06U202      0.0000 
     21 CAU         0.1370  -34.5220    0.7320 C.ar      1 06U202      0.0000 
     22 CAV        -1.1850  -34.0950    0.8080 C.ar      1 06U202      0.0000 
     23 CAW        -2.2090  -35.0150    1.0500 C.ar      1 06U202      0.0000 
     24 NAX        -1.9160  -36.3670    1.2730 N.ar      1 06U202      0.0000 
     25 CAY        -0.5870  -36.7920    1.2220 C.ar      1 06U202      0.0000 
     26 CAZ         1.3520  -31.2410    5.2270 C.3       1 06U202      0.0000 
     27 OBA         4.7960  -34.1610   -0.1670 O.3       1 06U202      0.0000 
     28 CBB         4.7110  -35.5850   -0.0160 C.3       1 06U202      0.0000 
     29 H           1.4085  -36.1879    0.9358 H         1 06U202      0.0000 
     30 H           2.3172  -25.5352    7.2664 H         1 06U202      0.0000 
     31 H           2.5115  -27.1033    8.1201 H         1 06U202      0.0000 
     32 H           3.4233  -30.9062    5.6066 H         1 06U202      0.0000 
     33 H           2.9806  -30.9110    3.8908 H         1 06U202      0.0000 
     34 H           2.4828  -25.4600    2.6713 H         1 06U202      0.0000 
     35 H           1.6415  -26.8719    1.9472 H         1 06U202      0.0000 
     36 H           3.1216  -29.7607   -0.5864 H         1 06U202      0.0000 
     37 H           4.3402  -31.6148   -0.3094 H         1 06U202      0.0000 
     38 H           2.5043  -35.3202    0.3446 H         1 06U202      0.0000 
     39 H           0.2177  -31.8048    0.4525 H         1 06U202      0.0000 
     40 H          -1.4125  -33.0993    0.6860 H         1 06U202      0.0000 
     41 H          -3.1886  -34.6978    1.0649 H         1 06U202      0.0000 
     42 H          -0.3571  -37.7781    1.3760 H         1 06U202      0.0000 
     43 H           0.9918  -28.6343   -0.8033 H         1 06U202      0.0000 
     44 H           0.9233  -30.0000   -1.6497 H         1 06U202      0.0000 
     45 H           0.1818  -29.8980   -0.2263 H         1 06U202      0.0000 
     46 H           1.4436  -32.2366    5.2093 H         1 06U202      0.0000 
     47 H           1.0261  -30.9928    6.1392 H         1 06U202      0.0000 
     48 H           0.6267  -31.0019    4.5815 H         1 06U202      0.0000 
     49 H           5.5990  -36.0260   -0.1463 H         1 06U202      0.0000 
     50 H           4.3862  -35.8433    0.8938 H         1 06U202      0.0000 
     51 H           4.0818  -35.9918   -0.6783 H         1 06U202      0.0000 
@<TRIPOS>BOND
     1    2    1 ar   
     2    6    1 ar   
     3    3    2 ar   
     4    8    2 1    
     5    4    3 ar   
     6    5    4 ar   
     7    9    4 1    
     8    6    5 ar   
     9   11    5 1    
    10   10    6 1    
    11   21    7 ar   
    12   25    7 ar   
    13   29    7 1    
    14   30    8 1    
    15   31    8 1    
    16   26    9 1    
    17   32    9 1    
    18   33    9 1    
    19   34   10 1    
    20   35   10 1    
    21   12   11 3    
    22   13   12 1    
    23   14   13 1    
    24   15   13 1    
    25   36   13 1    
    26   43   14 1    
    27   44   14 1    
    28   45   14 1    
    29   16   15 ar   
    30   20   15 ar   
    31   17   16 ar   
    32   37   16 1    
    33   18   17 ar   
    34   27   17 1    
    35   19   18 ar   
    36   38   18 1    
    37   20   19 ar   
    38   21   19 1    
    39   39   20 1    
    40   22   21 ar   
    41   23   22 ar   
    42   40   22 1    
    43   24   23 ar   
    44   41   23 1    
    45   25   24 ar   
    46   42   25 1    
    47   46   26 1    
    48   47   26 1    
    49   48   26 1    
    50   28   27 1    
    51   49   28 1    
    52   50   28 1    
    53   51   28 1    
@<TRIPOS>SUBSTRUCTURE
     1 06U202      1 GROUP   
@<TRIPOS>SET

