#    Name: 2ihu_TP9_1_INTS_M
#    Modification time : Tue Mar 25 18:07:19 2014

@<TRIPOS>MOLECULE
2ihu_TP9_1_INTS_M
   83     0    12     0     0
SMALL
NO_CHARGES


@<TRIPOS>ATOM
      1 N          31.3180   61.8240   21.6035 N.am      2 SEC2        0.0000 
      2 N          29.8670   61.7330   20.6920 N.am     10 SEL2        0.0000 
      3 N          32.7690   61.9150   22.5150 N.am      6 SEP2        0.0000 
      4 CA         30.7110   63.3835   20.2170 C.3       4 GLC5        0.0000 
      5 CA         28.7560   62.3690   20.2590 C.3      12 GLL5        0.0000 
      6 CA         32.6660   64.3980   20.1750 C.3       8 GLP5        0.0000 
      7 CA         26.5205   63.4970   19.5695 C.3       4 GLC5        0.0000 
      8 CA         27.6200   62.6320   21.2080 C.3      12 GLL5        0.0000 
      9 CA         25.4210   64.3620   17.9310 C.3       8 GLP5        0.0000 
     10 CA         27.2080   61.1625   20.4770 C.3       4 GLC5        0.0000 
     11 CA         26.7960   59.6930   19.7460 C.3       8 GLP5        0.0000 
     12 CA         27.2020   64.6145   20.9725 C.3       4 GLC5        0.0000 
     13 CA         26.7840   66.5970   20.7370 C.3       8 GLP5        0.0000 
     14 N          27.2860   62.3915   18.2835 N.am      2 SEC2        0.0000 
     15 N          28.6570   62.7740   18.9710 N.am     10 SEL2        0.0000 
     16 N          25.9150   62.0090   17.5960 N.am      6 SEP2        0.0000 
     17 CA         28.1940   61.1270   17.6460 C.3       4 GLC5        0.0000 
     18 CA         29.6820   62.5730   18.1030 C.3      12 GLL5        0.0000 
     19 CA         26.7060   59.6810   17.1890 C.3       8 GLP5        0.0000 
     20 O          28.4855   63.9305   16.4670 O.2       1 ALC1        0.0000 
     21 O          29.5360   63.0190   16.8270 O.2       9 ALL1        0.0000 
     22 O          27.4350   64.8420   16.1070 O.2       5 ALP1        0.0000 
     23 CA         31.6265   59.8585   20.7220 C.3       4 GLC5        0.0000 
     24 CA         30.8960   61.4920   19.8700 C.3      12 GLL5        0.0000 
     25 CA         32.3570   58.2250   21.5740 C.3       8 GLP5        0.0000 
     26 CA         33.4815   60.8150   16.3480 C.3       4 GLC5        0.0000 
     27 CA         32.0150   61.6350   17.6390 C.3      12 GLL5        0.0000 
     28 CA         34.9480   59.9950   15.0570 C.3       8 GLP5        0.0000 
     29 CA         33.8150   61.8005   17.7775 C.3       4 GLC5        0.0000 
     30 CA         35.6150   61.9660   17.9160 C.3       8 GLP5        0.0000 
     31 CA         32.3405   63.0165   18.9070 C.3       4 GLC5        0.0000 
     32 CA         29.3230   61.0100   13.7270 C.3       4 GLC5        0.0000 
     33 CA         30.8900   59.8020   14.1030 C.3      12 GLL5        0.0000 
     34 CA         27.7560   62.2180   13.3510 C.3       8 GLP5        0.0000 
     35 CA         29.9750   59.2740   12.6085 C.3       4 GLC5        0.0000 
     36 CA         29.0600   58.7460   11.1140 C.3       8 GLP5        0.0000 
     37 CA         31.7405   60.4675   12.4175 C.3       4 GLC5        0.0000 
     38 CA         32.5910   61.1330   10.7320 C.3       8 GLP5        0.0000 
     39 CA         32.9190   59.8985   14.5800 C.3       4 GLC5        0.0000 
     40 CA         32.7355   56.7340   17.1250 C.3       4 GLC5        0.0000 
     41 CA         31.9270   58.6030   17.8190 C.3      12 GLL5        0.0000 
     42 CA         33.5440   54.8650   16.4310 C.3       8 GLP5        0.0000 
     43 CA         32.1420   58.4140   19.6965 C.3       4 GLC5        0.0000 
     44 CA         29.4610   57.7815   16.9880 C.3       4 GLC5        0.0000 
     45 CA         30.6900   57.3470   15.4490 C.3      12 GLL5        0.0000 
     46 CA         28.2320   58.2160   18.5270 C.3       8 GLP5        0.0000 
     47 CA         32.1170   56.1060   15.9400 C.3       4 GLC5        0.0000 
     48 CA         29.6655   57.7935   12.5925 C.3       4 GLC5        0.0000 
     49 CA         30.2710   56.8410   14.0710 C.3      12 GLL5        0.0000 
     50 CA         31.6990   55.4260   14.6415 C.3       4 GLC5        0.0000 
     51 CA         33.1270   54.0110   15.2120 C.3       8 GLP5        0.0000 
     52 N          30.7250   54.9985   15.7165 N.am      2 SEC2        0.0000 
     53 N          30.1300   55.4120   14.1270 N.am     10 SEL2        0.0000 
     54 N          31.3200   54.5850   17.3060 N.am      6 SEP2        0.0000 
     55 Zn         29.6170   52.4335   12.9845 Zn        3 ZIC7        0.0000 
     56 Zn         29.0890   53.1920   13.5200 Zn       11 ZIL7        0.0000 
     57 Zn         30.1450   51.6750   12.4490 Zn        7 ZIP7        0.0000 
     58 N          28.3820   52.8715   14.6975 N.am      2 SEC2        0.0000 
     59 N          29.0890   53.1920   13.5200 N.am     10 SEL2        0.0000 
     60 N          27.6750   52.5510   15.8750 N.am      6 SEP2        0.0000 
     61 N          27.1460   55.2740   15.1840 N.am      2 SEC2        0.0000 
     62 N          27.6010   55.3010   13.8530 N.am     10 SEL2        0.0000 
     63 N          26.6910   55.2470   16.5150 N.am      6 SEP2        0.0000 
     64 N          29.3160   55.8375    8.3640 N.am      2 SEC2        0.0000 
     65 N          29.7220   54.6910    9.5800 N.am     10 SEL2        0.0000 
     66 N          28.9100   56.9840    7.1480 N.am      6 SEP2        0.0000 
     67 N          30.8830   56.9800   10.1230 N.am      2 SEC2        0.0000 
     68 N          31.3340   55.9640   10.9770 N.am     10 SEL2        0.0000 
     69 N          30.4320   57.9960    9.2690 N.am      6 SEP2        0.0000 
     70 N          32.6650   56.1765   11.0695 N.am      2 SEC2        0.0000 
     71 N          33.9960   56.3890   11.1620 N.am      6 SEP2        0.0000 
     72 Zn         30.5440   52.5735   11.9450 Zn        3 ZIC7        0.0000 
     73 Zn         30.9430   53.4720   11.4410 Zn       11 ZIL7        0.0000 
     74 N          32.1625   53.7570   12.1235 N.am      2 SEC2        0.0000 
     75 N          30.9430   53.4720   11.4410 N.am     10 SEL2        0.0000 
     76 N          33.3820   54.0420   12.8060 N.am      6 SEP2        0.0000 
     77 CA         29.2820   63.7268   21.9492 C.3       4 GLC5        0.0000 
     78 CA         30.3760   64.9530   23.1650 C.3       8 GLP5        0.0000 
     79 CA         31.6209   63.1320   19.6358 C.3       4 GLC5        0.0000 
     80 CA         29.9185   58.5341   17.7276 C.3       4 GLC5        0.0000 
     81 CA         31.5100   59.3850   16.5990 C.3      12 GLL5        0.0000 
     82 CA         33.3260   58.7201   16.3176 C.3       4 GLC5        0.0000 
     83 CA         35.0470   58.5880   15.7070 C.3       8 GLP5        0.0000 
@<TRIPOS>BOND
@<TRIPOS>SUBSTRUCTURE
     1 ALC1       20 GROUP        1 X    ALC  0     ROOT ALC X 1
     2 SEC2        1 GROUP        1 X    SEC  0     **** SEC X 2
     3 ZIC7       55 GROUP        1 X    ZIC  0     **** ZIC X 5
     4 GLC5        4 GROUP        1 X    GLC  0     **** GLC X 6
     5 ALP1       22 GROUP        1 Y    ALP  0     ROOT ALP Y 8
     6 SEP2        3 GROUP        1 Y    SEP  0     **** SEP Y 9
     7 ZIP7       57 GROUP        1 Y    ZIP  0     **** ZIP Y 12
     8 GLP5        6 GROUP        1 Y    GLP  0     **** GLP Y 13
     9 ALL1       21 GROUP        1 Z    ALL  0     ROOT ALL Z 15
    10 SEL2        2 GROUP        1 Z    SEL  0     **** SEL Z 16
    11 ZIL7       56 GROUP        1 Z    ZIL  0     **** ZIL Z 19
    12 GLL5        5 GROUP        1 Z    GLL  0     **** GLL Z 20
@<TRIPOS>SET

