#    Name: 2ihu_TP9_1_ligand
#    Modification time : Tue Mar 25 18:07:19 2014

@<TRIPOS>MOLECULE
2ihu_TP9_1_ligand
   40    40     1     0     0
SMALL
NO_CHARGES


@<TRIPOS>ATOM
      1 N1'        29.8670   61.7330   20.6920 N.ar      1 TP9600      0.0000 
      2 C2'        28.7560   62.3690   20.2590 C.ar      1 TP9600      0.0000 
      3 CM2        27.6200   62.6320   21.2080 C.3       1 TP9600      0.0000 
      4 N3'        28.6570   62.7740   18.9710 N.ar      1 TP9600      0.0000 
      5 C4'        29.6820   62.5730   18.1030 C.ar      1 TP9600      0.0000 
      6 N4'        29.5360   63.0190   16.8270 N.pl3     1 TP9600      0.0000 
      7 C5'        30.8290   61.9070   18.5430 C.ar      1 TP9600      0.0000 
      8 C6'        30.8960   61.4920   19.8700 C.ar      1 TP9600      0.0000 
      9 C7'        32.0150   61.6350   17.6390 C.3       1 TP9600      0.0000 
     10 N3         31.5850   60.7220   16.5960 N.4       1 TP9600      0.0000 
     11 S1         30.8900   59.8020   14.1030 S.3       1 TP9600      0.0000 
     12 C5         31.0560   58.8180   15.4760 C.2       1 TP9600      0.0000 
     13 C4         31.5100   59.3850   16.5990 C.2       1 TP9600      0.0000 
     14 CM4        31.9270   58.6030   17.8190 C.3       1 TP9600      0.0000 
     15 C6         30.6900   57.3470   15.4490 C.3       1 TP9600      0.0000 
     16 C7         30.2710   56.8410   14.0710 C.3       1 TP9600      0.0000 
     17 O7         30.1300   55.4120   14.1270 O.3       1 TP9600      0.0000 
     18 PA         28.8990   54.6870   13.3980 P.3       1 TP9600      0.0000 
     19 O1A        29.0890   53.1920   13.5200 O.co2     1 TP9600      0.0000 
     20 O2A        27.6010   55.3010   13.8530 O.co2     1 TP9600      0.0000 
     21 O3A        29.1170   55.1510   11.8630 O.3       1 TP9600      0.0000 
     22 PB         30.3920   54.7920   10.9230 P.3       1 TP9600      0.0000 
     23 O1B        29.7220   54.6910    9.5800 O.co2     1 TP9600      0.0000 
     24 O2B        31.3340   55.9640   10.9770 O.co2     1 TP9600      0.0000 
     25 O3B        30.9430   53.4720   11.4410 O.co2     1 TP9600      0.0000 
     26 H          30.3006   62.8395   16.2080 H         1 TP9600      0.0000 
     27 H          28.6769   63.4872   16.6201 H         1 TP9600      0.0000 
     28 H          31.7467   61.0019   20.1960 H         1 TP9600      0.0000 
     29 H          32.8139   61.2018   18.2361 H         1 TP9600      0.0000 
     30 H          32.3551   62.5790   17.2198 H         1 TP9600      0.0000 
     31 H          29.8660   57.1653   16.1596 H         1 TP9600      0.0000 
     32 H          31.5510   56.7526   15.7987 H         1 TP9600      0.0000 
     33 H          31.0359   57.1422   13.3537 H         1 TP9600      0.0000 
     34 H          29.3320   57.3280   13.8036 H         1 TP9600      0.0000 
     35 H          27.9043   63.2022   21.9787 H         1 TP9600      0.0000 
     36 H          26.8619   63.1041   20.7581 H         1 TP9600      0.0000 
     37 H          27.2519   61.7846   21.5905 H         1 TP9600      0.0000 
     38 H          32.8849   58.7661   18.0552 H         1 TP9600      0.0000 
     39 H          31.3817   58.8472   18.6209 H         1 TP9600      0.0000 
     40 H          31.8225   57.6179   17.6823 H         1 TP9600      0.0000 
@<TRIPOS>BOND
     1    2    1 ar   
     2    8    1 ar   
     3    3    2 1    
     4    4    2 ar   
     5   35    3 1    
     6   36    3 1    
     7   37    3 1    
     8    5    4 ar   
     9    6    5 1    
    10    7    5 ar   
    11   26    6 1    
    12   27    6 1    
    13    8    7 ar   
    14    9    7 1    
    15   28    8 1    
    16   10    9 1    
    17   29    9 1    
    18   30    9 1    
    19   13   10 1    
    20   12   11 1    
    21   13   12 2    
    22   15   12 1    
    23   14   13 1    
    24   38   14 1    
    25   39   14 1    
    26   40   14 1    
    27   16   15 1    
    28   31   15 1    
    29   32   15 1    
    30   17   16 1    
    31   33   16 1    
    32   34   16 1    
    33   18   17 1    
    34   19   18 ar   
    35   20   18 ar   
    36   21   18 1    
    37   22   21 1    
    38   23   22 ar   
    39   24   22 ar   
    40   25   22 ar   
@<TRIPOS>SUBSTRUCTURE
     1 TP9600      1 GROUP   
@<TRIPOS>SET

