#    Name: 3nv6_CAM_1_INTS_M
#    Modification time : Tue Mar 25 02:41:19 2014

@<TRIPOS>MOLECULE
3nv6_CAM_1_INTS_M
   22     0     3     0     0
SMALL
NO_CHARGES


@<TRIPOS>ATOM
      1 CA          0.3065   27.4050   13.8385 C.3       1 GLC5        0.0000 
      2 CA          2.4150   28.0660   13.9810 C.3       3 GLL5        0.0000 
      3 CA         -1.8020   26.7440   13.6960 C.3       2 GLP5        0.0000 
      4 CA          3.1125   23.7015   13.7635 C.3       1 GLC5        0.0000 
      5 CA          2.9830   25.6980   13.6320 C.3       3 GLL5        0.0000 
      6 CA          3.2420   21.7050   13.8950 C.3       2 GLP5        0.0000 
      7 CA          5.1405   27.2825   17.4695 C.3       1 GLC5        0.0000 
      8 CA          4.4380   28.4490   15.7120 C.3       3 GLL5        0.0000 
      9 CA          5.8430   26.1160   19.2270 C.3       2 GLP5        0.0000 
     10 CA          5.2930   29.4820   16.8710 C.3       1 GLC5        0.0000 
     11 CA          6.1480   30.5150   18.0300 C.3       2 GLP5        0.0000 
     12 CA          7.0715   26.4865   15.7985 C.3       1 GLC5        0.0000 
     13 CA          4.9460   25.9670   15.6980 C.3       3 GLL5        0.0000 
     14 CA          9.1970   27.0060   15.8990 C.3       2 GLP5        0.0000 
     15 CA          6.4010   24.5965   16.1490 C.3       1 GLC5        0.0000 
     16 CA          7.8560   23.2260   16.6000 C.3       2 GLP5        0.0000 
     17 CA          5.3945   26.0415   17.4625 C.3       1 GLC5        0.0000 
     18 CA          7.6515   27.4185   14.5570 C.3       1 GLC5        0.0000 
     19 CA          6.1060   27.8310   13.2150 C.3       3 GLL5        0.0000 
     20 CA          2.7162   24.9420   11.5855 C.3       1 GLC5        0.0000 
     21 CA          4.2700   25.9680   12.8660 C.3       3 GLL5        0.0000 
     22 CA          1.8060   24.0510    9.9220 C.3       2 GLP5        0.0000 
@<TRIPOS>BOND
@<TRIPOS>SUBSTRUCTURE
     1 GLC5        1 GROUP        1 X    GLC  0     ROOT GLC X 6
     2 GLP5        3 GROUP        1 Y    GLP  0     ROOT GLP Y 13
     3 GLL5        2 GROUP        1 Z    GLL  0     ROOT GLL Z 20
@<TRIPOS>SET

