#    Name: 3nv6_CAM_1_ligand
#    Modification time : Tue Mar 25 02:41:19 2014

@<TRIPOS>MOLECULE
3nv6_CAM_1_ligand
   27    28     1     0     0
SMALL
NO_CHARGES


@<TRIPOS>ATOM
      1 C1          4.7070   27.2810   13.5120 C.3       1 CAM422      0.0000 
      2 C2          3.5720   28.1220   13.0340 C.2       1 CAM422      0.0000 
      3 O           3.5430   28.7640   11.8040 O.2       1 CAM422      0.0000 
      4 C3          2.4150   28.0660   13.9810 C.3       1 CAM422      0.0000 
      5 C4          2.8580   26.8050   14.7010 C.3       1 CAM422      0.0000 
      6 C5          2.9830   25.6980   13.6320 C.3       1 CAM422      0.0000 
      7 C6          4.2700   25.9680   12.8660 C.3       1 CAM422      0.0000 
      8 C7          4.3150   27.1340   14.9640 C.3       1 CAM422      0.0000 
      9 C8          4.4380   28.4490   15.7120 C.3       1 CAM422      0.0000 
     10 C9          4.9460   25.9670   15.6980 C.3       1 CAM422      0.0000 
     11 C10         6.1060   27.8310   13.2150 C.3       1 CAM422      0.0000 
     12 H           1.5298   27.8882   13.4707 H         1 CAM422      0.0000 
     13 H           2.4350   28.8709   14.6347 H         1 CAM422      0.0000 
     14 H           2.3598   26.5675   15.4817 H         1 CAM422      0.0000 
     15 H           2.1433   25.7539   12.9692 H         1 CAM422      0.0000 
     16 H           3.0389   24.7453   14.1184 H         1 CAM422      0.0000 
     17 H           4.9746   25.2185   13.0692 H         1 CAM422      0.0000 
     18 H           4.0595   26.1226   11.8505 H         1 CAM422      0.0000 
     19 H           5.3733   28.8021   15.6910 H         1 CAM422      0.0000 
     20 H           3.8490   29.1557   15.3200 H         1 CAM422      0.0000 
     21 H           4.1819   28.3544   16.6740 H         1 CAM422      0.0000 
     22 H           5.9442   26.0274   15.7030 H         1 CAM422      0.0000 
     23 H           4.6501   25.9247   16.6523 H         1 CAM422      0.0000 
     24 H           4.7074   25.0914   15.2781 H         1 CAM422      0.0000 
     25 H           6.8238   27.2232   13.5546 H         1 CAM422      0.0000 
     26 H           6.2593   27.9458   12.2335 H         1 CAM422      0.0000 
     27 H           6.2522   28.7239   13.6409 H         1 CAM422      0.0000 
@<TRIPOS>BOND
     1    2    1 1    
     2    7    1 1    
     3    8    1 1    
     4   11    1 1    
     5    3    2 2    
     6    4    2 1    
     7    5    4 1    
     8   12    4 1    
     9   13    4 1    
    10    6    5 1    
    11    8    5 1    
    12   14    5 1    
    13    7    6 1    
    14   15    6 1    
    15   16    6 1    
    16   17    7 1    
    17   18    7 1    
    18    9    8 1    
    19   10    8 1    
    20   19    9 1    
    21   20    9 1    
    22   21    9 1    
    23   22   10 1    
    24   23   10 1    
    25   24   10 1    
    26   25   11 1    
    27   26   11 1    
    28   27   11 1    
@<TRIPOS>SUBSTRUCTURE
     1 CAM422      1 GROUP   
@<TRIPOS>SET

