#    Name: 2b0m_201_1_INTS_M
#    Modification time : Mon Mar 24 19:46:28 2014

@<TRIPOS>MOLECULE
2b0m_201_1_INTS_M
   72     0    12     0     0
SMALL
NO_CHARGES


@<TRIPOS>ATOM
      1 CA        -35.7265  -14.7085    4.3860 C.3       4 GLC5        0.0000 
      2 CA        -34.5050  -16.0160    3.2950 C.3      12 GLL5        0.0000 
      3 CA        -36.9480  -13.4010    5.4770 C.3       8 GLP5        0.0000 
      4 CA        -29.2130   -4.3850    0.2805 C.3       4 GLC5        0.0000 
      5 CA        -30.9760   -5.2500    0.8230 C.3      12 GLL5        0.0000 
      6 CA        -27.4500   -3.5200   -0.2620 C.3       8 GLP5        0.0000 
      7 N         -35.3325  -16.8910   -1.2450 N.am      2 SEC2        0.0000 
      8 N         -35.1230  -15.9650   -0.3280 N.am     10 SEL2        0.0000 
      9 N         -35.5420  -17.8170   -2.1620 N.am      6 SEP2        0.0000 
     10 O         -35.5965  -17.7210   -0.5290 O.2       1 ALC1        0.0000 
     11 O         -35.6510  -17.6250    1.1040 O.2       9 ALL1        0.0000 
     12 O         -35.5420  -17.8170   -2.1620 O.2       5 ALP1        0.0000 
     13 NZ        -35.0790  -16.2545    7.2510 N.4       3 LYC4        0.0000 
     14 NZ        -34.3620  -16.9380    5.9960 N.4      11 LYL4        0.0000 
     15 NZ        -35.5050  -16.7230    9.0930 N.4       7 LYP4        0.0000 
     16 N         -34.6460  -17.3185    7.1980 N.am      2 SEC2        0.0000 
     17 N         -34.3620  -16.9380    5.9960 N.am     10 SEL2        0.0000 
     18 N         -34.9300  -17.6990    8.4000 N.am      6 SEP2        0.0000 
     19 N         -35.0790  -16.2545    7.2510 N.am      2 SEC2        0.0000 
     20 N         -35.7960  -15.5710    8.5060 N.am      6 SEP2        0.0000 
     21 NZ        -34.6180  -15.2875    7.6100 N.4       3 LYC4        0.0000 
     22 NZ        -33.4400  -15.0040    6.7140 N.4      11 LYL4        0.0000 
     23 N         -32.2210  -15.7070    7.2250 N.am      2 SEC2        0.0000 
     24 N         -33.4400  -15.0040    6.7140 N.am     10 SEL2        0.0000 
     25 N         -31.0020  -16.4100    7.7360 N.am      6 SEP2        0.0000 
     26 N         -34.6180  -15.2875    7.6100 N.am      2 SEC2        0.0000 
     27 CA        -32.6970  -16.3270    3.1473 C.3       4 GLC5        0.0000 
     28 CA        -33.9730  -15.2020    4.3460 C.3      12 GLL5        0.0000 
     29 CA        -31.1550  -17.0450    2.4740 C.3       8 GLP5        0.0000 
     30 CA        -31.7340  -12.8500    4.0055 C.3       4 GLC5        0.0000 
     31 CA        -33.4930  -13.8830    4.0420 C.3      12 GLL5        0.0000 
     32 CA        -29.9470  -12.0700    4.6380 C.3       8 GLP5        0.0000 
     33 CA        -31.8850  -14.7140    2.9320 C.3       4 GLC5        0.0000 
     34 CA        -30.2490  -15.7980    2.4910 C.3       8 GLP5        0.0000 
     35 CA        -35.2945  -13.6804    4.4630 C.3       4 GLC5        0.0000 
     36 CA        -33.5490  -13.3770    2.7040 C.3      12 GLL5        0.0000 
     37 CA        -34.6268  -12.2575    1.1603 C.3       4 GLC5        0.0000 
     38 CA        -35.4340  -10.7200    0.1340 C.3       8 GLP5        0.0000 
     39 CA        -36.1720  -14.3323    1.4925 C.3       4 GLC5        0.0000 
     40 CA        -34.0900  -14.2130    1.6690 C.3      12 GLL5        0.0000 
     41 CA        -38.0130  -13.7900    1.1730 C.3       8 GLP5        0.0000 
     42 CA        -33.0040  -16.0812    1.4365 C.3       4 GLC5        0.0000 
     43 CA        -34.5720  -15.5360    1.9550 C.3      12 GLL5        0.0000 
     44 CA        -31.6770  -17.2880    1.0610 C.3       8 GLP5        0.0000 
     45 CA        -31.6478  -11.7528    3.6772 C.3       4 GLC5        0.0000 
     46 CA        -33.0660  -12.0020    2.3790 C.3      12 GLL5        0.0000 
     47 CA        -34.3912  -11.0777    1.4252 C.3       4 GLC5        0.0000 
     48 CA        -33.6170  -10.0630    4.7263 C.3       4 GLC5        0.0000 
     49 CA        -33.6310  -10.8690    3.0540 C.3      12 GLL5        0.0000 
     50 CA        -33.8180   -9.9160    6.5500 C.3       8 GLP5        0.0000 
     51 CA        -34.0650  -10.0785    1.1957 C.3       4 GLC5        0.0000 
     52 CA        -33.2010   -9.5510    2.7510 C.3      12 GLL5        0.0000 
     53 CA        -29.9462   -9.2342    1.0835 C.3       4 GLC5        0.0000 
     54 CA        -32.1910   -9.3230    1.7640 C.3      12 GLL5        0.0000 
     55 CA        -27.9900   -8.5810    0.7430 C.3       8 GLP5        0.0000 
     56 CA        -30.8885  -11.5922    2.9370 C.3       4 GLC5        0.0000 
     57 CA        -31.6140  -10.4520    1.0840 C.3      12 GLL5        0.0000 
     58 CA        -33.6320  -10.9172    0.6850 C.3       4 GLC5        0.0000 
     59 CA        -32.0460  -11.7770    1.3880 C.3      12 GLL5        0.0000 
     60 CA        -30.5225  -12.1333   -0.1620 C.3       4 GLC5        0.0000 
     61 CA        -29.2150  -13.1520   -1.5600 C.3       8 GLP5        0.0000 
     62 CA        -29.6990   -8.0587    1.3357 C.3       4 GLC5        0.0000 
     63 CA        -31.7670   -7.9320    1.4490 C.3      12 GLL5        0.0000 
     64 CA        -29.5808   -6.6517    0.4830 C.3       4 GLC5        0.0000 
     65 CA        -30.6590   -5.8090    2.0910 C.3      12 GLL5        0.0000 
     66 CA        -28.3440   -7.7740   -0.4910 C.3       8 GLP5        0.0000 
     67 CA        -31.0380   -5.2180   -1.5467 C.3       4 GLC5        0.0000 
     68 CA        -30.7440   -4.8000   -3.4360 C.3       8 GLP5        0.0000 
     69 CA        -33.7248   -5.6653   -0.1007 C.3       4 GLC5        0.0000 
     70 CA        -31.6880   -6.0220   -0.1380 C.3      12 GLL5        0.0000 
     71 CA        -35.5640   -4.6420   -0.2170 C.3       8 GLP5        0.0000 
     72 CA        -30.1148   -7.2313   -0.2377 C.3       4 GLC5        0.0000 
@<TRIPOS>BOND
@<TRIPOS>SUBSTRUCTURE
     1 ALC1       10 GROUP        1 X    ALC  0     ROOT ALC X 1
     2 SEC2        7 GROUP        1 X    SEC  0     **** SEC X 2
     3 LYC4       13 GROUP        1 X    LYC  0     **** LYC X 4
     4 GLC5        1 GROUP        1 X    GLC  0     **** GLC X 6
     5 ALP1       12 GROUP        1 Y    ALP  0     ROOT ALP Y 8
     6 SEP2        9 GROUP        1 Y    SEP  0     **** SEP Y 9
     7 LYP4       15 GROUP        1 Y    LYP  0     **** LYP Y 11
     8 GLP5        3 GROUP        1 Y    GLP  0     **** GLP Y 13
     9 ALL1       11 GROUP        1 Z    ALL  0     ROOT ALL Z 15
    10 SEL2        8 GROUP        1 Z    SEL  0     **** SEL Z 16
    11 LYL4       14 GROUP        1 Z    LYL  0     **** LYL Z 18
    12 GLL5        2 GROUP        1 Z    GLL  0     **** GLL Z 20
@<TRIPOS>SET

