#    Name: 2b0m_201_1_ligand
#    Modification time : Mon Mar 24 19:46:28 2014

@<TRIPOS>MOLECULE
2b0m_201_1_ligand
   38    40     1     0     0
SMALL
NO_CHARGES


@<TRIPOS>ATOM
      1 C4        -33.9730  -15.2020    4.3460 C.ar      1 201401      0.0000 
      2 C2        -33.4930  -13.8830    4.0420 C.ar      1 201401      0.0000 
      3 C3        -33.5490  -13.3770    2.7040 C.ar      1 201401      0.0000 
      4 C1        -34.0900  -14.2130    1.6690 C.ar      1 201401      0.0000 
      5 C7        -34.5720  -15.5360    1.9550 C.ar      1 201401      0.0000 
      6 C6        -34.5050  -16.0160    3.2950 C.ar      1 201401      0.0000 
      7 C23       -33.0660  -12.0020    2.3790 C.ar      1 201401      0.0000 
      8 C8        -33.6310  -10.8690    3.0540 C.ar      1 201401      0.0000 
      9 C12       -33.2010   -9.5510    2.7510 C.ar      1 201401      0.0000 
     10 C16       -32.1910   -9.3230    1.7640 C.ar      1 201401      0.0000 
     11 C13       -31.6140  -10.4520    1.0840 C.ar      1 201401      0.0000 
     12 C9        -32.0460  -11.7770    1.3880 C.ar      1 201401      0.0000 
     13 C17       -31.7670   -7.9320    1.4490 C.ar      1 201401      0.0000 
     14 C19       -31.0490   -7.1410    2.4080 C.ar      1 201401      0.0000 
     15 C22       -30.6590   -5.8090    2.0910 C.ar      1 201401      0.0000 
     16 C21       -30.9760   -5.2500    0.8230 C.ar      1 201401      0.0000 
     17 C20       -31.6880   -6.0220   -0.1380 C.ar      1 201401      0.0000 
     18 C18       -32.0830   -7.3550    0.1690 C.ar      1 201401      0.0000 
     19 C5        -33.9210  -15.7300    5.7330 C.2       1 201401      0.0000 
     20 C11       -35.1320  -16.3920    0.8570 C.2       1 201401      0.0000 
     21 O3        -35.1230  -15.9650   -0.3280 O.2       1 201401      0.0000 
     22 N1        -35.6510  -17.6250    1.1040 N.am      1 201401      0.0000 
     23 O1        -34.3620  -16.9380    5.9960 O.co2     1 201401      0.0000 
     24 O2        -33.4400  -15.0040    6.7140 O.co2     1 201401      0.0000 
     25 H         -33.1096  -13.3037    4.7866 H         1 201401      0.0000 
     26 H         -34.1331  -13.8603    0.7107 H         1 201401      0.0000 
     27 H         -34.8419  -16.9576    3.5128 H         1 201401      0.0000 
     28 H         -34.3532  -11.0204    3.7622 H         1 201401      0.0000 
     29 H         -33.6134   -8.7545    3.2394 H         1 201401      0.0000 
     30 H         -30.8932  -10.2986    0.3824 H         1 201401      0.0000 
     31 H         -31.6345  -12.5719    0.9048 H         1 201401      0.0000 
     32 H         -30.8205   -7.5384    3.3159 H         1 201401      0.0000 
     33 H         -30.1493   -5.2534    2.7782 H         1 201401      0.0000 
     34 H         -30.6942   -4.2974    0.6013 H         1 201401      0.0000 
     35 H         -31.9149   -5.6209   -1.0453 H         1 201401      0.0000 
     36 H         -32.5922   -7.9087   -0.5164 H         1 201401      0.0000 
     37 H         -36.0508  -18.0993    0.3197 H         1 201401      0.0000 
     38 H         -35.5869  -17.9483    2.0481 H         1 201401      0.0000 
@<TRIPOS>BOND
     1    2    1 ar   
     2    6    1 ar   
     3   19    1 1    
     4    3    2 ar   
     5   25    2 1    
     6    4    3 ar   
     7    7    3 1    
     8    5    4 ar   
     9   26    4 1    
    10    6    5 ar   
    11   20    5 1    
    12   27    6 1    
    13    8    7 ar   
    14   12    7 ar   
    15    9    8 ar   
    16   28    8 1    
    17   10    9 ar   
    18   29    9 1    
    19   11   10 ar   
    20   13   10 1    
    21   12   11 ar   
    22   30   11 1    
    23   31   12 1    
    24   14   13 ar   
    25   18   13 ar   
    26   15   14 ar   
    27   32   14 1    
    28   16   15 ar   
    29   33   15 1    
    30   17   16 ar   
    31   34   16 1    
    32   18   17 ar   
    33   35   17 1    
    34   36   18 1    
    35   23   19 ar   
    36   24   19 ar   
    37   21   20 2    
    38   22   20 am   
    39   37   22 1    
    40   38   22 1    
@<TRIPOS>SUBSTRUCTURE
     1 201401      1 GROUP   
@<TRIPOS>SET

