#    Name: 4djr_0KJ_1_INTS_M
#    Modification time : Mon Apr  7 22:47:47 2014

@<TRIPOS>MOLECULE
4djr_0KJ_1_INTS_M
   79     0     9     0     0
SMALL
NO_CHARGES


@<TRIPOS>ATOM
      1 N          22.7290   23.1825   12.4965 N.am      2 SEC2        0.0000 
      2 N          21.8200   23.3930   11.4910 N.am      8 SEL2        0.0000 
      3 N          23.6380   22.9720   13.5020 N.am      5 SEP2        0.0000 
      4 CA         20.5720   28.3540    9.0325 C.3       3 GLC5        0.0000 
      5 CA         20.9310   26.2580    9.6210 C.3       9 GLL5        0.0000 
      6 CA         20.2130   30.4500    8.4440 C.3       6 GLP5        0.0000 
      7 CA         23.8355   29.2910   10.9250 C.3       3 GLC5        0.0000 
      8 CA         22.8550   27.5520   10.6540 C.3       9 GLL5        0.0000 
      9 CA         24.8160   31.0300   11.1960 C.3       6 GLP5        0.0000 
     10 O          20.3385   26.5905   13.9575 O.2       1 ALC1        0.0000 
     11 O          20.5450   28.0630   13.4380 O.2       7 ALL1        0.0000 
     12 O          20.1320   25.1180   14.4770 O.2       4 ALP1        0.0000 
     13 CA         17.0240   25.2105   13.4560 C.3       3 GLC5        0.0000 
     14 CA         17.7010   26.4470   12.1700 C.3       9 GLL5        0.0000 
     15 CA         16.3470   23.9740   14.7420 C.3       6 GLP5        0.0000 
     16 CA         18.6895   29.4555    9.3880 C.3       3 GLC5        0.0000 
     17 CA         17.1660   28.4610   10.3320 C.3       9 GLL5        0.0000 
     18 CA         17.0975   30.3720    9.7590 C.3       3 GLC5        0.0000 
     19 CA         17.0290   32.2830    9.1860 C.3       6 GLP5        0.0000 
     20 CA         17.0585   30.7660   11.1165 C.3       3 GLC5        0.0000 
     21 CA         17.5220   28.7780   11.6400 C.3       9 GLL5        0.0000 
     22 CA         16.5950   32.7540   10.5930 C.3       6 GLP5        0.0000 
     23 N          19.3605   27.7450   17.6120 N.am      2 SEC2        0.0000 
     24 N          19.8780   28.1760   16.3360 N.am      8 SEL2        0.0000 
     25 N          18.8430   27.3140   18.8880 N.am      5 SEP2        0.0000 
     26 O          20.7390   27.8285   17.2610 O.2       1 ALC1        0.0000 
     27 O          19.8780   28.1760   16.3360 O.2       7 ALL1        0.0000 
     28 O          21.6000   27.4810   18.1860 O.2       4 ALP1        0.0000 
     29 O          21.4075   28.5505   16.7850 O.2       1 ALC1        0.0000 
     30 O          22.9370   28.9250   17.2340 O.2       4 ALP1        0.0000 
     31 CA         18.1330   30.9415   17.9635 C.3       3 GLC5        0.0000 
     32 CA         19.0960   30.4320   16.0480 C.3       9 GLL5        0.0000 
     33 CA         17.1700   31.4510   19.8790 C.3       6 GLP5        0.0000 
     34 CA         21.2715   33.9690   13.3885 C.3       3 GLC5        0.0000 
     35 CA         22.2330   32.4320   14.5850 C.3       9 GLL5        0.0000 
     36 CA         20.3100   35.5060   12.1920 C.3       6 GLP5        0.0000 
     37 CA         23.3025   32.4370   12.7365 C.3       3 GLC5        0.0000 
     38 CA         24.3720   32.4420   10.8880 C.3       6 GLP5        0.0000 
     39 CA         22.9500   32.7440   18.7365 C.3       3 GLC5        0.0000 
     40 CA         22.3540   33.3630   16.9120 C.3       9 GLL5        0.0000 
     41 CA         23.5460   32.1250   20.5610 C.3       6 GLP5        0.0000 
     42 CA         24.1220   32.2300   17.0160 C.3       3 GLC5        0.0000 
     43 CA         25.8900   31.0970   17.1200 C.3       6 GLP5        0.0000 
     44 CA         23.3300   36.2010   15.3050 C.3       3 GLC5        0.0000 
     45 CA         22.2010   34.8180   16.4970 C.3       9 GLL5        0.0000 
     46 CA         24.4590   37.5840   14.1130 C.3       6 GLP5        0.0000 
     47 CA         15.1060   30.6405   16.7385 C.3       3 GLC5        0.0000 
     48 CA         16.1470   32.5440   16.3440 C.3       9 GLL5        0.0000 
     49 CA         14.0650   28.7370   17.1330 C.3       6 GLP5        0.0000 
     50 N          14.4575   34.7565   19.7135 N.am      2 SEC2        0.0000 
     51 N          14.9560   35.4140   18.3750 N.am      8 SEL2        0.0000 
     52 N          13.9590   34.0990   21.0520 N.am      5 SEP2        0.0000 
     53 CA         16.3755   33.0140   18.6965 C.3       3 GLC5        0.0000 
     54 CA         15.5810   34.5770   17.5140 C.3       9 GLL5        0.0000 
     55 CA         13.8280   34.9395   18.7950 C.3       3 GLC5        0.0000 
     56 CA         12.0750   35.3020   20.0760 C.3       6 GLP5        0.0000 
     57 CA         15.9825   26.5740   12.0455 C.3       3 GLC5        0.0000 
     58 CA         17.7990   27.7770   12.5600 C.3       9 GLL5        0.0000 
     59 CA         14.2150   26.0360   11.7260 C.3       6 GLP5        0.0000 
     60 CA         15.7105   26.3315   11.0645 C.3       3 GLC5        0.0000 
     61 CA         17.3410   26.1240   10.8630 C.3       9 GLL5        0.0000 
     62 CA         15.8858   27.9383    8.8083 C.3       3 GLC5        0.0000 
     63 CA         17.0710   27.1300    9.9430 C.3       9 GLL5        0.0000 
     64 CA         14.6530   28.0810    7.4790 C.3       6 GLP5        0.0000 
     65 CA         15.7795   27.3278   11.3560 C.3       3 GLC5        0.0000 
     66 CA         16.0559   28.7608   13.2445 C.3       3 GLC5        0.0000 
     67 CA         14.3540   29.1600   14.0310 C.3       6 GLP5        0.0000 
     68 CA         23.9907   34.4303   17.3878 C.3       3 GLC5        0.0000 
     69 CA         25.7040   34.7700   18.0710 C.3       6 GLP5        0.0000 
     70 CA         15.6150   32.8537   14.0685 C.3       3 GLC5        0.0000 
     71 CA         17.1270   33.1930   15.5900 C.3       9 GLL5        0.0000 
     72 CA         14.5930   32.8390   12.1700 C.3       6 GLP5        0.0000 
     73 CA         15.9190   31.7417   18.0412 C.3       3 GLC5        0.0000 
     74 CA         16.0680   30.5980   19.2620 C.3       6 GLP5        0.0000 
     75 CA         15.3268   37.1170   15.7045 C.3       3 GLC5        0.0000 
     76 CA         16.5410   35.2630   16.7670 C.3       9 GLL5        0.0000 
     77 CA         14.0460   38.1360   14.4650 C.3       6 GLP5        0.0000 
     78 CA         13.8127   33.3091   16.4821 C.3       3 GLC5        0.0000 
     79 CA         11.9500   32.8870   15.7970 C.3       6 GLP5        0.0000 
@<TRIPOS>BOND
@<TRIPOS>SUBSTRUCTURE
     1 ALC1       10 GROUP        1 X    ALC  0     ROOT ALC X 1
     2 SEC2        1 GROUP        1 X    SEC  0     **** SEC X 2
     3 GLC5        4 GROUP        1 X    GLC  0     **** GLC X 6
     4 ALP1       12 GROUP        1 Y    ALP  0     ROOT ALP Y 8
     5 SEP2        3 GROUP        1 Y    SEP  0     **** SEP Y 9
     6 GLP5        6 GROUP        1 Y    GLP  0     **** GLP Y 13
     7 ALL1       11 GROUP        1 Z    ALL  0     ROOT ALL Z 15
     8 SEL2        2 GROUP        1 Z    SEL  0     **** SEL Z 16
     9 GLL5        5 GROUP        1 Z    GLL  0     **** GLL Z 20
@<TRIPOS>SET

