#    Name: 4djr_0KJ_1_ligand
#    Modification time : Mon Apr  7 22:47:47 2014

@<TRIPOS>MOLECULE
4djr_0KJ_1_ligand
   76    79     1     0     0
SMALL
NO_CHARGES


@<TRIPOS>ATOM
      1 O28        21.8200   23.3930   11.4910 O.2       1 0KJ101      0.0000 
      2 C27        21.7650   24.4410   10.8910 C.2       1 0KJ101      0.0000 
      3 N29        22.8010   25.1420   10.4650 N.am      1 0KJ101      0.0000 
      4 C24        22.4460   26.3660    9.7980 C.3       1 0KJ101      0.0000 
      5 C25        20.9310   26.2580    9.6210 C.3       1 0KJ101      0.0000 
      6 C26        20.4700   25.1100   10.5050 C.3       1 0KJ101      0.0000 
      7 C22        22.8550   27.5520   10.6540 C.3       1 0KJ101      0.0000 
      8 O23        22.2100   27.3810   11.9170 O.3       1 0KJ101      0.0000 
      9 C21        21.3290   28.4180   12.4250 C.2       1 0KJ101      0.0000 
     10 O22        21.3440   29.5100   11.8810 O.2       1 0KJ101      0.0000 
     11 N20        20.5450   28.0630   13.4380 N.am      1 0KJ101      0.0000 
     12 C19        19.5100   28.8850   14.0440 C.3       1 0KJ101      0.0000 
     13 C32        18.1880   28.1130   13.9920 C.3       1 0KJ101      0.0000 
     14 C38        17.7990   27.7770   12.5600 C.ar      1 0KJ101      0.0000 
     15 C37        17.7010   26.4470   12.1700 C.ar      1 0KJ101      0.0000 
     16 C36        17.3410   26.1240   10.8630 C.ar      1 0KJ101      0.0000 
     17 C35        17.0710   27.1300    9.9430 C.ar      1 0KJ101      0.0000 
     18 C34        17.1660   28.4610   10.3320 C.ar      1 0KJ101      0.0000 
     19 C33        17.5220   28.7780   11.6400 C.ar      1 0KJ101      0.0000 
     20 C17        19.9440   29.2990   15.4520 C.3       1 0KJ101      0.0000 
     21 O18        19.8780   28.1760   16.3360 O.3       1 0KJ101      0.0000 
     22 C16        19.0960   30.4320   16.0480 C.3       1 0KJ101      0.0000 
     23 N11        19.3380   31.6740   15.2670 N.pl3     1 0KJ101      0.0000 
     24 C12        20.1170   32.6720   16.0360 C.3       1 0KJ101      0.0000 
     25 C13        21.6270   32.3790   15.9880 C.3       1 0KJ101      0.0000 
     26 C14        22.2330   32.4320   14.5850 C.3       1 0KJ101      0.0000 
     27 C15        22.3540   33.3630   16.9120 C.3       1 0KJ101      0.0000 
     28 C18        22.2010   34.8180   16.4970 C.3       1 0KJ101      0.0000 
     29 S8         18.0170   32.2920   14.5410 S.o2      1 0KJ101      0.0000 
     30 O10        17.2470   31.1870   14.0580 O.2       1 0KJ101      0.0000 
     31 O9         18.5130   33.1710   13.5080 O.2       1 0KJ101      0.0000 
     32 C5         17.1270   33.1930   15.5900 C.ar      1 0KJ101      0.0000 
     33 C6         16.1470   32.5440   16.3440 C.ar      1 0KJ101      0.0000 
     34 C7         15.3930   33.2270   17.2970 C.ar      1 0KJ101      0.0000 
     35 C4         17.3050   34.5670   15.8150 C.ar      1 0KJ101      0.0000 
     36 C3         16.5410   35.2630   16.7670 C.ar      1 0KJ101      0.0000 
     37 S1         16.6740   36.9330   17.1210 S.3       1 0KJ101      0.0000 
     38 C1         15.4140   36.6730   18.2880 C.2       1 0KJ101      0.0000 
     39 N1         14.9560   35.4140   18.3750 N.2       1 0KJ101      0.0000 
     40 C2         15.5810   34.5770   17.5140 C.ar      1 0KJ101      0.0000 
     41 H          23.7578   24.8984   10.5663 H         1 0KJ101      0.0000 
     42 H          22.8987   26.4194    8.8407 H         1 0KJ101      0.0000 
     43 H          20.7054   26.0407    8.5956 H         1 0KJ101      0.0000 
     44 H          20.4678   27.1710    9.9395 H         1 0KJ101      0.0000 
     45 H          19.9841   25.4935   11.3655 H         1 0KJ101      0.0000 
     46 H          19.8666   24.4446    9.9421 H         1 0KJ101      0.0000 
     47 H          22.5343   28.4586   10.1544 H         1 0KJ101      0.0000 
     48 H          23.9348   27.5485   10.7463 H         1 0KJ101      0.0000 
     49 H          20.6473   27.0932   13.8816 H         1 0KJ101      0.0000 
     50 H          19.3879   29.7941   13.4460 H         1 0KJ101      0.0000 
     51 H          17.4040   28.7195   14.4483 H         1 0KJ101      0.0000 
     52 H          18.2921   27.1906   14.5657 H         1 0KJ101      0.0000 
     53 H          17.8946   25.6963   12.8474 H         1 0KJ101      0.0000 
     54 H          17.2753   25.1365   10.5798 H         1 0KJ101      0.0000 
     55 H          16.8030   26.8916    8.9817 H         1 0KJ101      0.0000 
     56 H          16.9740   29.2105    9.6560 H         1 0KJ101      0.0000 
     57 H          17.5799   29.7689   11.9264 H         1 0KJ101      0.0000 
     58 H          20.9756   29.6599   15.3942 H         1 0KJ101      0.0000 
     59 H          19.3837   30.5713   17.0840 H         1 0KJ101      0.0000 
     60 H          18.0514   30.1466   15.9957 H         1 0KJ101      0.0000 
     61 H          19.8030   32.6759   17.0872 H         1 0KJ101      0.0000 
     62 H          19.9515   33.6794   15.6343 H         1 0KJ101      0.0000 
     63 H          21.7885   31.3770   16.3988 H         1 0KJ101      0.0000 
     64 H          23.4240   33.1030   16.9332 H         1 0KJ101      0.0000 
     65 H          21.9692   33.2361   17.9362 H         1 0KJ101      0.0000 
     66 H          15.9774   31.5329   16.1910 H         1 0KJ101      0.0000 
     67 H          14.6840   32.7093   17.8462 H         1 0KJ101      0.0000 
     68 H          18.0167   35.0810   15.2662 H         1 0KJ101      0.0000 
     69 H          15.1914   37.4889   18.7437 H         1 0KJ101      0.0000 
     70 H          23.2141   32.2386   14.5966 H         1 0KJ101      0.0000 
     71 H          21.8099   31.7645   13.9722 H         1 0KJ101      0.0000 
     72 H          22.1166   33.3315   14.1639 H         1 0KJ101      0.0000 
     73 H          22.6852   35.4342   17.1181 H         1 0KJ101      0.0000 
     74 H          22.5631   34.9826   15.5795 H         1 0KJ101      0.0000 
     75 H          21.2426   35.1032   16.4893 H         1 0KJ101      0.0000 
     76 H          20.7847   28.1226   16.7545 H         1 0KJ101      0.0000 
@<TRIPOS>BOND
     1    2    1 2    
     2    3    2 am   
     3    6    2 1    
     4    4    3 1    
     5   41    3 1    
     6    5    4 1    
     7    7    4 1    
     8   42    4 1    
     9    6    5 1    
    10   43    5 1    
    11   44    5 1    
    12   45    6 1    
    13   46    6 1    
    14    8    7 1    
    15   47    7 1    
    16   48    7 1    
    17    9    8 1    
    18   10    9 2    
    19   11    9 am   
    20   12   11 1    
    21   49   11 1    
    22   13   12 1    
    23   20   12 1    
    24   50   12 1    
    25   14   13 1    
    26   51   13 1    
    27   52   13 1    
    28   15   14 ar   
    29   19   14 ar   
    30   16   15 ar   
    31   53   15 1    
    32   17   16 ar   
    33   54   16 1    
    34   18   17 ar   
    35   55   17 1    
    36   19   18 ar   
    37   56   18 1    
    38   57   19 1    
    39   21   20 1    
    40   22   20 1    
    41   58   20 1    
    42   76   21 1    
    43   23   22 1    
    44   59   22 1    
    45   60   22 1    
    46   24   23 1    
    47   29   23 1    
    48   25   24 1    
    49   61   24 1    
    50   62   24 1    
    51   26   25 1    
    52   27   25 1    
    53   63   25 1    
    54   70   26 1    
    55   71   26 1    
    56   72   26 1    
    57   28   27 1    
    58   64   27 1    
    59   65   27 1    
    60   73   28 1    
    61   74   28 1    
    62   75   28 1    
    63   30   29 2    
    64   31   29 2    
    65   32   29 1    
    66   33   32 ar   
    67   35   32 ar   
    68   34   33 ar   
    69   66   33 1    
    70   40   34 ar   
    71   67   34 1    
    72   36   35 ar   
    73   68   35 1    
    74   37   36 1    
    75   40   36 ar   
    76   38   37 1    
    77   39   38 2    
    78   69   38 1    
    79   40   39 1    
@<TRIPOS>SUBSTRUCTURE
     1 0KJ101      1 GROUP   
@<TRIPOS>SET

