#    Name: 2j87_TTP_2_INTS_M
#    Modification time : Tue Mar 25 19:28:27 2014

@<TRIPOS>MOLECULE
2j87_TTP_2_INTS_M
   86     0    15     0     0
SMALL
NO_CHARGES


@<TRIPOS>ATOM
      1 Zn        -22.0260   10.3950   16.5230 Zn        4 ZIC7        0.0000 
      2 Zn        -22.1760   11.2350   16.6480 Zn       14 ZIL7        0.0000 
      3 Zn        -21.8760    9.5550   16.3980 Zn        9 ZIP7        0.0000 
      4 NZ        -21.3450   11.6730   13.2445 N.4       3 LYC4        0.0000 
      5 NZ        -21.4320   11.7500   14.4290 N.4      13 LYL4        0.0000 
      6 NZ        -21.2580   11.5960   12.0600 N.4       8 LYP4        0.0000 
      7 N         -21.3450   11.6730   13.2445 N.am      2 SEC2        0.0000 
      8 N         -21.4320   11.7500   14.4290 N.am     12 SEL2        0.0000 
      9 N         -21.2580   11.5960   12.0600 N.am      7 SEP2        0.0000 
     10 N         -17.1890   11.0445   17.2500 N.am      2 SEC2        0.0000 
     11 N         -18.0840   11.7450   17.6370 N.am     12 SEL2        0.0000 
     12 N         -16.2940   10.3440   16.8630 N.am      7 SEP2        0.0000 
     13 Zn        -21.0020    9.9645   16.9365 Zn        4 ZIC7        0.0000 
     14 Zn        -20.1280   10.3740   17.4750 Zn       14 ZIL7        0.0000 
     15 N         -17.2430   10.6945   14.8450 N.am      2 SEC2        0.0000 
     16 N         -18.6560   10.6350   15.3920 N.am     12 SEL2        0.0000 
     17 N         -15.8300   10.7540   14.2980 N.am      7 SEP2        0.0000 
     18 NZ        -20.4025   10.3210   12.8035 N.4       3 LYC4        0.0000 
     19 NZ        -19.5470    9.0460   13.5470 N.4      13 LYL4        0.0000 
     20 N         -18.9850    7.5845   13.1755 N.am      2 SEC2        0.0000 
     21 N         -19.5470    9.0460   13.5470 N.am     12 SEL2        0.0000 
     22 N         -18.4230    6.1230   12.8040 N.am      7 SEP2        0.0000 
     23 N         -18.3055    8.7260   13.1165 N.am      2 SEC2        0.0000 
     24 N         -17.0640    8.4060   12.6860 N.am      7 SEP2        0.0000 
     25 N         -20.4025   10.3210   12.8035 N.am      2 SEC2        0.0000 
     26 Zn        -21.0800    9.1150   16.1290 Zn        4 ZIC7        0.0000 
     27 Zn        -20.2840    8.6750   15.8600 Zn       14 ZIL7        0.0000 
     28 N         -21.4570    7.8695   15.0955 N.am      2 SEC2        0.0000 
     29 N         -20.2840    8.6750   15.8600 N.am     12 SEL2        0.0000 
     30 N         -22.6300    7.0640   14.3310 N.am      7 SEP2        0.0000 
     31 N         -21.6820   14.6385   17.0310 N.am      2 SEC2        0.0000 
     32 N         -22.2880   13.7300   15.9890 N.am     12 SEL2        0.0000 
     33 N         -21.0760   15.5470   18.0730 N.am      7 SEP2        0.0000 
     34 CA        -23.3385   14.6620   14.1865 C.3       5 GLC5        0.0000 
     35 CA        -23.7140   13.8570   15.8860 C.3      15 GLL5        0.0000 
     36 CA        -22.9630   15.4670   12.4870 C.3      10 GLP5        0.0000 
     37 CA        -24.5770   17.0025   16.5350 C.3       5 GLC5        0.0000 
     38 CA        -24.3540   14.8390   16.8810 C.3      15 GLL5        0.0000 
     39 CA        -24.8000   19.1660   16.1890 C.3      10 GLP5        0.0000 
     40 CA        -25.1920   15.0100   19.8545 C.3       5 GLC5        0.0000 
     41 CA        -25.1290   14.0980   17.9730 C.3      15 GLL5        0.0000 
     42 CA        -25.2550   15.9220   21.7360 C.3      10 GLP5        0.0000 
     43 N         -26.0425   14.2470   20.0855 N.am      2 SEC2        0.0000 
     44 N         -24.7480   14.5680   19.2940 N.am     12 SEL2        0.0000 
     45 N         -27.3370   13.9260   20.8770 N.am      7 SEP2        0.0000 
     46 CA        -27.1325   13.4475   19.5565 C.3       5 GLC5        0.0000 
     47 CA        -26.6210   14.2750   17.6360 C.3      15 GLL5        0.0000 
     48 CA        -27.6440   12.6200   21.4770 C.3      10 GLP5        0.0000 
     49 CA        -28.1980   13.5185   17.8225 C.3       5 GLC5        0.0000 
     50 CA        -29.7750   12.7620   18.0090 C.3      10 GLP5        0.0000 
     51 CA        -25.7335   17.3440   16.4695 C.3       5 GLC5        0.0000 
     52 CA        -26.6670   15.5220   16.7500 C.3      15 GLL5        0.0000 
     53 CA        -28.5620   14.5030   16.8975 C.3       5 GLC5        0.0000 
     54 CA        -30.4570   13.4840   17.0450 C.3      10 GLP5        0.0000 
     55 N         -29.2040   18.4180   17.1225 N.am      2 SEC2        0.0000 
     56 N         -28.2930   17.7520   16.2650 N.am     12 SEL2        0.0000 
     57 N         -30.1150   19.0840   17.9800 N.am      7 SEP2        0.0000 
     58 O         -30.3790   17.9400   14.5585 O.2       1 ALC1        0.0000 
     59 O         -29.3700   16.9430   14.4930 O.2      11 ALL1        0.0000 
     60 O         -31.3880   18.9370   14.6240 O.2       6 ALP1        0.0000 
     61 N         -30.9430   15.2620   11.5345 N.am      2 SEC2        0.0000 
     62 N         -30.4220   16.0340   12.6690 N.am     12 SEL2        0.0000 
     63 N         -31.4640   14.4900   10.4000 N.am      7 SEP2        0.0000 
     64 CA        -27.9475   16.4355   12.8655 C.3       5 GLC5        0.0000 
     65 CA        -28.8100   14.6960   13.7400 C.3      15 GLL5        0.0000 
     66 CA        -27.0850   18.1750   11.9910 C.3      10 GLP5        0.0000 
     67 CA        -26.8500   13.6120   12.3350 C.3       5 GLC5        0.0000 
     68 CA        -29.0600   13.5760   12.7510 C.3      15 GLL5        0.0000 
     69 CA        -24.6400   13.6480   11.9190 C.3      10 GLP5        0.0000 
     70 CA        -29.4490   14.7165   10.9665 C.3       5 GLC5        0.0000 
     71 CA        -29.8380   15.8570    9.1820 C.3      10 GLP5        0.0000 
     72 CA        -30.7405   13.4840   11.6615 C.3       5 GLC5        0.0000 
     73 CA        -32.4210   13.3920   10.5720 C.3      10 GLP5        0.0000 
     74 CA        -28.7335   11.8520   11.9265 C.3       5 GLC5        0.0000 
     75 CA        -28.4070   10.1280   11.1020 C.3      10 GLP5        0.0000 
     76 CA        -27.0260   12.9850   15.2115 C.3       5 GLC5        0.0000 
     77 CA        -27.8710   14.5900   14.7860 C.3      15 GLL5        0.0000 
     78 CA        -26.1810   11.3800   15.6370 C.3      10 GLP5        0.0000 
     79 CA        -26.2555   14.1190   13.3525 C.3       5 GLC5        0.0000 
     80 CA        -29.1640   14.0370   15.9155 C.3       5 GLC5        0.0000 
     81 CA        -25.1075   12.8640   16.0102 C.3       5 GLC5        0.0000 
     82 CA        -27.0615   15.6238   18.8985 C.3       5 GLC5        0.0000 
     83 CA        -27.4790   16.3490   20.6040 C.3      10 GLP5        0.0000 
     84 CA        -26.2260   13.1171   16.4571 C.3       5 GLC5        0.0000 
     85 CA        -29.9295   13.4940   14.5753 C.3       5 GLC5        0.0000 
     86 CA        -30.9240   12.8520   15.9050 C.3      10 GLP5        0.0000 
@<TRIPOS>BOND
@<TRIPOS>SUBSTRUCTURE
     1 ALC1       58 GROUP        1 X    ALC  0     ROOT ALC X 1
     2 SEC2        7 GROUP        1 X    SEC  0     **** SEC X 2
     3 LYC4        4 GROUP        1 X    LYC  0     **** LYC X 4
     4 ZIC7        1 GROUP        1 X    ZIC  0     **** ZIC X 5
     5 GLC5       34 GROUP        1 X    GLC  0     **** GLC X 6
     6 ALP1       60 GROUP        1 Y    ALP  0     ROOT ALP Y 8
     7 SEP2        9 GROUP        1 Y    SEP  0     **** SEP Y 9
     8 LYP4        6 GROUP        1 Y    LYP  0     **** LYP Y 11
     9 ZIP7        3 GROUP        1 Y    ZIP  0     **** ZIP Y 12
    10 GLP5       36 GROUP        1 Y    GLP  0     **** GLP Y 13
    11 ALL1       59 GROUP        1 Z    ALL  0     ROOT ALL Z 15
    12 SEL2        8 GROUP        1 Z    SEL  0     **** SEL Z 16
    13 LYL4        5 GROUP        1 Z    LYL  0     **** LYL Z 18
    14 ZIL7        2 GROUP        1 Z    ZIL  0     **** ZIL Z 19
    15 GLL5       35 GROUP        1 Z    GLL  0     **** GLL Z 20
@<TRIPOS>SET

