#    Name: 2j87_TTP_2_ligand
#    Modification time : Tue Mar 25 19:28:27 2014

@<TRIPOS>MOLECULE
2j87_TTP_2_ligand
   42    43     1     0     0
SMALL
NO_CHARGES


@<TRIPOS>ATOM
      1 PA        -21.5360   12.3030   15.8190 P.3       1 TTP300      0.0000 
      2 O1A       -22.1760   11.2350   16.6480 O.co2     1 TTP300      0.0000 
      3 O2A       -21.4320   11.7500   14.4290 O.co2     1 TTP300      0.0000 
      4 O3A       -20.0610   12.6370   16.3160 O.3       1 TTP300      0.0000 
      5 PB        -19.2210   11.3390   16.7380 P.3       1 TTP300      0.0000 
      6 O1B       -18.0840   11.7450   17.6370 O.co2     1 TTP300      0.0000 
      7 O2B       -20.1280   10.3740   17.4750 O.co2     1 TTP300      0.0000 
      8 O3B       -18.6560   10.6350   15.3920 O.3       1 TTP300      0.0000 
      9 PG        -19.1280    9.1380   14.9970 P.3       1 TTP300      0.0000 
     10 O1G       -17.9660    8.2180   15.2440 O.co2     1 TTP300      0.0000 
     11 O2G       -19.5470    9.0460   13.5470 O.co2     1 TTP300      0.0000 
     12 O3G       -20.2840    8.6750   15.8600 O.co2     1 TTP300      0.0000 
     13 O5'       -22.2880   13.7300   15.9890 O.3       1 TTP300      0.0000 
     14 C5'       -23.7140   13.8570   15.8860 C.3       1 TTP300      0.0000 
     15 C4'       -24.3540   14.8390   16.8810 C.3       1 TTP300      0.0000 
     16 O4'       -25.3200   15.6850   16.2250 O.3       1 TTP300      0.0000 
     17 C3'       -25.1290   14.0980   17.9730 C.3       1 TTP300      0.0000 
     18 O3'       -24.7480   14.5680   19.2940 O.3       1 TTP300      0.0000 
     19 C2'       -26.6210   14.2750   17.6360 C.3       1 TTP300      0.0000 
     20 C1'       -26.6670   15.5220   16.7500 C.3       1 TTP300      0.0000 
     21 N1        -27.6930   15.6030   15.6620 N.am      1 TTP300      0.0000 
     22 C2        -28.4620   16.7980   15.4840 C.2       1 TTP300      0.0000 
     23 O2        -28.2930   17.7520   16.2650 O.2       1 TTP300      0.0000 
     24 N3        -29.3700   16.9430   14.4930 N.am      1 TTP300      0.0000 
     25 C4        -29.5890   15.9520   13.6050 C.2       1 TTP300      0.0000 
     26 O4        -30.4220   16.0340   12.6690 O.2       1 TTP300      0.0000 
     27 C5        -28.8100   14.6960   13.7400 C.2       1 TTP300      0.0000 
     28 C5M       -29.0600   13.5760   12.7510 C.3       1 TTP300      0.0000 
     29 C6        -27.8710   14.5900   14.7860 C.2       1 TTP300      0.0000 
     30 H         -24.2165   12.8700   16.0310 H         1 TTP300      0.0000 
     31 H         -24.0148   14.1861   14.8618 H         1 TTP300      0.0000 
     32 H         -23.5898   15.4211   17.3491 H         1 TTP300      0.0000 
     33 H         -24.8971   13.0368   17.8500 H         1 TTP300      0.0000 
     34 H         -27.1682   14.4461   18.5290 H         1 TTP300      0.0000 
     35 H         -26.9636   13.4317   17.0906 H         1 TTP300      0.0000 
     36 H         -26.8315   16.3877   17.4514 H         1 TTP300      0.0000 
     37 H         -29.9098   17.8374   14.4151 H         1 TTP300      0.0000 
     38 H         -27.3223   13.7124   14.8622 H         1 TTP300      0.0000 
     39 H         -28.8770   13.8631   11.8107 H         1 TTP300      0.0000 
     40 H         -28.4791   12.7828   12.9336 H         1 TTP300      0.0000 
     41 H         -30.0077   13.2584   12.7813 H         1 TTP300      0.0000 
     42 H         -24.0353   13.9358   19.5979 H         1 TTP300      0.0000 
@<TRIPOS>BOND
     1    2    1 ar   
     2    3    1 ar   
     3    4    1 1    
     4   13    1 1    
     5    5    4 1    
     6    6    5 ar   
     7    7    5 ar   
     8    8    5 1    
     9    9    8 1    
    10   10    9 ar   
    11   11    9 ar   
    12   12    9 ar   
    13   14   13 1    
    14   15   14 1    
    15   30   14 1    
    16   31   14 1    
    17   16   15 1    
    18   17   15 1    
    19   32   15 1    
    20   20   16 1    
    21   18   17 1    
    22   19   17 1    
    23   33   17 1    
    24   42   18 1    
    25   20   19 1    
    26   34   19 1    
    27   35   19 1    
    28   21   20 1    
    29   36   20 1    
    30   22   21 1    
    31   29   21 1    
    32   23   22 2    
    33   24   22 1    
    34   25   24 1    
    35   37   24 1    
    36   26   25 2    
    37   27   25 1    
    38   28   27 1    
    39   29   27 2    
    40   39   28 1    
    41   40   28 1    
    42   41   28 1    
    43   38   29 1    
@<TRIPOS>SUBSTRUCTURE
     1 TTP300      1 GROUP   
@<TRIPOS>SET

