#    Name: 4eh4_IRG_1_INTS_M
#    Modification time : Mon Mar 24 17:48:38 2014

@<TRIPOS>MOLECULE
4eh4_IRG_1_INTS_M
   64     0     6     0     0
SMALL
NO_CHARGES


@<TRIPOS>ATOM
      1 CA        -22.1700  -15.3975   10.6350 C.3       2 GLC5        0.0000 
      2 CA        -23.4190  -16.8630    9.5860 C.3       6 GLL5        0.0000 
      3 CA        -20.9210  -13.9320   11.6840 C.3       4 GLP5        0.0000 
      4 CA        -25.2605  -17.7105    9.6450 C.3       2 GLC5        0.0000 
      5 CA        -27.1020  -18.5580    9.7040 C.3       4 GLP5        0.0000 
      6 O         -25.7605  -11.1805    5.2790 O.2       1 ALC1        0.0000 
      7 O         -25.1010  -12.2690    6.2030 O.2       5 ALL1        0.0000 
      8 O         -26.4200  -10.0920    4.3550 O.2       3 ALP1        0.0000 
      9 O         -24.7460  -10.8325    5.5325 O.2       1 ALC1        0.0000 
     10 O         -24.3910   -9.3960    4.8620 O.2       3 ALP1        0.0000 
     11 CA        -20.1340  -19.4065    9.3965 C.3       2 GLC5        0.0000 
     12 CA        -21.8890  -20.7690    9.5760 C.3       6 GLL5        0.0000 
     13 CA        -18.3790  -18.0440    9.2170 C.3       4 GLP5        0.0000 
     14 CA        -24.6655  -19.2335    7.9100 C.3       2 GLC5        0.0000 
     15 CA        -22.7660  -18.8520    8.3620 C.3       6 GLL5        0.0000 
     16 CA        -26.5650  -19.6150    7.4580 C.3       4 GLP5        0.0000 
     17 CA        -23.7720  -10.5750    8.9745 C.3       2 GLC5        0.0000 
     18 CA        -25.0050  -12.2470    8.5560 C.3       6 GLL5        0.0000 
     19 CA        -22.5390   -8.9030    9.3930 C.3       4 GLP5        0.0000 
     20 CA        -23.9745  -13.9450   15.5910 C.3       2 GLC5        0.0000 
     21 CA        -25.3130  -14.5490   14.3610 C.3       6 GLL5        0.0000 
     22 CA        -22.6360  -13.3410   16.8210 C.3       4 GLP5        0.0000 
     23 CA        -26.7535  -17.2245   12.3470 C.3       2 GLC5        0.0000 
     24 CA        -25.8180  -15.7360   13.5400 C.3       6 GLL5        0.0000 
     25 CA        -27.6890  -18.7130   11.1540 C.3       4 GLP5        0.0000 
     26 CA        -26.9525  -17.4820   14.0640 C.3       2 GLC5        0.0000 
     27 CA        -28.0870  -19.2280   14.5880 C.3       4 GLP5        0.0000 
     28 CA        -21.3233  -17.2245    9.3878 C.3       2 GLC5        0.0000 
     29 CA        -19.4660  -16.9370    9.1990 C.3       4 GLP5        0.0000 
     30 CA        -26.0007  -14.2615    9.9013 C.3       2 GLC5        0.0000 
     31 CA        -24.0130  -14.9940   10.8930 C.3       6 GLL5        0.0000 
     32 CA        -27.8940  -13.7200    9.8020 C.3       4 GLP5        0.0000 
     33 CA        -22.5547  -22.1887    8.7535 C.3       2 GLC5        0.0000 
     34 CA        -23.0420  -23.9120    8.5390 C.3       4 GLP5        0.0000 
     35 CA        -23.0480  -21.5438   11.3453 C.3       2 GLC5        0.0000 
     36 CA        -24.1230  -22.6640   12.5130 C.3       4 GLP5        0.0000 
     37 CA        -21.7975  -19.1457   12.4117 C.3       2 GLC5        0.0000 
     38 CA        -22.0570  -20.0780   10.7790 C.3       6 GLL5        0.0000 
     39 CA        -21.2820  -18.8660   14.0510 C.3       4 GLP5        0.0000 
     40 CA        -20.8895  -18.1812    9.9857 C.3       2 GLC5        0.0000 
     41 CA        -22.5690  -18.7730   10.7660 C.3       6 GLL5        0.0000 
     42 CA        -20.9860  -18.2220    8.7800 C.3       2 GLC5        0.0000 
     43 CA        -24.0468  -20.5699    9.4324 C.3       2 GLC5        0.0000 
     44 CA        -22.2460  -20.1620    8.3600 C.3       6 GLL5        0.0000 
     45 CA        -25.9840  -20.8470    9.5960 C.3       4 GLP5        0.0000 
     46 CA        -24.3697  -19.6570    9.8813 C.3       2 GLC5        0.0000 
     47 CA        -22.9420  -18.1610    9.5670 C.3       6 GLL5        0.0000 
     48 CA        -26.3792  -13.1552    9.4752 C.3       2 GLC5        0.0000 
     49 CA        -24.7240  -12.9340    9.7410 C.3       6 GLL5        0.0000 
     50 CA        -25.9642  -11.1273    9.9123 C.3       2 GLC5        0.0000 
     51 CA        -27.0640   -9.6640   10.6760 C.3       4 GLP5        0.0000 
     52 CA        -22.6790  -13.8591   10.8539 C.3       2 GLC5        0.0000 
     53 CA        -26.2585  -13.6468    8.5655 C.3       2 GLC5        0.0000 
     54 CA        -24.4030  -14.2400    7.3150 C.3       6 GLL5        0.0000 
     55 CA        -26.2680  -14.5108    6.3670 C.3       2 GLC5        0.0000 
     56 CA        -24.8430  -12.9070    7.3430 C.3       6 GLL5        0.0000 
     57 CA        -27.9130  -15.4480    5.4050 C.3       4 GLP5        0.0000 
     58 CA        -26.4928  -13.1402   14.5925 C.3       2 GLC5        0.0000 
     59 CA        -25.4220  -14.4320   12.8450 C.3       6 GLL5        0.0000 
     60 CA        -27.6180  -11.7900   15.5820 C.3       4 GLP5        0.0000 
     61 CA        -24.5129  -16.3381   14.0354 C.3       2 GLC5        0.0000 
     62 CA        -23.5320  -17.8890   14.6730 C.3       4 GLP5        0.0000 
     63 CA        -27.0369  -13.8676   12.7274 C.3       2 GLC5        0.0000 
     64 CA        -28.5800  -12.9480   12.0570 C.3       4 GLP5        0.0000 
@<TRIPOS>BOND
@<TRIPOS>SUBSTRUCTURE
     1 ALC1        6 GROUP        1 X    ALC  0     ROOT ALC X 1
     2 GLC5        1 GROUP        1 X    GLC  0     **** GLC X 6
     3 ALP1        8 GROUP        1 Y    ALP  0     ROOT ALP Y 8
     4 GLP5        3 GROUP        1 Y    GLP  0     **** GLP Y 13
     5 ALL1        7 GROUP        1 Z    ALL  0     ROOT ALL Z 15
     6 GLL5        2 GROUP        1 Z    GLL  0     **** GLL Z 20
@<TRIPOS>SET

