#    Name: 4eh4_IRG_1_ligand
#    Modification time : Mon Mar 24 17:48:38 2014

@<TRIPOS>MOLECULE
4eh4_IRG_1_ligand
   37    40     1     0     0
SMALL
NO_CHARGES


@<TRIPOS>ATOM
      1 N1        -23.5830  -16.2600   10.7730 N.ar      1 IRG401      0.0000 
      2 C2        -23.4190  -16.8630    9.5860 C.ar      1 IRG401      0.0000 
      3 N3        -23.6830  -16.2140    8.4530 N.ar      1 IRG401      0.0000 
      4 C4        -24.1170  -14.9410    8.4960 C.ar      1 IRG401      0.0000 
      5 C5        -24.2870  -14.2830    9.7200 C.ar      1 IRG401      0.0000 
      6 C6        -24.0130  -14.9940   10.8930 C.ar      1 IRG401      0.0000 
      7 NAA       -25.1010  -12.2690    6.2030 N.pl3     1 IRG401      0.0000 
      8 CAB       -21.8890  -20.7690    9.5760 C.ar      1 IRG401      0.0000 
      9 CAC       -22.0570  -20.0780   10.7790 C.ar      1 IRG401      0.0000 
     10 CAD       -22.2460  -20.1620    8.3600 C.ar      1 IRG401      0.0000 
     11 CAE       -22.5690  -18.7730   10.7660 C.ar      1 IRG401      0.0000 
     12 CAF       -22.7660  -18.8520    8.3620 C.ar      1 IRG401      0.0000 
     13 CAG       -25.0050  -12.2470    8.5560 C.ar      1 IRG401      0.0000 
     14 CAH       -24.7240  -12.9340    9.7410 C.ar      1 IRG401      0.0000 
     15 CAI       -24.4030  -14.2400    7.3150 C.ar      1 IRG401      0.0000 
     16 CAJ       -25.3130  -14.5490   14.3610 C.3       1 IRG401      0.0000 
     17 CAK       -25.8180  -15.7360   13.5400 C.3       1 IRG401      0.0000 
     18 NAN       -24.1410  -14.4460   12.1200 N.pl3     1 IRG401      0.0000 
     19 CAO       -24.8430  -12.9070    7.3430 C.ar      1 IRG401      0.0000 
     20 CAP       -22.9420  -18.1610    9.5670 C.ar      1 IRG401      0.0000 
     21 CAU       -25.4220  -14.4320   12.8450 C.3       1 IRG401      0.0000 
     22 H         -25.4324  -11.3295    6.2898 H         1 IRG401      0.0000 
     23 H         -24.9401  -12.7868    5.3628 H         1 IRG401      0.0000 
     24 H         -21.5053  -21.7196    9.5770 H         1 IRG401      0.0000 
     25 H         -21.8078  -20.5212   11.6672 H         1 IRG401      0.0000 
     26 H         -22.1303  -20.6648    7.4802 H         1 IRG401      0.0000 
     27 H         -22.6708  -18.2596   11.6550 H         1 IRG401      0.0000 
     28 H         -23.0160  -18.4052    7.4723 H         1 IRG401      0.0000 
     29 H         -25.3229  -11.2792    8.5847 H         1 IRG401      0.0000 
     30 H         -24.8336  -12.4597   10.6491 H         1 IRG401      0.0000 
     31 H         -24.2874  -14.7150    6.4036 H         1 IRG401      0.0000 
     32 H         -24.4062  -14.7143   14.5717 H         1 IRG401      0.0000 
     33 H         -26.0680  -14.1216   14.7369 H         1 IRG401      0.0000 
     34 H         -26.7600  -15.7467   13.6066 H         1 IRG401      0.0000 
     35 H         -25.0982  -16.3394   13.4414 H         1 IRG401      0.0000 
     36 H         -23.3387  -14.0065   12.6129 H         1 IRG401      0.0000 
     37 H         -26.2210  -13.9626   12.6608 H         1 IRG401      0.0000 
@<TRIPOS>BOND
     1    2    1 ar   
     2    6    1 ar   
     3    3    2 ar   
     4   20    2 1    
     5    4    3 ar   
     6    5    4 ar   
     7   15    4 ar   
     8    6    5 ar   
     9   14    5 ar   
    10   18    6 1    
    11   19    7 1    
    12   22    7 1    
    13   23    7 1    
    14    9    8 ar   
    15   10    8 ar   
    16   24    8 1    
    17   11    9 ar   
    18   25    9 1    
    19   12   10 ar   
    20   26   10 1    
    21   20   11 ar   
    22   27   11 1    
    23   20   12 ar   
    24   28   12 1    
    25   14   13 ar   
    26   19   13 ar   
    27   29   13 1    
    28   30   14 1    
    29   19   15 ar   
    30   31   15 1    
    31   17   16 1    
    32   21   16 1    
    33   32   16 1    
    34   33   16 1    
    35   21   17 1    
    36   34   17 1    
    37   35   17 1    
    38   21   18 1    
    39   36   18 1    
    40   37   21 1    
@<TRIPOS>SUBSTRUCTURE
     1 IRG401      1 GROUP   
@<TRIPOS>SET

