#    Name: 2qk8_MTX_1_INTS_M
#    Modification time : Mon Mar 24 22:25:04 2014

@<TRIPOS>MOLECULE
2qk8_MTX_1_INTS_M
   79     0    12     0     0
SMALL
NO_CHARGES


@<TRIPOS>ATOM
      1 CA         -5.6790   -8.4805   17.7105 C.3       4 GLC5        0.0000 
      2 CA         -3.9620   -7.3240   17.2380 C.3      12 GLL5        0.0000 
      3 CA         -7.3960   -9.6370   18.1830 C.3       8 GLP5        0.0000 
      4 CA         -4.3440   -6.9225   18.9355 C.3       4 GLC5        0.0000 
      5 CA         -4.7260   -6.5210   20.6330 C.3       8 GLP5        0.0000 
      6 CA         -2.4130   -7.5385   16.5245 C.3       4 GLC5        0.0000 
      7 CA         -0.8640   -7.7530   15.8110 C.3       8 GLP5        0.0000 
      8 O          -2.4445   -7.0455   18.4790 O.2       1 ALC1        0.0000 
      9 O          -3.3580   -8.2450   17.9380 O.2       9 ALL1        0.0000 
     10 O          -1.5310   -5.8460   19.0200 O.2       5 ALP1        0.0000 
     11 O          -2.1820   -8.1120   18.6935 O.2       1 ALC1        0.0000 
     12 O          -1.0060   -7.9790   19.4490 O.2       5 ALP1        0.0000 
     13 CA         -5.1540   -8.7015   14.9015 C.3       4 GLC5        0.0000 
     14 CA         -5.6860   -6.7350   15.6940 C.3      12 GLL5        0.0000 
     15 CA         -4.6220  -10.6680   14.1090 C.3       8 GLP5        0.0000 
     16 CA         -6.5410   -8.1860   16.9385 C.3       4 GLC5        0.0000 
     17 O          -7.3730   -8.4415   15.2455 O.2       1 ALC1        0.0000 
     18 O          -6.8490   -7.1010   15.1010 O.2       9 ALL1        0.0000 
     19 O          -7.8970   -9.7820   15.3900 O.2       5 ALP1        0.0000 
     20 CA         -4.7295   -1.7505   17.4620 C.3       4 GLC5        0.0000 
     21 CA         -4.2700   -2.7840   15.9430 C.3      12 GLL5        0.0000 
     22 CA         -5.1890   -0.7170   18.9810 C.3       8 GLP5        0.0000 
     23 CA         -2.4415   -2.6225   15.9740 C.3       4 GLC5        0.0000 
     24 CA         -0.6130   -2.4610   16.0050 C.3       8 GLP5        0.0000 
     25 CA         -4.4265   -5.8115   18.6040 C.3       4 GLC5        0.0000 
     26 CA         -4.1270   -5.1020   16.5750 C.3      12 GLL5        0.0000 
     27 CA         -2.3700   -3.7815   16.2900 C.3       4 GLC5        0.0000 
     28 CA         -2.4955   -6.4275   16.1930 C.3       4 GLC5        0.0000 
     29 CA         -6.1940   -1.2445   12.5630 C.3       4 GLC5        0.0000 
     30 CA         -6.0040   -1.9700   14.3580 C.3      12 GLL5        0.0000 
     31 CA         -6.3840   -0.5190   10.7680 C.3       8 GLP5        0.0000 
     32 CA         -5.6490   -3.5330   12.8945 C.3       4 GLC5        0.0000 
     33 CA         -5.2940   -5.0960   11.4310 C.3       8 GLP5        0.0000 
     34 CA         -5.4510    1.1280   16.4725 C.3       4 GLC5        0.0000 
     35 CA         -5.7960    0.5140   14.4610 C.3      12 GLL5        0.0000 
     36 CA         -5.1060    1.7420   18.4840 C.3       8 GLP5        0.0000 
     37 CA         -7.4655    1.4955   13.9100 C.3       4 GLC5        0.0000 
     38 CA         -9.1350    2.4770   13.3590 C.3       8 GLP5        0.0000 
     39 CA         -6.0900   -0.0025   12.6145 C.3       4 GLC5        0.0000 
     40 CA         -1.7910   -1.2800    9.9085 C.3       4 GLC5        0.0000 
     41 CA         -1.5200   -0.7860   12.0370 C.3      12 GLL5        0.0000 
     42 CA         -2.0620   -1.7740    7.7800 C.3       8 GLP5        0.0000 
     43 CA         -4.5855    1.1575   11.8095 C.3       4 GLC5        0.0000 
     44 CA         -3.2910    0.4300   13.1380 C.3      12 GLL5        0.0000 
     45 CA         -5.8800    1.8850   10.4810 C.3       8 GLP5        0.0000 
     46 CA         -2.3945   -3.0125   10.5620 C.3       4 GLC5        0.0000 
     47 CA         -2.1010   -1.9440   12.3790 C.3      12 GLL5        0.0000 
     48 CA         -2.6880   -4.0810    8.7450 C.3       8 GLP5        0.0000 
     49 N           0.6925    0.5480    9.5230 N.am      2 SEC2        0.0000 
     50 N           0.2670    0.3340   10.6240 N.am     10 SEL2        0.0000 
     51 N           1.1180    0.7620    8.4220 N.am      6 SEP2        0.0000 
     52 CA         -0.0685   -2.7985    9.1525 C.3       4 GLC5        0.0000 
     53 CA          1.6370   -2.3060   10.5340 C.3      12 GLL5        0.0000 
     54 CA         -1.7740   -3.2910    7.7710 C.3       8 GLP5        0.0000 
     55 NZ          1.0210   -5.0145    8.2970 N.4       3 LYC4        0.0000 
     56 NZ          0.7450   -4.5220   10.0970 N.4      11 LYL4        0.0000 
     57 NZ          0.7650   -6.5430    6.9430 N.4       7 LYP4        0.0000 
     58 N           0.4615   -5.4845    9.1140 N.am      2 SEC2        0.0000 
     59 N           0.7450   -4.5220   10.0970 N.am     10 SEL2        0.0000 
     60 N           0.1780   -6.4470    8.1310 N.am      6 SEP2        0.0000 
     61 NZ          1.7675   -4.6115    7.5250 N.4       3 LYC4        0.0000 
     62 NZ          1.8640   -3.5820    8.4630 N.4      11 LYL4        0.0000 
     63 N           1.0210   -5.0145    8.2970 N.am      2 SEC2        0.0000 
     64 N           1.8640   -3.5820    8.4630 N.am     10 SEL2        0.0000 
     65 N           1.7675   -4.6115    7.5250 N.am      2 SEC2        0.0000 
     66 N           1.6710   -5.6410    6.5870 N.am      6 SEP2        0.0000 
     67 CA         -0.4792   -0.3148   13.8155 C.3       4 GLC5        0.0000 
     68 CA          0.8620   -0.4530   15.4180 C.3       8 GLP5        0.0000 
     69 CA         -3.2098    0.0207   10.7425 C.3       4 GLC5        0.0000 
     70 CA         -4.5990    0.2180    9.2720 C.3       8 GLP5        0.0000 
     71 CA         -4.9853   -0.9543   12.0525 C.3       4 GLC5        0.0000 
     72 CA         -3.2750   -1.9910   13.1500 C.3      12 GLL5        0.0000 
     73 CA         -1.7284   -2.0639   14.4315 C.3       4 GLC5        0.0000 
     74 CA         -3.8980   -0.7880   13.5240 C.3      12 GLL5        0.0000 
     75 CA          2.5735   -2.4925   13.5403 C.3       4 GLC5        0.0000 
     76 CA          2.6880   -2.6170   11.6120 C.3      12 GLL5        0.0000 
     77 CA          1.8080   -2.7830   15.4420 C.3       8 GLP5        0.0000 
     78 CA          4.2555   -3.7545   10.5598 C.3       4 GLC5        0.0000 
     79 CA          5.1720   -5.3070    9.4810 C.3       8 GLP5        0.0000 
@<TRIPOS>BOND
@<TRIPOS>SUBSTRUCTURE
     1 ALC1        8 GROUP        1 X    ALC  0     ROOT ALC X 1
     2 SEC2       49 GROUP        1 X    SEC  0     **** SEC X 2
     3 LYC4       55 GROUP        1 X    LYC  0     **** LYC X 4
     4 GLC5        1 GROUP        1 X    GLC  0     **** GLC X 6
     5 ALP1       10 GROUP        1 Y    ALP  0     ROOT ALP Y 8
     6 SEP2       51 GROUP        1 Y    SEP  0     **** SEP Y 9
     7 LYP4       57 GROUP        1 Y    LYP  0     **** LYP Y 11
     8 GLP5        3 GROUP        1 Y    GLP  0     **** GLP Y 13
     9 ALL1        9 GROUP        1 Z    ALL  0     ROOT ALL Z 15
    10 SEL2       50 GROUP        1 Z    SEL  0     **** SEL Z 16
    11 LYL4       56 GROUP        1 Z    LYL  0     **** LYL Z 18
    12 GLL5        2 GROUP        1 Z    GLL  0     **** GLL Z 20
@<TRIPOS>SET

