#    Name: 2qk8_MTX_1_ligand
#    Modification time : Mon Mar 24 22:25:04 2014

@<TRIPOS>MOLECULE
2qk8_MTX_1_ligand
   53    55     1     0     0
SMALL
NO_CHARGES


@<TRIPOS>ATOM
      1 N1         -3.4950   -6.0660   17.3120 N.ar      1 MTX200      0.0000 
      2 C2         -3.9620   -7.3240   17.2380 C.ar      1 MTX200      0.0000 
      3 NA2        -3.3580   -8.2450   17.9380 N.pl3     1 MTX200      0.0000 
      4 N3         -5.0490   -7.6650   16.4730 N.ar      1 MTX200      0.0000 
      5 C4         -5.6860   -6.7350   15.6940 C.ar      1 MTX200      0.0000 
      6 NA4        -6.8490   -7.1010   15.1010 N.pl3     1 MTX200      0.0000 
      7 C4A        -5.2220   -5.4150   15.7580 C.ar      1 MTX200      0.0000 
      8 N5         -5.8280   -4.3980   15.0450 N.ar      1 MTX200      0.0000 
      9 C6         -5.3590   -3.0800   15.1250 C.ar      1 MTX200      0.0000 
     10 C7         -4.2700   -2.7840   15.9430 C.ar      1 MTX200      0.0000 
     11 N8         -3.6560   -3.7940   16.6750 N.ar      1 MTX200      0.0000 
     12 C8A        -4.1270   -5.1020   16.5750 C.ar      1 MTX200      0.0000 
     13 C9         -6.0040   -1.9700   14.3580 C.3       1 MTX200      0.0000 
     14 N10        -5.1340   -0.7800   14.2830 N.pl3     1 MTX200      0.0000 
     15 CM         -5.7960    0.5140   14.4610 C.3       1 MTX200      0.0000 
     16 C11        -1.5200   -0.7860   12.0370 C.ar      1 MTX200      0.0000 
     17 C12        -2.1210    0.4330   12.3890 C.ar      1 MTX200      0.0000 
     18 C13        -3.2910    0.4300   13.1380 C.ar      1 MTX200      0.0000 
     19 C14        -3.8980   -0.7880   13.5240 C.ar      1 MTX200      0.0000 
     20 C15        -3.2750   -1.9910   13.1500 C.ar      1 MTX200      0.0000 
     21 C16        -2.1010   -1.9440   12.3790 C.ar      1 MTX200      0.0000 
     22 C          -0.2260   -0.8310   11.2560 C.2       1 MTX200      0.0000 
     23 O           0.2670    0.3340   10.6240 O.2       1 MTX200      0.0000 
     24 N           0.4100   -2.0050   11.2380 N.am      1 MTX200      0.0000 
     25 CA          1.6370   -2.3060   10.5340 C.3       1 MTX200      0.0000 
     26 CT          1.4110   -3.5310    9.6540 C.2       1 MTX200      0.0000 
     27 O1          0.7450   -4.5220   10.0970 O.co2     1 MTX200      0.0000 
     28 O2          1.8640   -3.5820    8.4630 O.co2     1 MTX200      0.0000 
     29 CB          2.6880   -2.6170   11.6120 C.3       1 MTX200      0.0000 
     30 CG          3.9900   -1.7870   11.6650 C.3       1 MTX200      0.0000 
     31 CD          3.7200   -0.3130   11.4530 C.2       1 MTX200      0.0000 
     32 OE1         4.0660    0.2550   10.3760 O.co2     1 MTX200      0.0000 
     33 OE2         3.1430    0.3670   12.3370 O.co2     1 MTX200      0.0000 
     34 H          -2.3859   -8.0943   18.1178 H         1 MTX200      0.0000 
     35 H          -3.9228   -9.0167   18.2303 H         1 MTX200      0.0000 
     36 H          -7.0544   -6.6615   14.2265 H         1 MTX200      0.0000 
     37 H          -7.3985   -7.7780   15.5905 H         1 MTX200      0.0000 
     38 H          -3.9221   -1.8189   16.0040 H         1 MTX200      0.0000 
     39 H          -6.9591   -1.7061   14.8401 H         1 MTX200      0.0000 
     40 H          -6.2422   -2.3245   13.3422 H         1 MTX200      0.0000 
     41 H          -1.6946    1.3149   12.0924 H         1 MTX200      0.0000 
     42 H          -3.7294    1.3175   13.4206 H         1 MTX200      0.0000 
     43 H          -3.6692   -2.8851   13.4340 H         1 MTX200      0.0000 
     44 H          -1.6881   -2.8594   12.0753 H         1 MTX200      0.0000 
     45 H           0.0039   -2.8347   11.7877 H         1 MTX200      0.0000 
     46 H           1.9661   -1.4937    9.9528 H         1 MTX200      0.0000 
     47 H           2.9718   -3.7018   11.5244 H         1 MTX200      0.0000 
     48 H           2.1912   -2.5471   12.6187 H         1 MTX200      0.0000 
     49 H           4.6674   -2.1539   10.8914 H         1 MTX200      0.0000 
     50 H           4.4603   -1.9406   12.6383 H         1 MTX200      0.0000 
     51 H          -5.1490    1.2739   14.3985 H         1 MTX200      0.0000 
     52 H          -6.4992    0.6700   13.7673 H         1 MTX200      0.0000 
     53 H          -6.2435    0.5827   15.3526 H         1 MTX200      0.0000 
@<TRIPOS>BOND
     1    2    1 ar   
     2   12    1 ar   
     3    3    2 1    
     4    4    2 ar   
     5   34    3 1    
     6   35    3 1    
     7    5    4 ar   
     8    6    5 1    
     9    7    5 ar   
    10   36    6 1    
    11   37    6 1    
    12    8    7 ar   
    13   12    7 ar   
    14    9    8 ar   
    15   10    9 ar   
    16   13    9 1    
    17   11   10 ar   
    18   38   10 1    
    19   12   11 ar   
    20   14   13 1    
    21   39   13 1    
    22   40   13 1    
    23   15   14 1    
    24   19   14 1    
    25   51   15 1    
    26   52   15 1    
    27   53   15 1    
    28   17   16 ar   
    29   21   16 ar   
    30   22   16 1    
    31   18   17 ar   
    32   41   17 1    
    33   19   18 ar   
    34   42   18 1    
    35   20   19 ar   
    36   21   20 ar   
    37   43   20 1    
    38   44   21 1    
    39   23   22 2    
    40   24   22 am   
    41   25   24 1    
    42   45   24 1    
    43   26   25 1    
    44   29   25 1    
    45   46   25 1    
    46   27   26 ar   
    47   28   26 ar   
    48   30   29 1    
    49   47   29 1    
    50   48   29 1    
    51   31   30 1    
    52   49   30 1    
    53   50   30 1    
    54   32   31 ar   
    55   33   31 ar   
@<TRIPOS>SUBSTRUCTURE
     1 MTX200      1 GROUP   
@<TRIPOS>SET

