#    Name: 2w98_P1Z_4_INTS_M
#    Modification time : Tue Mar 25 03:47:43 2014

@<TRIPOS>MOLECULE
2w98_P1Z_4_INTS_M
   50     0     6     0     0
SMALL
NO_CHARGES


@<TRIPOS>ATOM
      1 CA         43.5235  -13.9785   12.7825 C.3       2 GLC5        0.0000 
      2 CA         41.9560  -12.7670   13.4040 C.3       6 GLL5        0.0000 
      3 CA         45.0910  -15.1900   12.1610 C.3       4 GLP5        0.0000 
      4 CA         39.9125  -14.6685   14.9485 C.3       2 GLC5        0.0000 
      5 CA         39.7890  -13.0240   14.4190 C.3       6 GLL5        0.0000 
      6 CA         40.0360  -16.3130   15.4780 C.3       4 GLP5        0.0000 
      7 CA         42.6980   -8.5255    8.2180 C.3       2 GLC5        0.0000 
      8 CA         42.8460   -9.6960    9.8340 C.3       6 GLL5        0.0000 
      9 CA         42.5500   -7.3550    6.6020 C.3       4 GLP5        0.0000 
     10 CA         41.5395   -7.7155    9.9900 C.3       2 GLC5        0.0000 
     11 CA         42.4020   -9.3820   11.1240 C.3       6 GLL5        0.0000 
     12 CA         40.6770   -6.0490    8.8560 C.3       4 GLP5        0.0000 
     13 CA         40.6940   -8.6600   12.1555 C.3       2 GLC5        0.0000 
     14 CA         38.9860   -7.9380   13.1870 C.3       4 GLP5        0.0000 
     15 CA         42.7530   -9.3375   14.2160 C.3       2 GLC5        0.0000 
     16 CA         42.9710  -10.0870   12.1930 C.3       6 GLL5        0.0000 
     17 CA         42.5350   -8.5880   16.2390 C.3       4 GLP5        0.0000 
     18 CA         46.6120  -15.9060   14.1625 C.3       2 GLC5        0.0000 
     19 CA         47.0020  -15.6040   16.3220 C.3       6 GLL5        0.0000 
     20 CA         46.2220  -16.2080   12.0030 C.3       4 GLP5        0.0000 
     21 CA         46.0410  -14.7100   13.8675 C.3       2 GLC5        0.0000 
     22 CA         46.9910  -14.2300   15.5740 C.3       6 GLL5        0.0000 
     23 CA         48.9290  -13.8825   15.8735 C.3       2 GLC5        0.0000 
     24 CA         47.1540  -12.9950   16.4940 C.3       6 GLL5        0.0000 
     25 CA         50.7040  -14.7700   15.2530 C.3       4 GLP5        0.0000 
     26 CA         45.4385  -13.5575   13.5370 C.3       2 GLC5        0.0000 
     27 CA         45.7860  -11.9250   14.9130 C.3       6 GLL5        0.0000 
     28 N          47.9270  -12.0850   12.8325 N.am      1 SEC2        0.0000 
     29 N          46.6190  -11.7870   12.6530 N.am      5 SEL2        0.0000 
     30 N          49.2350  -12.3830   13.0120 N.am      3 SEP2        0.0000 
     31 CA         41.2207  -14.0370   15.5158 C.3       2 GLC5        0.0000 
     32 CA         41.5540  -11.7220   15.4940 C.3       6 GLL5        0.0000 
     33 CA         41.5350  -16.0910   15.5500 C.3       4 GLP5        0.0000 
     34 CA         39.7463  -10.6845   14.4752 C.3       2 GLC5        0.0000 
     35 CA         38.5860   -9.3860   13.4690 C.3       4 GLP5        0.0000 
     36 CA         42.0976  -10.2572   15.5936 C.3       2 GLC5        0.0000 
     37 CA         42.4140  -11.8700   14.4150 C.3       6 GLL5        0.0000 
     38 CA         41.4787  -14.4454   14.5941 C.3       2 GLC5        0.0000 
     39 CA         39.4052  -11.2692   13.6810 C.3       2 GLC5        0.0000 
     40 CA         40.6600  -13.2810   13.3670 C.3       6 GLL5        0.0000 
     41 CA         42.6322   -7.8005   11.6420 C.3       2 GLC5        0.0000 
     42 CA         42.4670   -5.7880   11.9480 C.3       4 GLP5        0.0000 
     43 CA         44.6035  -13.2295   11.7792 C.3       2 GLC5        0.0000 
     44 CA         43.8890  -11.1450   12.0410 C.3       6 GLL5        0.0000 
     45 CA         48.8503  -14.8435   15.6005 C.3       2 GLC5        0.0000 
     46 CA         48.1103  -12.0832   17.7205 C.3       2 GLC5        0.0000 
     47 CA         49.1320  -11.8390   19.3200 C.3       4 GLP5        0.0000 
     48 CA         47.0673  -10.3418   14.2427 C.3       2 GLC5        0.0000 
     49 CA         47.0230  -11.6600   15.7480 C.3       6 GLL5        0.0000 
     50 CA         47.7300   -8.8910   13.1550 C.3       4 GLP5        0.0000 
@<TRIPOS>BOND
@<TRIPOS>SUBSTRUCTURE
     1 SEC2       28 GROUP        1 X    SEC  0     ROOT SEC X 2
     2 GLC5        1 GROUP        1 X    GLC  0     **** GLC X 6
     3 SEP2       30 GROUP        1 Y    SEP  0     ROOT SEP Y 9
     4 GLP5        3 GROUP        1 Y    GLP  0     **** GLP Y 13
     5 SEL2       29 GROUP        1 Z    SEL  0     ROOT SEL Z 16
     6 GLL5        2 GROUP        1 Z    GLL  0     **** GLL Z 20
@<TRIPOS>SET

