#    Name: 2w98_P1Z_4_ligand
#    Modification time : Tue Mar 25 03:47:43 2014

@<TRIPOS>MOLECULE
2w98_P1Z_4_ligand
   42    44     1     0     0
SMALL
NO_CHARGES


@<TRIPOS>ATOM
      1 C16        40.2590  -12.2440   15.4690 C.ar      1 P1Z1356     0.0000 
      2 C17        41.5540  -11.7220   15.4940 C.ar      1 P1Z1356     0.0000 
      3 C12        42.4140  -11.8700   14.4150 C.ar      1 P1Z1356     0.0000 
      4 C13        41.9560  -12.7670   13.4040 C.ar      1 P1Z1356     0.0000 
      5 C14        40.6600  -13.2810   13.3670 C.ar      1 P1Z1356     0.0000 
      6 C15        39.7890  -13.0240   14.4190 C.ar      1 P1Z1356     0.0000 
      7 C8         43.7970  -10.6900    9.6560 C.ar      1 P1Z1356     0.0000 
      8 C9         42.8460   -9.6960    9.8340 C.ar      1 P1Z1356     0.0000 
      9 C10        42.4020   -9.3820   11.1240 C.ar      1 P1Z1356     0.0000 
     10 C11        42.9710  -10.0870   12.1930 C.ar      1 P1Z1356     0.0000 
     11 C6         43.8890  -11.1450   12.0410 C.ar      1 P1Z1356     0.0000 
     12 C7         44.3430  -11.3930   10.7540 C.ar      1 P1Z1356     0.0000 
     13 C21        47.0020  -15.6040   16.3220 C.3       1 P1Z1356     0.0000 
     14 C20        46.9910  -14.2300   15.5740 C.3       1 P1Z1356     0.0000 
     15 C19        47.1540  -12.9950   16.4940 C.3       1 P1Z1356     0.0000 
     16 C18        47.0230  -11.6600   15.7480 C.3       1 P1Z1356     0.0000 
     17 N2         43.6850  -11.5400   14.2860 N.am      1 P1Z1356     0.0000 
     18 C3         44.4630  -11.6170   15.3990 C.2       1 P1Z1356     0.0000 
     19 C4         45.7860  -11.9250   14.9130 C.2       1 P1Z1356     0.0000 
     20 C5         45.6870  -11.6290   13.4470 C.2       1 P1Z1356     0.0000 
     21 N1         44.3470  -11.6620   13.2010 N.am      1 P1Z1356     0.0000 
     22 O3         44.0760  -11.7800   16.5600 O.2       1 P1Z1356     0.0000 
     23 O5         46.6190  -11.7870   12.6530 O.2       1 P1Z1356     0.0000 
     24 H          39.6215  -12.0389   16.2711 H         1 P1Z1356     0.0000 
     25 H          41.8764  -11.2134   16.3389 H         1 P1Z1356     0.0000 
     26 H          42.6356  -13.0446   12.6602 H         1 P1Z1356     0.0000 
     27 H          40.3538  -13.8448   12.5676 H         1 P1Z1356     0.0000 
     28 H          38.8461  -13.3917   14.4205 H         1 P1Z1356     0.0000 
     29 H          44.1213  -10.9306    8.7027 H         1 P1Z1356     0.0000 
     30 H          42.4659   -9.1896    9.0271 H         1 P1Z1356     0.0000 
     31 H          41.7002   -8.6762   11.2785 H         1 P1Z1356     0.0000 
     32 H          42.6977   -9.8115   13.1713 H         1 P1Z1356     0.0000 
     33 H          45.0798  -12.0893   10.5857 H         1 P1Z1356     0.0000 
     34 H          46.0434  -14.1431   15.0244 H         1 P1Z1356     0.0000 
     35 H          47.8028  -14.2331   14.8334 H         1 P1Z1356     0.0000 
     36 H          48.1385  -13.0438   16.9744 H         1 P1Z1356     0.0000 
     37 H          46.3934  -13.0429   17.2824 H         1 P1Z1356     0.0000 
     38 H          47.8584  -11.5194   15.1290 H         1 P1Z1356     0.0000 
     39 H          46.8412  -10.8889   16.4359 H         1 P1Z1356     0.0000 
     40 H          47.8564  -15.7483   16.8212 H         1 P1Z1356     0.0000 
     41 H          46.2588  -15.6704   16.9878 H         1 P1Z1356     0.0000 
     42 H          46.8986  -16.3719   15.6898 H         1 P1Z1356     0.0000 
@<TRIPOS>BOND
     1    2    1 ar   
     2    6    1 ar   
     3   24    1 1    
     4    3    2 ar   
     5   25    2 1    
     6    4    3 ar   
     7   17    3 1    
     8    5    4 ar   
     9   26    4 1    
    10    6    5 ar   
    11   27    5 1    
    12   28    6 1    
    13    8    7 ar   
    14   12    7 ar   
    15   29    7 1    
    16    9    8 ar   
    17   30    8 1    
    18   10    9 ar   
    19   31    9 1    
    20   11   10 ar   
    21   32   10 1    
    22   12   11 ar   
    23   21   11 1    
    24   33   12 1    
    25   14   13 1    
    26   40   13 1    
    27   41   13 1    
    28   42   13 1    
    29   15   14 1    
    30   34   14 1    
    31   35   14 1    
    32   16   15 1    
    33   36   15 1    
    34   37   15 1    
    35   19   16 1    
    36   38   16 1    
    37   39   16 1    
    38   18   17 am   
    39   21   17 1    
    40   19   18 1    
    41   22   18 2    
    42   20   19 1    
    43   21   20 am   
    44   23   20 2    
@<TRIPOS>SUBSTRUCTURE
     1 P1Z1356     1 GROUP   
@<TRIPOS>SET

