#    Name: 4ly9_1YY_2_INTS_M
#    Modification time : Tue Mar 25 11:39:12 2014

@<TRIPOS>MOLECULE
4ly9_1YY_2_INTS_M
  104     0     9     0     0
SMALL
NO_CHARGES


@<TRIPOS>ATOM
      1 CA         25.5325  -33.5560  -10.5245 C.3       3 GLC5        0.0000 
      2 CA         26.7090  -33.5430  -12.3760 C.3       9 GLL5        0.0000 
      3 CA         24.3560  -33.5690   -8.6730 C.3       6 GLP5        0.0000 
      4 CA         26.0095  -30.5080  -13.0960 C.3       3 GLC5        0.0000 
      5 CA         27.3340  -32.1510  -12.4980 C.3       9 GLL5        0.0000 
      6 CA         24.6850  -28.8650  -13.6940 C.3       6 GLP5        0.0000 
      7 CA         26.6455  -32.0175   -9.3635 C.3       3 GLC5        0.0000 
      8 CA         26.8740  -31.2420  -11.3580 C.3       9 GLL5        0.0000 
      9 CA         26.4170  -32.7930   -7.3690 C.3       6 GLP5        0.0000 
     10 CA         26.3475  -29.7460  -10.0845 C.3       3 GLC5        0.0000 
     11 CA         25.8210  -28.2500   -8.8110 C.3       6 GLP5        0.0000 
     12 CA         25.5780  -29.8465  -11.8860 C.3       3 GLC5        0.0000 
     13 CA         24.2820  -28.4510  -12.4140 C.3       6 GLP5        0.0000 
     14 N          26.5920  -31.0140   -9.0720 N.am      2 SEC2        0.0000 
     15 N          27.4470  -31.4410  -10.0980 N.am      8 SEL2        0.0000 
     16 N          25.7370  -30.5870   -8.0460 N.am      5 SEP2        0.0000 
     17 CA         27.6580  -31.9690   -8.8070 C.3       3 GLC5        0.0000 
     18 CA         28.8990  -31.1450  -10.2450 C.3       9 GLL5        0.0000 
     19 CA         28.0895  -29.6675   -9.3125 C.3       3 GLC5        0.0000 
     20 CA         27.2800  -28.1900   -8.3800 C.3       6 GLP5        0.0000 
     21 CA         29.6580  -35.1325  -13.3075 C.3       3 GLC5        0.0000 
     22 CA         29.3680  -33.0130  -13.6060 C.3       9 GLL5        0.0000 
     23 CA         29.9480  -37.2520  -13.0090 C.3       6 GLP5        0.0000 
     24 CA         27.8180  -33.2880  -14.9505 C.3       3 GLC5        0.0000 
     25 CA         26.2680  -33.5630  -16.2950 C.3       6 GLP5        0.0000 
     26 CA         32.6145  -32.4455  -16.0315 C.3       3 GLC5        0.0000 
     27 CA         31.8890  -32.7150  -13.9510 C.3       9 GLL5        0.0000 
     28 CA         33.3400  -32.1760  -18.1120 C.3       6 GLP5        0.0000 
     29 CA         37.0885  -32.4955  -11.9020 C.3       3 GLC5        0.0000 
     30 CA         36.3270  -32.2250  -13.5370 C.3       9 GLL5        0.0000 
     31 CA         37.8500  -32.7660  -10.2670 C.3       6 GLP5        0.0000 
     32 CA         38.4685  -32.9210  -15.9245 C.3       3 GLC5        0.0000 
     33 CA         36.7780  -32.9220  -14.6220 C.3       9 GLL5        0.0000 
     34 CA         40.1590  -32.9200  -17.2270 C.3       6 GLP5        0.0000 
     35 CA         37.4430  -33.5305  -12.7285 C.3       3 GLC5        0.0000 
     36 CA         38.1080  -34.1390  -10.8350 C.3       6 GLP5        0.0000 
     37 CA         36.4980  -35.2850  -13.1280 C.3       3 GLC5        0.0000 
     38 CA         35.7470  -34.2680  -14.8900 C.3       9 GLL5        0.0000 
     39 CA         37.2490  -36.3020  -11.3660 C.3       6 GLP5        0.0000 
     40 CA         35.9075  -36.0120  -15.9735 C.3       3 GLC5        0.0000 
     41 CA         36.0680  -37.7560  -17.0570 C.3       6 GLP5        0.0000 
     42 CA         29.6430  -35.6145  -16.6920 C.3       3 GLC5        0.0000 
     43 CA         30.7780  -34.2340  -16.0440 C.3       9 GLL5        0.0000 
     44 CA         28.5080  -36.9950  -17.3400 C.3       6 GLP5        0.0000 
     45 CA         29.2885  -34.5930  -18.9365 C.3       3 GLC5        0.0000 
     46 CA         29.3260  -32.7230  -18.0190 C.3       9 GLL5        0.0000 
     47 CA         29.2510  -36.4630  -19.8540 C.3       6 GLP5        0.0000 
     48 CA         26.9040  -28.1210  -22.8335 C.3       3 GLC5        0.0000 
     49 CA         26.2520  -29.0040  -21.0940 C.3       9 GLL5        0.0000 
     50 CA         27.5560  -27.2380  -24.5730 C.3       6 GLP5        0.0000 
     51 CA         24.1340  -28.6540  -20.7370 C.3       3 GLC5        0.0000 
     52 CA         22.0160  -28.3040  -20.3800 C.3       6 GLP5        0.0000 
     53 CA         29.5170  -29.0580  -21.3585 C.3       3 GLC5        0.0000 
     54 CA         27.8920  -30.4200  -21.2920 C.3       9 GLL5        0.0000 
     55 CA         31.1420  -27.6960  -21.4250 C.3       6 GLP5        0.0000 
     56 CA         28.4670  -29.0060  -22.9195 C.3       3 GLC5        0.0000 
     57 CA         29.0420  -27.5920  -24.5470 C.3       6 GLP5        0.0000 
     58 CA         28.7965  -31.1455  -23.0435 C.3       3 GLC5        0.0000 
     59 CA         29.7010  -31.8710  -24.7950 C.3       6 GLP5        0.0000 
     60 CA         29.1660  -28.2425  -18.7415 C.3       3 GLC5        0.0000 
     61 CA         27.9060  -28.7460  -19.8410 C.3       9 GLL5        0.0000 
     62 CA         30.4260  -27.7390  -17.6420 C.3       6 GLP5        0.0000 
     63 CA         29.5240  -28.2210  -20.6330 C.3       3 GLC5        0.0000 
     64 CA         25.3735  -33.6200  -20.5480 C.3       3 GLC5        0.0000 
     65 CA         25.8250  -31.6400  -20.1170 C.3       9 GLL5        0.0000 
     66 CA         24.9220  -35.6000  -20.9790 C.3       6 GLP5        0.0000 
     67 CA         23.7730  -31.1660  -19.8795 C.3       3 GLC5        0.0000 
     68 CA         21.7210  -30.6920  -19.6420 C.3       6 GLP5        0.0000 
     69 N          24.4885  -28.9055  -19.2185 N.am      2 SEC2        0.0000 
     70 N          25.6350  -29.6900  -18.6680 N.am      8 SEL2        0.0000 
     71 N          23.3420  -28.1210  -19.7690 N.am      5 SEP2        0.0000 
     72 N          25.3475  -28.2540  -18.7885 N.am      2 SEC2        0.0000 
     73 N          25.0600  -26.8180  -18.9090 N.am      5 SEP2        0.0000 
     74 O          24.9470  -30.1120  -17.6790 O.2       1 ALC1        0.0000 
     75 O          25.6350  -29.6900  -18.6680 O.2       7 ALL1        0.0000 
     76 O          24.2590  -30.5340  -16.6900 O.2       4 ALP1        0.0000 
     77 CA         26.6448  -33.2050  -14.3660 C.3       3 GLC5        0.0000 
     78 CA         30.2587  -32.7698   -9.1725 C.3       3 GLC5        0.0000 
     79 CA         29.5200  -32.1900  -11.2070 C.3       9 GLL5        0.0000 
     80 CA         31.3080  -33.8720   -7.6190 C.3       6 GLP5        0.0000 
     81 CA         32.0855  -30.6885  -14.5590 C.3       3 GLC5        0.0000 
     82 CA         32.9770  -28.8550  -14.9040 C.3       6 GLP5        0.0000 
     83 CA         35.9825  -34.1752  -11.9593 C.3       3 GLC5        0.0000 
     84 CA         35.2320  -32.7450  -12.9280 C.3       9 GLL5        0.0000 
     85 CA         36.9670  -35.0470  -10.6820 C.3       6 GLP5        0.0000 
     86 CA         35.3084  -31.0757  -14.3461 C.3       3 GLC5        0.0000 
     87 CA         34.3380  -29.4480  -14.7650 C.3       6 GLP5        0.0000 
     88 CA         37.8438  -34.8245  -14.7760 C.3       3 GLC5        0.0000 
     89 CA         39.4250  -36.0540  -14.7960 C.3       6 GLP5        0.0000 
     90 CA         32.3740  -33.2990  -16.8843 C.3       3 GLC5        0.0000 
     91 CA         32.0380  -34.6100  -15.2690 C.3       9 GLL5        0.0000 
     92 CA         30.6780  -35.8370  -14.3328 C.3       3 GLC5        0.0000 
     93 CA         27.8313  -33.0250  -16.8315 C.3       3 GLC5        0.0000 
     94 CA         30.6806  -31.7265  -18.4282 C.3       3 GLC5        0.0000 
     95 CA         29.4630  -32.2510  -16.7170 C.3       9 GLL5        0.0000 
     96 CA         32.4730  -31.1340  -18.7380 C.3       6 GLP5        0.0000 
     97 CA         27.1168  -32.5975  -17.4715 C.3       3 GLC5        0.0000 
     98 CA         28.3820  -32.1510  -18.8690 C.3       9 GLL5        0.0000 
     99 CA         28.3875  -29.0413  -16.3855 C.3       3 GLC5        0.0000 
    100 CA         27.7020  -30.6410  -17.1570 C.3       9 GLL5        0.0000 
    101 CA         28.5950  -27.1630  -16.0340 C.3       6 GLP5        0.0000 
    102 CA         27.2240  -32.2413  -16.5160 C.3       3 GLC5        0.0000 
    103 CA         26.2228  -32.3160  -18.0225 C.3       3 GLC5        0.0000 
    104 CA         26.5300  -30.4980  -19.3830 C.3       9 GLL5        0.0000 
@<TRIPOS>BOND
@<TRIPOS>SUBSTRUCTURE
     1 ALC1       74 GROUP        1 X    ALC  0     ROOT ALC X 1
     2 SEC2       14 GROUP        1 X    SEC  0     **** SEC X 2
     3 GLC5        1 GROUP        1 X    GLC  0     **** GLC X 6
     4 ALP1       76 GROUP        1 Y    ALP  0     ROOT ALP Y 8
     5 SEP2       16 GROUP        1 Y    SEP  0     **** SEP Y 9
     6 GLP5        3 GROUP        1 Y    GLP  0     **** GLP Y 13
     7 ALL1       75 GROUP        1 Z    ALL  0     ROOT ALL Z 15
     8 SEL2       15 GROUP        1 Z    SEL  0     **** SEL Z 16
     9 GLL5        2 GROUP        1 Z    GLL  0     **** GLL Z 20
@<TRIPOS>SET

