#    Name: 4ly9_1YY_2_ligand
#    Modification time : Tue Mar 25 11:39:12 2014

@<TRIPOS>MOLECULE
4ly9_1YY_2_ligand
   66    69     1     0     0
SMALL
NO_CHARGES


@<TRIPOS>ATOM
      1 C22        26.7090  -33.5430  -12.3760 C.3       1 1YY716      0.0000 
      2 C21        27.3340  -32.1510  -12.4980 C.3       1 1YY716      0.0000 
      3 C20        26.8740  -31.2420  -11.3580 C.3       1 1YY716      0.0000 
      4 O4         27.4470  -31.4410  -10.0980 O.3       1 1YY716      0.0000 
      5 C19        28.8990  -31.1450  -10.2450 C.3       1 1YY716      0.0000 
      6 C18        29.5200  -32.1900  -11.2070 C.3       1 1YY716      0.0000 
      7 N3         28.8160  -32.1120  -12.5470 N.4       1 1YY716      0.0000 
      8 C5         29.3680  -33.0130  -13.6060 C.3       1 1YY716      0.0000 
      9 C3         30.4990  -32.3290  -14.4770 C.3       1 1YY716      0.0000 
     10 C2         31.8890  -32.7150  -13.9510 C.3       1 1YY716      0.0000 
     11 N1         32.0090  -34.1870  -13.8820 N.pl3     1 1YY716      0.0000 
     12 S1         33.3760  -34.7790  -13.0880 S.o2      1 1YY716      0.0000 
     13 O1         33.5170  -36.2010  -13.4810 O.2       1 1YY716      0.0000 
     14 O2         33.1770  -34.5360  -11.6420 O.2       1 1YY716      0.0000 
     15 C6         34.7640  -33.8620  -13.5450 C.2       1 1YY716      0.0000 
     16 C7         35.2320  -32.7450  -12.9280 C.2       1 1YY716      0.0000 
     17 C8         36.3270  -32.2250  -13.5370 C.2       1 1YY716      0.0000 
     18 C9         36.7780  -32.9220  -14.6220 C.2       1 1YY716      0.0000 
     19 S2         35.7470  -34.2680  -14.8900 S.3       1 1YY716      0.0000 
     20 C1         32.0380  -34.6100  -15.2690 C.3       1 1YY716      0.0000 
     21 C4         30.7780  -34.2340  -16.0440 C.3       1 1YY716      0.0000 
     22 N2         30.3520  -32.8350  -15.8180 N.3       1 1YY716      0.0000 
     23 C10        29.4630  -32.2510  -16.7170 C.ar      1 1YY716      0.0000 
     24 C15        29.3260  -32.7230  -18.0190 C.ar      1 1YY716      0.0000 
     25 C14        28.3820  -32.1510  -18.8690 C.ar      1 1YY716      0.0000 
     26 C11        28.6580  -31.1980  -16.3170 C.ar      1 1YY716      0.0000 
     27 C12        27.7020  -30.6410  -17.1570 C.ar      1 1YY716      0.0000 
     28 C13        27.5490  -31.1130  -18.4270 C.ar      1 1YY716      0.0000 
     29 C16        26.5300  -30.4980  -19.3830 C.3       1 1YY716      0.0000 
     30 C23        27.1820  -29.6470  -20.4380 C.3       1 1YY716      0.0000 
     31 F2         26.2520  -29.0040  -21.0940 F         1 1YY716      0.0000 
     32 F3         27.8920  -30.4200  -21.2920 F         1 1YY716      0.0000 
     33 F1         27.9060  -28.7460  -19.8410 F         1 1YY716      0.0000 
     34 C17        25.8250  -31.6400  -20.1170 C.3       1 1YY716      0.0000 
     35 O3         25.6350  -29.6900  -18.6680 O.3       1 1YY716      0.0000 
     36 H          26.9431  -31.6873  -13.4283 H         1 1YY716      0.0000 
     37 H          25.7443  -31.3312  -11.3164 H         1 1YY716      0.0000 
     38 H          27.0281  -30.1778  -11.7181 H         1 1YY716      0.0000 
     39 H          29.4039  -31.2186   -9.2917 H         1 1YY716      0.0000 
     40 H          29.0490  -30.1617  -10.6689 H         1 1YY716      0.0000 
     41 H          29.3932  -33.1737  -10.7781 H         1 1YY716      0.0000 
     42 H          30.5709  -31.9688  -11.3268 H         1 1YY716      0.0000 
     43 H          29.0641  -31.0346  -12.9391 H         1 1YY716      0.0000 
     44 H          28.5758  -33.3310  -14.2947 H         1 1YY716      0.0000 
     45 H          29.8039  -33.9144  -13.1582 H         1 1YY716      0.0000 
     46 H          30.3662  -31.2861  -14.4257 H         1 1YY716      0.0000 
     47 H          32.0180  -32.2719  -12.9640 H         1 1YY716      0.0000 
     48 H          32.6385  -32.2991  -14.6236 H         1 1YY716      0.0000 
     49 H          34.8159  -32.3526  -12.1181 H         1 1YY716      0.0000 
     50 H          36.7788  -31.3852  -13.2159 H         1 1YY716      0.0000 
     51 H          37.4652  -32.8485  -15.2135 H         1 1YY716      0.0000 
     52 H          32.1647  -35.7093  -15.3423 H         1 1YY716      0.0000 
     53 H          32.9055  -34.1653  -15.7977 H         1 1YY716      0.0000 
     54 H          29.9711  -34.9287  -15.7510 H         1 1YY716      0.0000 
     55 H          30.9687  -34.4041  -17.1183 H         1 1YY716      0.0000 
     56 H          29.9194  -33.4915  -18.3532 H         1 1YY716      0.0000 
     57 H          28.2912  -32.4933  -19.8389 H         1 1YY716      0.0000 
     58 H          28.7714  -30.8092  -15.3550 H         1 1YY716      0.0000 
     59 H          27.1112  -29.8678  -16.8078 H         1 1YY716      0.0000 
     60 H          27.0004  -34.1472  -13.1176 H         1 1YY716      0.0000 
     61 H          26.9616  -33.9896  -11.5177 H         1 1YY716      0.0000 
     62 H          25.7101  -33.5054  -12.4039 H         1 1YY716      0.0000 
     63 H          26.4685  -32.1977  -20.6413 H         1 1YY716      0.0000 
     64 H          25.3537  -32.2537  -19.4835 H         1 1YY716      0.0000 
     65 H          25.1393  -31.3004  -20.7608 H         1 1YY716      0.0000 
     66 H          25.2621  -30.2846  -17.9557 H         1 1YY716      0.0000 
@<TRIPOS>BOND
     1    2    1 1    
     2   60    1 1    
     3   61    1 1    
     4   62    1 1    
     5    3    2 1    
     6    7    2 1    
     7   36    2 1    
     8    4    3 1    
     9   37    3 1    
    10   38    3 1    
    11    5    4 1    
    12    6    5 1    
    13   39    5 1    
    14   40    5 1    
    15    7    6 1    
    16   41    6 1    
    17   42    6 1    
    18    8    7 1    
    19   43    7 1    
    20    9    8 1    
    21   44    8 1    
    22   45    8 1    
    23   10    9 1    
    24   22    9 1    
    25   46    9 1    
    26   11   10 1    
    27   47   10 1    
    28   48   10 1    
    29   12   11 1    
    30   20   11 1    
    31   13   12 2    
    32   14   12 2    
    33   15   12 1    
    34   16   15 2    
    35   19   15 1    
    36   17   16 1    
    37   49   16 1    
    38   18   17 2    
    39   50   17 1    
    40   19   18 1    
    41   51   18 1    
    42   21   20 1    
    43   52   20 1    
    44   53   20 1    
    45   22   21 1    
    46   54   21 1    
    47   55   21 1    
    48   23   22 1    
    49   24   23 ar   
    50   26   23 ar   
    51   25   24 ar   
    52   56   24 1    
    53   28   25 ar   
    54   57   25 1    
    55   27   26 ar   
    56   58   26 1    
    57   28   27 ar   
    58   59   27 1    
    59   29   28 1    
    60   30   29 1    
    61   34   29 1    
    62   35   29 1    
    63   31   30 1    
    64   32   30 1    
    65   33   30 1    
    66   63   34 1    
    67   64   34 1    
    68   65   34 1    
    69   66   35 1    
@<TRIPOS>SUBSTRUCTURE
     1 1YY716      1 GROUP   
@<TRIPOS>SET

