#    Name: 3p7n_FMN_2_INTS_M
#    Modification time : Tue Mar 25 06:02:46 2014

@<TRIPOS>MOLECULE
3p7n_FMN_2_INTS_M
   66     0    12     0     0
SMALL
NO_CHARGES


@<TRIPOS>ATOM
      1 N           3.7330  -14.1215   51.8095 N.am      2 SEC2        0.0000 
      2 N           4.2590  -12.9460   50.9130 N.am     10 SEL2        0.0000 
      3 N           3.2070  -15.2970   52.7060 N.am      6 SEP2        0.0000 
      4 O           5.2995  -13.5485   53.3135 O.2       1 ALC1        0.0000 
      5 O           5.7920  -12.5240   52.5240 O.2       9 ALL1        0.0000 
      6 O           4.8070  -14.5730   54.1030 O.2       5 ALP1        0.0000 
      7 N           8.6760  -11.5180   54.8140 N.am      2 SEC2        0.0000 
      8 N           7.3830  -12.0160   54.0460 N.am     10 SEL2        0.0000 
      9 N           9.9690  -11.0200   55.5820 N.am      6 SEP2        0.0000 
     10 CA         13.5380   -7.1565   50.0420 C.3       4 GLC5        0.0000 
     11 CA         12.2400   -7.0350   51.4010 C.3      12 GLL5        0.0000 
     12 CA         14.8360   -7.2780   48.6830 C.3       8 GLP5        0.0000 
     13 CA         13.4180   -8.8525   51.0160 C.3       4 GLC5        0.0000 
     14 CA         14.5960  -10.6700   50.6310 C.3       8 GLP5        0.0000 
     15 CA         12.6100   -5.2585   50.5700 C.3       4 GLC5        0.0000 
     16 CA         12.9800   -3.4820   49.7390 C.3       8 GLP5        0.0000 
     17 CA         12.8935   -5.6445   52.8015 C.3       4 GLC5        0.0000 
     18 CA         13.5470   -4.2540   54.2020 C.3       8 GLP5        0.0000 
     19 CA         12.9685   -6.9735   48.7210 C.3       4 GLC5        0.0000 
     20 CA         11.1010   -6.6690   48.7590 C.3      12 GLL5        0.0000 
     21 CA          9.6720   -5.3760   48.0825 C.3       4 GLC5        0.0000 
     22 CA          8.2430   -4.0830   47.4060 C.3       8 GLP5        0.0000 
     23 CA         12.0405   -5.0755   49.2490 C.3       4 GLC5        0.0000 
     24 CA          6.0395   -8.3480   48.9455 C.3       4 GLC5        0.0000 
     25 CA          7.0320   -9.6950   48.5310 C.3      12 GLL5        0.0000 
     26 CA          5.0470   -7.0010   49.3600 C.3       8 GLP5        0.0000 
     27 CA          7.7260  -12.9500   47.5510 C.3       4 GLC5        0.0000 
     28 CA          7.2730  -10.9790   47.7530 C.3      12 GLL5        0.0000 
     29 CA          8.1790  -14.9210   47.3490 C.3       8 GLP5        0.0000 
     30 N           9.3185  -11.6705   46.4555 N.am      2 SEC2        0.0000 
     31 N           8.6240  -11.0290   47.3500 N.am     10 SEL2        0.0000 
     32 N          10.0130  -12.3120   45.5610 N.am      6 SEP2        0.0000 
     33 CA          5.2320   -8.3280   44.0510 C.3       4 GLC5        0.0000 
     34 CA          6.1610  -10.2790   44.1650 C.3      12 GLL5        0.0000 
     35 CA          4.3030   -6.3770   43.9370 C.3       8 GLP5        0.0000 
     36 NZ          7.3135  -12.4215   41.8980 N.4       3 LYC4        0.0000 
     37 NZ          5.7260  -12.5120   41.9950 N.4      11 LYL4        0.0000 
     38 NZ          9.0230  -13.5750   42.2450 N.4       7 LYP4        0.0000 
     39 N           6.8895  -13.3185   42.4805 N.am      2 SEC2        0.0000 
     40 N           5.7260  -12.5120   41.9950 N.am     10 SEL2        0.0000 
     41 N           8.0530  -14.1250   42.9660 N.am      6 SEP2        0.0000 
     42 N           7.3135  -12.4215   41.8980 N.am      2 SEC2        0.0000 
     43 N           8.9010  -12.3310   41.8010 N.am      6 SEP2        0.0000 
     44 NZ          3.9255   -8.7990   41.0890 N.4       3 LYC4        0.0000 
     45 NZ          4.2620  -10.5100   41.9850 N.4      11 LYL4        0.0000 
     46 NZ          3.5890   -7.0880   40.1930 N.4       7 LYP4        0.0000 
     47 CA         10.3673  -10.6393   50.9398 C.3       4 GLC5        0.0000 
     48 CA          9.2740   -9.3800   51.5340 C.3      12 GLL5        0.0000 
     49 CA         10.8900  -12.2510   50.1620 C.3       8 GLP5        0.0000 
     50 CA         10.3157   -5.7547   51.1125 C.3       4 GLC5        0.0000 
     51 CA         11.0090   -7.7940   51.0010 C.3      12 GLL5        0.0000 
     52 CA          9.0070   -4.0950   51.0240 C.3       8 GLP5        0.0000 
     53 CA         12.2210   -8.6544   52.9360 C.3       4 GLC5        0.0000 
     54 CA         12.9660   -9.6740   54.4460 C.3       8 GLP5        0.0000 
     55 CA         11.1975   -7.2029   53.3285 C.3       4 GLC5        0.0000 
     56 CA         10.4150   -8.6750   51.9010 C.3      12 GLL5        0.0000 
     57 CA         10.9190   -6.7710   55.2310 C.3       8 GLP5        0.0000 
     58 CA          9.8950   -5.6187   50.1352 C.3       4 GLC5        0.0000 
     59 CA         10.4650   -7.6160   49.7340 C.3      12 GLL5        0.0000 
     60 CA          9.9608  -10.5050   49.9898 C.3       4 GLC5        0.0000 
     61 CA          9.3270   -8.3200   49.3680 C.3      12 GLL5        0.0000 
     62 CA          7.0393   -7.8800   49.5888 C.3       4 GLC5        0.0000 
     63 CA          8.7360   -9.1980   50.2670 C.3      12 GLL5        0.0000 
     64 CA          7.3015  -12.7310   45.8965 C.3       4 GLC5        0.0000 
     65 CA          6.3780  -11.0340   46.5300 C.3      12 GLL5        0.0000 
     66 CA          7.8540  -14.7040   45.8670 C.3       8 GLP5        0.0000 
@<TRIPOS>BOND
@<TRIPOS>SUBSTRUCTURE
     1 ALC1        4 GROUP        1 X    ALC  0     ROOT ALC X 1
     2 SEC2        1 GROUP        1 X    SEC  0     **** SEC X 2
     3 LYC4       36 GROUP        1 X    LYC  0     **** LYC X 4
     4 GLC5       10 GROUP        1 X    GLC  0     **** GLC X 6
     5 ALP1        6 GROUP        1 Y    ALP  0     ROOT ALP Y 8
     6 SEP2        3 GROUP        1 Y    SEP  0     **** SEP Y 9
     7 LYP4       38 GROUP        1 Y    LYP  0     **** LYP Y 11
     8 GLP5       12 GROUP        1 Y    GLP  0     **** GLP Y 13
     9 ALL1        5 GROUP        1 Z    ALL  0     ROOT ALL Z 15
    10 SEL2        2 GROUP        1 Z    SEL  0     **** SEL Z 16
    11 LYL4       37 GROUP        1 Z    LYL  0     **** LYL Z 18
    12 GLL5       11 GROUP        1 Z    GLL  0     **** GLL Z 20
@<TRIPOS>SET

