#    Name: 3p7n_FMN_2_ligand
#    Modification time : Tue Mar 25 06:02:46 2014

@<TRIPOS>MOLECULE
3p7n_FMN_2_ligand
   50    52     1     0     0
SMALL
NO_CHARGES


@<TRIPOS>ATOM
      1 N1          5.8750  -11.4560   50.3890 N.2       1 FMN500      0.0000 
      2 C2          5.2680  -12.3340   51.2610 C.2       1 FMN500      0.0000 
      3 O2          4.2590  -12.9460   50.9130 O.2       1 FMN500      0.0000 
      4 N3          5.7920  -12.5240   52.5240 N.am      1 FMN500      0.0000 
      5 C4          6.9240  -11.8390   52.9190 C.2       1 FMN500      0.0000 
      6 O4          7.3830  -12.0160   54.0460 O.2       1 FMN500      0.0000 
      7 C4A         7.5410  -10.9530   52.0420 C.2       1 FMN500      0.0000 
      8 N5          8.6750  -10.2570   52.4190 N.2       1 FMN500      0.0000 
      9 C5A         9.2740   -9.3800   51.5340 C.ar      1 FMN500      0.0000 
     10 C6         10.4150   -8.6750   51.9010 C.ar      1 FMN500      0.0000 
     11 C7         11.0090   -7.7940   51.0010 C.ar      1 FMN500      0.0000 
     12 C7M        12.2400   -7.0350   51.4010 C.3       1 FMN500      0.0000 
     13 C8         10.4650   -7.6160   49.7340 C.ar      1 FMN500      0.0000 
     14 C8M        11.1010   -6.6690   48.7590 C.3       1 FMN500      0.0000 
     15 C9          9.3270   -8.3200   49.3680 C.ar      1 FMN500      0.0000 
     16 C9A         8.7360   -9.1980   50.2670 C.ar      1 FMN500      0.0000 
     17 N10         7.6060   -9.8890   49.8970 N.pl3     1 FMN500      0.0000 
     18 C10         7.0070  -10.7670   50.7740 C.2       1 FMN500      0.0000 
     19 C1'         7.0320   -9.6950   48.5310 C.3       1 FMN500      0.0000 
     20 C2'         7.2730  -10.9790   47.7530 C.3       1 FMN500      0.0000 
     21 O2'         8.6240  -11.0290   47.3500 O.3       1 FMN500      0.0000 
     22 C3'         6.3780  -11.0340   46.5300 C.3       1 FMN500      0.0000 
     23 O3'         5.9950  -12.3720   46.3040 O.3       1 FMN500      0.0000 
     24 C4'         7.1200  -10.4820   45.3220 C.3       1 FMN500      0.0000 
     25 O4'         7.7030   -9.2400   45.6440 O.3       1 FMN500      0.0000 
     26 C5'         6.1610  -10.2790   44.1650 C.3       1 FMN500      0.0000 
     27 O5'         5.2480  -11.3470   44.1450 O.3       1 FMN500      0.0000 
     28 P           4.6360  -11.7700   42.7280 P.3       1 FMN500      0.0000 
     29 O1P         5.7260  -12.5120   41.9950 O.co2     1 FMN500      0.0000 
     30 O2P         3.4260  -12.6560   42.9050 O.co2     1 FMN500      0.0000 
     31 O3P         4.2620  -10.5100   41.9850 O.co2     1 FMN500      0.0000 
     32 H           5.3349  -13.1821   53.1771 H         1 FMN500      0.0000 
     33 H          10.8208   -8.8036   52.8368 H         1 FMN500      0.0000 
     34 H           8.9208   -8.1921   48.4315 H         1 FMN500      0.0000 
     35 H           7.5267   -8.8778   48.0299 H         1 FMN500      0.0000 
     36 H           5.9709   -9.5115   48.5937 H         1 FMN500      0.0000 
     37 H           7.0226  -11.8118   48.3944 H         1 FMN500      0.0000 
     38 H           5.5206  -10.4020   46.7166 H         1 FMN500      0.0000 
     39 H           7.8631  -11.2026   45.0209 H         1 FMN500      0.0000 
     40 H           6.7540  -10.2222   43.2452 H         1 FMN500      0.0000 
     41 H           5.6658   -9.3118   44.3069 H         1 FMN500      0.0000 
     42 H          12.9943   -7.6480   51.6361 H         1 FMN500      0.0000 
     43 H          12.5644   -6.4396   50.6660 H         1 FMN500      0.0000 
     44 H          12.0754   -6.4538   52.1979 H         1 FMN500      0.0000 
     45 H          12.0427   -6.9307   48.5475 H         1 FMN500      0.0000 
     46 H          10.6034   -6.6389   47.8921 H         1 FMN500      0.0000 
     47 H          11.1291   -5.7344   49.1135 H         1 FMN500      0.0000 
     48 H           8.6962  -10.3666   46.6043 H         1 FMN500      0.0000 
     49 H           5.5772  -12.3715   45.3955 H         1 FMN500      0.0000 
     50 H           8.0453   -8.8819   44.7753 H         1 FMN500      0.0000 
@<TRIPOS>BOND
     1    2    1 1    
     2   18    1 2    
     3    3    2 2    
     4    4    2 am   
     5    5    4 am   
     6   32    4 1    
     7    6    5 2    
     8    7    5 1    
     9    8    7 2    
    10   18    7 1    
    11    9    8 1    
    12   10    9 ar   
    13   16    9 ar   
    14   11   10 ar   
    15   33   10 1    
    16   12   11 1    
    17   13   11 ar   
    18   42   12 1    
    19   43   12 1    
    20   44   12 1    
    21   14   13 1    
    22   15   13 ar   
    23   45   14 1    
    24   46   14 1    
    25   47   14 1    
    26   16   15 ar   
    27   34   15 1    
    28   17   16 1    
    29   18   17 1    
    30   19   17 1    
    31   20   19 1    
    32   35   19 1    
    33   36   19 1    
    34   21   20 1    
    35   22   20 1    
    36   37   20 1    
    37   48   21 1    
    38   23   22 1    
    39   24   22 1    
    40   38   22 1    
    41   49   23 1    
    42   25   24 1    
    43   26   24 1    
    44   39   24 1    
    45   50   25 1    
    46   27   26 1    
    47   40   26 1    
    48   41   26 1    
    49   28   27 1    
    50   29   28 ar   
    51   30   28 ar   
    52   31   28 ar   
@<TRIPOS>SUBSTRUCTURE
     1 FMN500      1 GROUP   
@<TRIPOS>SET

