#    Name: 1ry8_RUT_1_INTS_M
#    Modification time : Tue Mar 25 01:28:48 2014

@<TRIPOS>MOLECULE
1ry8_RUT_1_INTS_M
   73     0     9     0     0
SMALL
NO_CHARGES


@<TRIPOS>ATOM
      1 N           1.8460  -24.5990   10.2900 N.am      2 SEC2        0.0000 
      2 N           1.3400  -25.2090    9.2540 N.am      8 SEL2        0.0000 
      3 N           2.3520  -23.9890   11.3260 N.am      5 SEP2        0.0000 
      4 O          -8.9690  -22.1785    9.2220 O.2       1 ALC1        0.0000 
      5 O          -7.8610  -22.8810    9.8010 O.2       7 ALL1        0.0000 
      6 O         -10.0770  -21.4760    8.6430 O.2       4 ALP1        0.0000 
      7 N          -9.1610  -20.8565    9.3655 N.am      2 SEC2        0.0000 
      8 N          -8.2450  -20.2370   10.0880 N.am      8 SEL2        0.0000 
      9 N         -10.0770  -21.4760    8.6430 N.am      5 SEP2        0.0000 
     10 O          -8.4940  -19.0145    9.6375 O.2       1 ALC1        0.0000 
     11 O          -8.2450  -20.2370   10.0880 O.2       7 ALL1        0.0000 
     12 O          -8.7430  -17.7920    9.1870 O.2       4 ALP1        0.0000 
     13 CA         -0.8450  -20.2325   11.4430 C.3       3 GLC5        0.0000 
     14 CA         -0.9720  -19.8280    9.5140 C.3       9 GLL5        0.0000 
     15 CA         -0.7180  -20.6370   13.3720 C.3       6 GLP5        0.0000 
     16 CA          0.0830  -15.4880   11.5975 C.3       3 GLC5        0.0000 
     17 CA         -0.3200  -17.0700   10.0520 C.3       9 GLL5        0.0000 
     18 CA          0.4860  -13.9060   13.1430 C.3       6 GLP5        0.0000 
     19 CA         -1.0015  -19.2770   12.1920 C.3       3 GLC5        0.0000 
     20 CA         -1.2850  -17.9170   11.0120 C.3       9 GLL5        0.0000 
     21 CA         -3.2545  -15.9645   10.0590 C.3       3 GLC5        0.0000 
     22 CA         -2.3590  -17.0860   11.7020 C.3       9 GLL5        0.0000 
     23 CA         -4.1500  -14.8430    8.4160 C.3       6 GLP5        0.0000 
     24 CA         -1.4515  -18.4110   13.0620 C.3       3 GLC5        0.0000 
     25 CA         -0.5440  -19.7360   14.4220 C.3       6 GLP5        0.0000 
     26 CA         -6.9105  -19.8420   13.3780 C.3       3 GLC5        0.0000 
     27 CA         -5.3430  -18.4590   13.6250 C.3       9 GLL5        0.0000 
     28 CA         -8.4780  -21.2250   13.1310 C.3       6 GLP5        0.0000 
     29 N          -7.8500  -16.8970   13.9860 N.am      2 SEC2        0.0000 
     30 N          -6.5950  -17.8190   13.8790 N.am      8 SEL2        0.0000 
     31 N          -9.1050  -15.9750   14.0930 N.am      5 SEP2        0.0000 
     32 O          -7.7995  -18.1480   13.4355 O.2       1 ALC1        0.0000 
     33 O          -6.5950  -17.8190   13.8790 O.2       7 ALL1        0.0000 
     34 O          -9.0040  -18.4770   12.9920 O.2       4 ALP1        0.0000 
     35 CA         -3.3825  -19.9505   15.4100 C.3       3 GLC5        0.0000 
     36 CA         -4.7460  -18.8410   15.0060 C.3       9 GLL5        0.0000 
     37 CA         -2.0190  -21.0600   15.8140 C.3       6 GLP5        0.0000 
     38 O          -6.8905  -19.4815   16.0860 O.2       1 ALC1        0.0000 
     39 O          -5.5750  -19.8070   15.6770 O.2       7 ALL1        0.0000 
     40 O          -8.2060  -19.1560   16.4950 O.2       4 ALP1        0.0000 
     41 CA         -3.5160  -13.5000   15.8100 C.3       3 GLC5        0.0000 
     42 CA         -3.4540  -15.2020   15.8700 C.3       9 GLL5        0.0000 
     43 CA         -3.5780  -11.7980   15.7500 C.3       6 GLP5        0.0000 
     44 CA         -1.5430  -14.3530   15.1705 C.3       3 GLC5        0.0000 
     45 CA          0.3680  -13.5040   14.4710 C.3       6 GLP5        0.0000 
     46 CA         -2.9743  -23.6773    8.3042 C.3       3 GLC5        0.0000 
     47 CA         -1.8560  -22.0960    9.2610 C.3       9 GLL5        0.0000 
     48 CA         -3.4900  -25.0450    7.0700 C.3       6 GLP5        0.0000 
     49 CA         -1.9968  -22.0282   11.5388 C.3       3 GLC5        0.0000 
     50 CA         -3.0610  -22.5230    9.8160 C.3       9 GLL5        0.0000 
     51 CA         -1.5350  -21.7470   13.5390 C.3       6 GLP5        0.0000 
     52 CA         -0.7232  -27.9785    8.8405 C.3       3 GLC5        0.0000 
     53 CA         -0.1670  -26.7910   10.3530 C.3       9 GLL5        0.0000 
     54 CA         -0.6050  -29.0570    7.0490 C.3       6 GLP5        0.0000 
     55 CA          0.1966  -27.4352   11.7037 C.3       3 GLC5        0.0000 
     56 CA         -1.5160  -27.0090   10.9110 C.3       9 GLL5        0.0000 
     57 CA          1.1650  -28.2850   12.9100 C.3       6 GLP5        0.0000 
     58 CA         -4.6550  -19.7800    8.6025 C.3       3 GLC5        0.0000 
     59 CA         -4.4180  -21.8330    9.9570 C.3       9 GLL5        0.0000 
     60 CA         -4.8290  -18.4770    7.1560 C.3       6 GLP5        0.0000 
     61 CA         -6.9085  -24.1025    8.8128 C.3       3 GLC5        0.0000 
     62 CA         -5.5190  -22.6370    9.8500 C.3       9 GLL5        0.0000 
     63 CA         -7.6640  -25.8400    7.7490 C.3       6 GLP5        0.0000 
     64 CA         -5.6342  -19.3912    8.6380 C.3       3 GLC5        0.0000 
     65 CA         -6.9750  -20.7240   10.0620 C.3       9 GLL5        0.0000 
     66 CA          1.5999  -19.5690    9.8705 C.3       3 GLC5        0.0000 
     67 CA          0.6940  -17.9150    9.4050 C.3       9 GLL5        0.0000 
     68 CA          3.1180  -20.4670   10.5300 C.3       6 GLP5        0.0000 
     69 CA         -2.6467  -18.4985   15.5505 C.3       3 GLC5        0.0000 
     70 CA         -3.6320  -16.5480   15.0370 C.3       9 GLL5        0.0000 
     71 CA         -1.1950  -19.9530   15.6360 C.3       6 GLP5        0.0000 
     72 CA         -2.3120  -15.9585   16.9022 C.3       3 GLC5        0.0000 
     73 CA         -1.0810  -16.0420   18.3510 C.3       6 GLP5        0.0000 
@<TRIPOS>BOND
@<TRIPOS>SUBSTRUCTURE
     1 ALC1        4 GROUP        1 X    ALC  0     ROOT ALC X 1
     2 SEC2        1 GROUP        1 X    SEC  0     **** SEC X 2
     3 GLC5       13 GROUP        1 X    GLC  0     **** GLC X 6
     4 ALP1        6 GROUP        1 Y    ALP  0     ROOT ALP Y 8
     5 SEP2        3 GROUP        1 Y    SEP  0     **** SEP Y 9
     6 GLP5       15 GROUP        1 Y    GLP  0     **** GLP Y 13
     7 ALL1        5 GROUP        1 Z    ALL  0     ROOT ALL Z 15
     8 SEL2        2 GROUP        1 Z    SEL  0     **** SEL Z 16
     9 GLL5       14 GROUP        1 Z    GLL  0     **** GLL Z 20
@<TRIPOS>SET

