#    Name: 1ry8_RUT_1_ligand
#    Modification time : Tue Mar 25 01:28:48 2014

@<TRIPOS>MOLECULE
1ry8_RUT_1_ligand
   73    77     1     0     0
SMALL
NO_CHARGES


@<TRIPOS>ATOM
      1 O1         -3.2020  -23.8260   10.3510 O.3       1 RUT2325     0.0000 
      2 C1         -3.0610  -22.5230    9.8160 C.2       1 RUT2325     0.0000 
      3 C2         -1.8560  -22.0960    9.2610 C.2       1 RUT2325     0.0000 
      4 O2         -1.7320  -20.8220    8.7270 O.3       1 RUT2325     0.0000 
      5 C3         -0.6860  -23.0630    9.2190 C.2       1 RUT2325     0.0000 
      6 O3          0.4240  -22.7210    8.7050 O.2       1 RUT2325     0.0000 
      7 C4          0.1120  -25.5330    9.8150 C.ar      1 RUT2325     0.0000 
      8 O4          1.3400  -25.2090    9.2540 O.3       1 RUT2325     0.0000 
      9 C5         -0.1670  -26.7910   10.3530 C.ar      1 RUT2325     0.0000 
     10 C6         -1.5160  -27.0090   10.9110 C.ar      1 RUT2325     0.0000 
     11 O5         -1.8320  -28.2350   11.4500 O.3       1 RUT2325     0.0000 
     12 C7         -2.6080  -26.0740   10.9670 C.ar      1 RUT2325     0.0000 
     13 C8         -2.1800  -24.7900   10.3590 C.ar      1 RUT2325     0.0000 
     14 C9         -0.9070  -24.4300    9.7860 C.ar      1 RUT2325     0.0000 
     15 C10        -4.4180  -21.8330    9.9570 C.ar      1 RUT2325     0.0000 
     16 C11        -5.5190  -22.6370    9.8500 C.ar      1 RUT2325     0.0000 
     17 C12        -6.7870  -22.0930    9.9030 C.ar      1 RUT2325     0.0000 
     18 O6         -7.8610  -22.8810    9.8010 O.3       1 RUT2325     0.0000 
     19 C13        -6.9750  -20.7240   10.0620 C.ar      1 RUT2325     0.0000 
     20 O7         -8.2450  -20.2370   10.0880 O.3       1 RUT2325     0.0000 
     21 C14        -5.9040  -19.8870   10.1780 C.ar      1 RUT2325     0.0000 
     22 C15        -4.5440  -20.3330   10.1410 C.ar      1 RUT2325     0.0000 
     23 C16        -0.9720  -19.8280    9.5140 C.3       1 RUT2325     0.0000 
     24 C17        -0.0890  -19.0260    8.5200 C.3       1 RUT2325     0.0000 
     25 O8          0.8120  -19.9680    7.8560 O.3       1 RUT2325     0.0000 
     26 C18         0.6940  -17.9150    9.4050 C.3       1 RUT2325     0.0000 
     27 O9          1.5260  -17.1720    8.5380 O.3       1 RUT2325     0.0000 
     28 C19        -0.3200  -17.0700   10.0520 C.3       1 RUT2325     0.0000 
     29 O10         0.2940  -16.0610   10.8350 O.3       1 RUT2325     0.0000 
     30 C20        -1.2850  -17.9170   11.0120 C.3       1 RUT2325     0.0000 
     31 C21        -2.3590  -17.0860   11.7020 C.3       1 RUT2325     0.0000 
     32 O11        -1.9240  -18.9650   10.2010 O.3       1 RUT2325     0.0000 
     33 C22        -4.4720  -17.4070   12.8420 C.3       1 RUT2325     0.0000 
     34 O12        -3.1990  -18.0000   12.5050 O.3       1 RUT2325     0.0000 
     35 C23        -5.3430  -18.4590   13.6250 C.3       1 RUT2325     0.0000 
     36 O13        -6.5950  -17.8190   13.8790 O.3       1 RUT2325     0.0000 
     37 C24        -4.7460  -18.8410   15.0060 C.3       1 RUT2325     0.0000 
     38 O14        -5.5750  -19.8070   15.6770 O.3       1 RUT2325     0.0000 
     39 C25        -4.5650  -17.5400   15.8930 C.3       1 RUT2325     0.0000 
     40 O15        -4.0260  -17.8790   17.1550 O.3       1 RUT2325     0.0000 
     41 C26        -3.6320  -16.5480   15.0370 C.3       1 RUT2325     0.0000 
     42 C27        -3.4540  -15.2020   15.8700 C.3       1 RUT2325     0.0000 
     43 O16        -4.2720  -16.2350   13.7210 O.3       1 RUT2325     0.0000 
     44 H           0.4926  -27.5363   10.3769 H         1 RUT2325     0.0000 
     45 H          -3.4517  -26.2250   11.3204 H         1 RUT2325     0.0000 
     46 H          -5.4075  -23.6597    9.7285 H         1 RUT2325     0.0000 
     47 H          -6.0564  -18.8542   10.3022 H         1 RUT2325     0.0000 
     48 H          -3.7735  -19.7830   10.2194 H         1 RUT2325     0.0000 
     49 H          -0.3293  -20.3289   10.2009 H         1 RUT2325     0.0000 
     50 H          -0.7239  -18.5116    7.8531 H         1 RUT2325     0.0000 
     51 H           1.2428  -18.4748   10.1322 H         1 RUT2325     0.0000 
     52 H          -0.9742  -16.6295    9.3032 H         1 RUT2325     0.0000 
     53 H          -0.6506  -18.3787   11.7586 H         1 RUT2325     0.0000 
     54 H          -2.9529  -16.5853   10.9470 H         1 RUT2325     0.0000 
     55 H          -1.8789  -16.3513   12.3369 H         1 RUT2325     0.0000 
     56 H          -5.0239  -17.1289   11.9726 H         1 RUT2325     0.0000 
     57 H          -5.4551  -19.3204   13.0312 H         1 RUT2325     0.0000 
     58 H          -3.7470  -19.2337   14.8306 H         1 RUT2325     0.0000 
     59 H          -5.5345  -17.0749   15.9422 H         1 RUT2325     0.0000 
     60 H          -2.6882  -16.9976   14.9264 H         1 RUT2325     0.0000 
     61 H          -3.0279  -15.3691   16.7591 H         1 RUT2325     0.0000 
     62 H          -2.8785  -14.5408   15.3888 H         1 RUT2325     0.0000 
     63 H          -4.3311  -14.7547   16.0448 H         1 RUT2325     0.0000 
     64 H           1.1337  -24.5179    8.5614 H         1 RUT2325     0.0000 
     65 H          -1.2170  -28.8820   10.9993 H         1 RUT2325     0.0000 
     66 H          -8.5765  -22.2951    9.4205 H         1 RUT2325     0.0000 
     67 H          -8.1826  -19.3295    9.6727 H         1 RUT2325     0.0000 
     68 H           0.5681  -20.8642    8.2266 H         1 RUT2325     0.0000 
     69 H           2.4306  -17.1964    8.9636 H         1 RUT2325     0.0000 
     70 H           1.2449  -16.3538   10.9348 H         1 RUT2325     0.0000 
     71 H          -7.2646  -18.3423   13.3519 H         1 RUT2325     0.0000 
     72 H          -6.4474  -19.3411   15.8247 H         1 RUT2325     0.0000 
     73 H          -3.3929  -17.1365   17.3738 H         1 RUT2325     0.0000 
@<TRIPOS>BOND
     1    2    1 1    
     2   13    1 1    
     3    3    2 2    
     4   15    2 1    
     5    4    3 1    
     6    5    3 1    
     7   23    4 1    
     8    6    5 2    
     9   14    5 1    
    10    8    7 1    
    11    9    7 ar   
    12   14    7 ar   
    13   64    8 1    
    14   10    9 ar   
    15   44    9 1    
    16   11   10 1    
    17   12   10 ar   
    18   65   11 1    
    19   13   12 ar   
    20   45   12 1    
    21   14   13 ar   
    22   16   15 ar   
    23   22   15 ar   
    24   17   16 ar   
    25   46   16 1    
    26   18   17 1    
    27   19   17 ar   
    28   66   18 1    
    29   20   19 1    
    30   21   19 ar   
    31   67   20 1    
    32   22   21 ar   
    33   47   21 1    
    34   48   22 1    
    35   24   23 1    
    36   32   23 1    
    37   49   23 1    
    38   25   24 1    
    39   26   24 1    
    40   50   24 1    
    41   68   25 1    
    42   27   26 1    
    43   28   26 1    
    44   51   26 1    
    45   69   27 1    
    46   29   28 1    
    47   30   28 1    
    48   52   28 1    
    49   70   29 1    
    50   31   30 1    
    51   32   30 1    
    52   53   30 1    
    53   34   31 1    
    54   54   31 1    
    55   55   31 1    
    56   34   33 1    
    57   35   33 1    
    58   43   33 1    
    59   56   33 1    
    60   36   35 1    
    61   37   35 1    
    62   57   35 1    
    63   71   36 1    
    64   38   37 1    
    65   39   37 1    
    66   58   37 1    
    67   72   38 1    
    68   40   39 1    
    69   41   39 1    
    70   59   39 1    
    71   73   40 1    
    72   42   41 1    
    73   43   41 1    
    74   60   41 1    
    75   61   42 1    
    76   62   42 1    
    77   63   42 1    
@<TRIPOS>SUBSTRUCTURE
     1 RUT2325     1 GROUP   
@<TRIPOS>SET

