#    Name: 3vso_EK1_1_INTS_M
#    Modification time : Tue Mar 25 01:30:16 2014

@<TRIPOS>MOLECULE
3vso_EK1_1_INTS_M
   91     0     6     0     0
SMALL
NO_CHARGES


@<TRIPOS>ATOM
      1 CA         20.5125   74.8605    6.8600 C.3       2 GLC5        0.0000 
      2 CA         18.7140   75.2340    6.3820 C.3       6 GLL5        0.0000 
      3 CA         22.3110   74.4870    7.3380 C.3       4 GLP5        0.0000 
      4 CA         19.1955   73.4750    5.6845 C.3       2 GLC5        0.0000 
      5 CA         19.6770   71.7160    4.9870 C.3       4 GLP5        0.0000 
      6 CA         18.4785   71.9290    6.8065 C.3       2 GLC5        0.0000 
      7 CA         17.2800   72.1420    8.6260 C.3       6 GLL5        0.0000 
      8 CA         14.9680   70.3055    7.9650 C.3       2 GLC5        0.0000 
      9 CA         15.4790   71.0950    9.8170 C.3       6 GLL5        0.0000 
     10 CA         14.4570   69.5160    6.1130 C.3       4 GLP5        0.0000 
     11 CA         16.2045   69.8410    7.8315 C.3       2 GLC5        0.0000 
     12 CA         16.7380   71.0410    9.2460 C.3       6 GLL5        0.0000 
     13 CA         15.6710   68.6410    6.4170 C.3       4 GLP5        0.0000 
     14 CA         19.0730   65.6915   12.0375 C.3       2 GLC5        0.0000 
     15 CA         17.7320   67.1640   12.6520 C.3       6 GLL5        0.0000 
     16 CA         20.4140   64.2190   11.4230 C.3       4 GLP5        0.0000 
     17 CA         19.6685   65.5755   10.9990 C.3       2 GLC5        0.0000 
     18 CA         18.9230   66.9320   10.5750 C.3       6 GLL5        0.0000 
     19 CA         20.8220   67.1680    8.2540 C.3       2 GLC5        0.0000 
     20 CA         19.4430   67.9520    9.5920 C.3       6 GLL5        0.0000 
     21 CA         22.2010   66.3840    6.9160 C.3       4 GLP5        0.0000 
     22 CA         21.0650   66.8400   10.3170 C.3       2 GLC5        0.0000 
     23 CA         22.6870   65.7280   11.0420 C.3       4 GLP5        0.0000 
     24 CA         18.9300   70.2525   11.4715 C.3       2 GLC5        0.0000 
     25 CA         18.8420   69.2700    9.6220 C.3       6 GLL5        0.0000 
     26 CA         19.0180   71.2350   13.3210 C.3       4 GLP5        0.0000 
     27 CA         16.2885   65.4005   17.3735 C.3       2 GLC5        0.0000 
     28 CA         17.5320   66.9070   16.9920 C.3       6 GLL5        0.0000 
     29 CA         15.0450   63.8940   17.7550 C.3       4 GLP5        0.0000 
     30 CA         18.1825   64.9765   17.1110 C.3       2 GLC5        0.0000 
     31 CA         18.8330   63.0460   17.2300 C.3       4 GLP5        0.0000 
     32 CA         19.0380   65.3550   18.1470 C.3       2 GLC5        0.0000 
     33 CA         18.6870   67.5290   17.8180 C.3       6 GLL5        0.0000 
     34 CA         19.3890   63.1810   18.4760 C.3       4 GLP5        0.0000 
     35 CA         22.0740   70.0545   21.4495 C.3       2 GLC5        0.0000 
     36 CA         20.7540   70.7210   20.2840 C.3       6 GLL5        0.0000 
     37 CA         23.3940   69.3880   22.6150 C.3       4 GLP5        0.0000 
     38 N          16.6010   68.3685   19.6220 N.am      1 SEC2        0.0000 
     39 N          17.7800   68.2040   19.9460 N.am      5 SEL2        0.0000 
     40 N          15.4220   68.5330   19.2980 N.am      3 SEP2        0.0000 
     41 N          17.5840   67.3785   21.0645 N.am      1 SEC2        0.0000 
     42 N          17.3880   66.5530   22.1830 N.am      3 SEP2        0.0000 
     43 CA         19.4708   75.9730    4.7282 C.3       2 GLC5        0.0000 
     44 CA         20.4710   76.0670    2.9970 C.3       4 GLP5        0.0000 
     45 CA         16.3475   71.9848    6.7010 C.3       2 GLC5        0.0000 
     46 CA         16.5500   73.3270    8.5840 C.3       6 GLL5        0.0000 
     47 CA         15.7800   71.2350    4.7970 C.3       4 GLP5        0.0000 
     48 CA         16.5629   74.5200   10.4277 C.3       2 GLC5        0.0000 
     49 CA         17.0650   75.3930   12.1630 C.3       4 GLP5        0.0000 
     50 CA         14.1865   71.2668   11.6545 C.3       2 GLC5        0.0000 
     51 CA         14.7410   72.2740    9.7730 C.3       6 GLL5        0.0000 
     52 CA         13.2630   70.8490   13.5140 C.3       4 GLP5        0.0000 
     53 CA         16.8927   71.5015   11.5308 C.3       2 GLC5        0.0000 
     54 CA         17.6770   71.9350   13.5300 C.3       4 GLP5        0.0000 
     55 CA         14.3005   68.6825   13.0297 C.3       2 GLC5        0.0000 
     56 CA         15.4500   68.1040   12.4270 C.3       6 GLL5        0.0000 
     57 CA         12.5870   69.5260   13.1970 C.3       4 GLP5        0.0000 
     58 CA         18.6720   66.3640    8.3942 C.3       2 GLC5        0.0000 
     59 CA         18.1610   65.2860    6.7050 C.3       4 GLP5        0.0000 
     60 CA         19.0388   68.2275   14.2237 C.3       2 GLC5        0.0000 
     61 CA         18.8070   66.6730   13.3840 C.3       6 GLL5        0.0000 
     62 CA         19.3060   69.8220   14.3690 C.3       4 GLP5        0.0000 
     63 CA         20.1298   65.9810   13.2043 C.3       2 GLC5        0.0000 
     64 CA         18.7360   66.5930   14.7730 C.3       6 GLL5        0.0000 
     65 CA         21.4880   65.3290   12.3300 C.3       4 GLP5        0.0000 
     66 CA         17.9754   64.7269   13.4577 C.3       2 GLC5        0.0000 
     67 CA         17.4480   62.6980   13.0200 C.3       4 GLP5        0.0000 
     68 CA         18.4310   68.3902   15.2930 C.3       2 GLC5        0.0000 
     69 CA         17.5800   67.0100   15.4420 C.3       6 GLL5        0.0000 
     70 CA         19.0068   69.0452   16.0085 C.3       2 GLC5        0.0000 
     71 CA         18.7280   69.0080   17.4780 C.3       6 GLL5        0.0000 
     72 CA         17.0018   68.9017   17.9840 C.3       2 GLC5        0.0000 
     73 CA         15.2960   69.5350   18.3200 C.3       4 GLP5        0.0000 
     74 CA         18.2893   71.3207   17.4878 C.3       2 GLC5        0.0000 
     75 CA         17.3240   73.1780   17.1210 C.3       4 GLP5        0.0000 
     76 CA         19.7615   70.0655   16.1142 C.3       2 GLC5        0.0000 
     77 CA         19.7810   69.9190   18.2310 C.3       6 GLL5        0.0000 
     78 CA         20.3315   72.7173   18.9260 C.3       2 GLC5        0.0000 
     79 CA         19.4730   74.3190   17.9360 C.3       4 GLP5        0.0000 
     80 CA         20.7575   72.6883   21.3575 C.3       2 GLC5        0.0000 
     81 CA         21.6260   71.5100   19.5480 C.3       6 GLL5        0.0000 
     82 CA         20.3250   74.2610   22.7990 C.3       4 GLP5        0.0000 
     83 CA         18.8284   71.1937   20.2881 C.3       2 GLC5        0.0000 
     84 CA         17.3750   72.0640   20.9720 C.3       4 GLP5        0.0000 
     85 CA         23.1065   71.2283   19.9727 C.3       2 GLC5        0.0000 
     86 CA         24.6160   70.9550   21.0910 C.3       4 GLP5        0.0000 
     87 CA         20.2918   72.7075   17.8803 C.3       2 GLC5        0.0000 
     88 CA         21.5680   71.4930   18.1610 C.3       6 GLL5        0.0000 
     89 CA         18.0678   68.6280   14.1040 C.3       2 GLC5        0.0000 
     90 CA         16.5040   67.4990   14.7030 C.3       6 GLL5        0.0000 
     91 CA         16.1630   68.3819   16.8900 C.3       2 GLC5        0.0000 
@<TRIPOS>BOND
@<TRIPOS>SUBSTRUCTURE
     1 SEC2       38 GROUP        1 X    SEC  0     ROOT SEC X 2
     2 GLC5        1 GROUP        1 X    GLC  0     **** GLC X 6
     3 SEP2       40 GROUP        1 Y    SEP  0     ROOT SEP Y 9
     4 GLP5        3 GROUP        1 Y    GLP  0     **** GLP Y 13
     5 SEL2       39 GROUP        1 Z    SEL  0     ROOT SEL Z 16
     6 GLL5        2 GROUP        1 Z    GLL  0     **** GLL Z 20
@<TRIPOS>SET

