#    Name: 3vso_EK1_1_ligand
#    Modification time : Tue Mar 25 01:30:16 2014

@<TRIPOS>MOLECULE
3vso_EK1_1_ligand
   68    71     1     0     0
SMALL
NO_CHARGES


@<TRIPOS>ATOM
      1 N81        16.6190   75.6930    8.0730 N.ar      1 EK1501      0.0000 
      2 C82        17.1290   74.4710    7.8980 C.ar      1 EK1501      0.0000 
      3 N83        18.1520   74.2310    7.0600 N.ar      1 EK1501      0.0000 
      4 C84        18.7140   75.2340    6.3820 C.ar      1 EK1501      0.0000 
      5 C85        18.2270   76.5240    6.5370 C.ar      1 EK1501      0.0000 
      6 C86        17.1530   76.7270    7.4130 C.ar      1 EK1501      0.0000 
      7 C99        17.2800   72.1420    8.6260 C.ar      1 EK1501      0.0000 
      8 C98        16.5500   73.3270    8.5840 C.ar      1 EK1501      0.0000 
      9 C19        15.2820   73.3950    9.1440 C.ar      1 EK1501      0.0000 
     10 C17        14.7410   72.2740    9.7730 C.ar      1 EK1501      0.0000 
     11 C87        15.4790   71.0950    9.8170 C.ar      1 EK1501      0.0000 
     12 C22        16.7380   71.0410    9.2460 C.ar      1 EK1501      0.0000 
     13 C97        14.9410   69.8780   10.4730 C.2       1 EK1501      0.0000 
     14 O99        13.8970   69.4190   10.0720 O.2       1 EK1501      0.0000 
     15 N99        15.7600   69.2820   11.6130 N.am      1 EK1501      0.0000 
     16 C15        15.4500   68.1040   12.4270 C.3       1 EK1501      0.0000 
     17 C8         16.5780   67.5740   13.2980 C.ar      1 EK1501      0.0000 
     18 C9         17.7320   67.1640   12.6520 C.ar      1 EK1501      0.0000 
     19 O3         17.7760   67.2540   11.2450 O.3       1 EK1501      0.0000 
     20 C12        18.9230   66.9320   10.5750 C.3       1 EK1501      0.0000 
     21 C13        19.4430   67.9520    9.5920 C.3       1 EK1501      0.0000 
     22 C14        18.8420   69.2700    9.6220 C.3       1 EK1501      0.0000 
     23 C10        18.8070   66.6730   13.3840 C.ar      1 EK1501      0.0000 
     24 C11        18.7360   66.5930   14.7730 C.ar      1 EK1501      0.0000 
     25 C6         17.5800   67.0100   15.4420 C.ar      1 EK1501      0.0000 
     26 C5         17.5320   66.9070   16.9920 C.3       1 EK1501      0.0000 
     27 C2         18.6870   67.5290   17.8180 C.3       1 EK1501      0.0000 
     28 C3         18.7280   69.0080   17.4780 C.3       1 EK1501      0.0000 
     29 C4         19.7810   69.9190   18.2310 C.ar      1 EK1501      0.0000 
     30 C51        19.8380   69.9330   19.6180 C.ar      1 EK1501      0.0000 
     31 C52        20.7540   70.7210   20.2840 C.ar      1 EK1501      0.0000 
     32 C53        21.6260   71.5100   19.5480 C.ar      1 EK1501      0.0000 
     33 C54        21.5680   71.4930   18.1610 C.ar      1 EK1501      0.0000 
     34 C55        20.6530   70.6990   17.4880 C.ar      1 EK1501      0.0000 
     35 C7         16.5040   67.4990   14.7030 C.ar      1 EK1501      0.0000 
     36 C1         18.5790   67.4390   19.2860 C.2       1 EK1501      0.0000 
     37 O1         19.3020   66.6350   19.9360 O.co2     1 EK1501      0.0000 
     38 O2         17.7800   68.2040   19.9460 O.co2     1 EK1501      0.0000 
     39 H          19.5097   75.0752    5.7383 H         1 EK1501      0.0000 
     40 H          18.6342   77.3044    6.0315 H         1 EK1501      0.0000 
     41 H          16.7912   77.6916    7.5309 H         1 EK1501      0.0000 
     42 H          18.2103   72.0991    8.1972 H         1 EK1501      0.0000 
     43 H          14.7414   74.2666    9.0970 H         1 EK1501      0.0000 
     44 H          13.8116   72.3193   10.1971 H         1 EK1501      0.0000 
     45 H          17.2780   70.1551    9.2883 H         1 EK1501      0.0000 
     46 H          16.6565   69.7967   11.8252 H         1 EK1501      0.0000 
     47 H          15.1029   67.2660   11.7697 H         1 EK1501      0.0000 
     48 H          14.5758   68.3194   13.0934 H         1 EK1501      0.0000 
     49 H          18.8183   65.9586    9.9996 H         1 EK1501      0.0000 
     50 H          19.7798   66.7078   11.2857 H         1 EK1501      0.0000 
     51 H          19.3485   67.5093    8.5587 H         1 EK1501      0.0000 
     52 H          20.5580   68.0339    9.7428 H         1 EK1501      0.0000 
     53 H          19.6622   66.3660   12.8975 H         1 EK1501      0.0000 
     54 H          19.5322   66.2277   15.3094 H         1 EK1501      0.0000 
     55 H          17.4502   65.8246   17.2653 H         1 EK1501      0.0000 
     56 H          16.5695   67.3604   17.3401 H         1 EK1501      0.0000 
     57 H          19.6211   67.1044   17.4746 H         1 EK1501      0.0000 
     58 H          17.7213   69.4588   17.6548 H         1 EK1501      0.0000 
     59 H          18.9120   69.1335   16.3833 H         1 EK1501      0.0000 
     60 H          19.1800   69.3404   20.1588 H         1 EK1501      0.0000 
     61 H          20.7925   70.7259   21.3075 H         1 EK1501      0.0000 
     62 H          22.3129   72.1053   20.0275 H         1 EK1501      0.0000 
     63 H          22.2239   72.0876   17.6178 H         1 EK1501      0.0000 
     64 H          20.6220   70.6889   16.4690 H         1 EK1501      0.0000 
     65 H          15.6478   67.8086   15.1801 H         1 EK1501      0.0000 
     66 H          18.9537   69.7089   10.5136 H         1 EK1501      0.0000 
     67 H          19.2496   69.8796    8.9421 H         1 EK1501      0.0000 
     68 H          17.8606   69.2350    9.4334 H         1 EK1501      0.0000 
@<TRIPOS>BOND
     1    2    1 ar   
     2    6    1 ar   
     3    3    2 ar   
     4    8    2 1    
     5    4    3 ar   
     6    5    4 ar   
     7   39    4 1    
     8    6    5 ar   
     9   40    5 1    
    10   41    6 1    
    11    8    7 ar   
    12   12    7 ar   
    13   42    7 1    
    14    9    8 ar   
    15   10    9 ar   
    16   43    9 1    
    17   11   10 ar   
    18   44   10 1    
    19   12   11 ar   
    20   13   11 1    
    21   45   12 1    
    22   14   13 2    
    23   15   13 am   
    24   16   15 1    
    25   46   15 1    
    26   17   16 1    
    27   47   16 1    
    28   48   16 1    
    29   18   17 ar   
    30   35   17 ar   
    31   19   18 1    
    32   23   18 ar   
    33   20   19 1    
    34   21   20 1    
    35   49   20 1    
    36   50   20 1    
    37   22   21 1    
    38   51   21 1    
    39   52   21 1    
    40   66   22 1    
    41   67   22 1    
    42   68   22 1    
    43   24   23 ar   
    44   53   23 1    
    45   25   24 ar   
    46   54   24 1    
    47   26   25 1    
    48   35   25 ar   
    49   27   26 1    
    50   55   26 1    
    51   56   26 1    
    52   28   27 1    
    53   36   27 1    
    54   57   27 1    
    55   29   28 1    
    56   58   28 1    
    57   59   28 1    
    58   30   29 ar   
    59   34   29 ar   
    60   31   30 ar   
    61   60   30 1    
    62   32   31 ar   
    63   61   31 1    
    64   33   32 ar   
    65   62   32 1    
    66   34   33 ar   
    67   63   33 1    
    68   64   34 1    
    69   65   35 1    
    70   37   36 ar   
    71   38   36 ar   
@<TRIPOS>SUBSTRUCTURE
     1 EK1501      1 GROUP   
@<TRIPOS>SET

