#    Name: 1yrx_FMN_1_INTS_M
#    Modification time : Mon Apr  7 15:53:36 2014

@<TRIPOS>MOLECULE
1yrx_FMN_1_INTS_M
   56     0     9     0     0
SMALL
NO_CHARGES


@<TRIPOS>ATOM
      1 O           6.0485   17.4605   -3.7770 O.2       1 ALC1        0.0000 
      2 O           6.7920   18.0790   -4.7440 O.2       7 ALL1        0.0000 
      3 O           5.3050   16.8420   -2.8100 O.2       4 ALP1        0.0000 
      4 N           4.3115   17.5650   -5.1435 N.am      2 SEC2        0.0000 
      5 N           5.0010   18.5410   -5.9550 N.am      8 SEL2        0.0000 
      6 N           3.6220   16.5890   -4.3320 N.am      5 SEP2        0.0000 
      7 N           4.1020   19.1165   -6.7600 N.am      2 SEC2        0.0000 
      8 N           3.2030   19.6920   -7.5650 N.am      5 SEP2        0.0000 
      9 N           4.8670   19.5365   -7.8485 N.am      2 SEC2        0.0000 
     10 N           6.5310   19.3810   -8.1320 N.am      8 SEL2        0.0000 
     11 CA          5.0185   20.6465  -12.5175 C.3       3 GLC5        0.0000 
     12 CA          6.9560   21.2530  -12.6220 C.3       9 GLL5        0.0000 
     13 CA          3.0810   20.0400  -12.4130 C.3       6 GLP5        0.0000 
     14 CA          6.7140   21.6130  -14.3410 C.3       3 GLC5        0.0000 
     15 CA          6.4720   21.9730  -16.0600 C.3       6 GLP5        0.0000 
     16 CA          8.1650   22.9330  -13.2915 C.3       3 GLC5        0.0000 
     17 CA          9.3740   24.6130  -13.9610 C.3       6 GLP5        0.0000 
     18 CA          9.8060   19.1040  -13.2170 C.3       3 GLC5        0.0000 
     19 CA          9.8860   20.7950  -12.4750 C.3       9 GLL5        0.0000 
     20 CA          9.7260   17.4130  -13.9590 C.3       6 GLP5        0.0000 
     21 CA         11.3820   21.9315  -11.4750 C.3       3 GLC5        0.0000 
     22 CA         12.8780   23.0680  -10.4750 C.3       6 GLP5        0.0000 
     23 CA         11.3655   20.5925  -13.7565 C.3       3 GLC5        0.0000 
     24 CA         12.8450   20.3900  -15.0380 C.3       6 GLP5        0.0000 
     25 CA          9.6300   22.7040  -13.2180 C.3       3 GLC5        0.0000 
     26 CA         11.2080   21.5780  -10.2840 C.3       3 GLC5        0.0000 
     27 CA          9.5380   20.0880  -10.0930 C.3       9 GLL5        0.0000 
     28 CA          8.2590   18.0420  -10.2925 C.3       3 GLC5        0.0000 
     29 CA          8.7450   19.6940   -9.0270 C.3       9 GLL5        0.0000 
     30 CA          7.7730   16.3900  -11.5580 C.3       6 GLP5        0.0000 
     31 CA          9.7710   21.3685   -6.8370 C.3       3 GLC5        0.0000 
     32 CA         11.4740   19.9630   -6.9470 C.3       9 GLL5        0.0000 
     33 CA          8.0680   22.7740   -6.7270 C.3       6 GLP5        0.0000 
     34 O          12.2080   20.9460   -8.9060 O.2       1 ALC1        0.0000 
     35 O          11.5300   21.1390   -7.7450 O.2       7 ALL1        0.0000 
     36 O          12.8860   20.7530  -10.0670 O.2       4 ALP1        0.0000 
     37 O          13.2615   19.9095   -8.7990 O.2       1 ALC1        0.0000 
     38 O          13.6370   19.0660   -7.5310 O.2       7 ALL1        0.0000 
     39 CA         14.5185   20.2885   -3.7660 C.3       3 GLC5        0.0000 
     40 CA         14.2860   18.3570   -4.7130 C.3       9 GLL5        0.0000 
     41 CA         14.7510   22.2200   -2.8190 C.3       6 GLP5        0.0000 
     42 CA          8.0580   21.2520   -7.9112 C.3       3 GLC5        0.0000 
     43 CA          7.3510   19.7660   -9.1640 C.3       9 GLL5        0.0000 
     44 CA          5.7820   19.1578  -11.4357 C.3       3 GLC5        0.0000 
     45 CA          6.7930   20.2280  -10.3460 C.3       9 GLL5        0.0000 
     46 CA          4.3690   17.8850  -11.9990 C.3       6 GLP5        0.0000 
     47 CA          7.5537   18.3525  -11.0675 C.3       3 GLC5        0.0000 
     48 CA          7.5970   20.6330  -11.3990 C.3       9 GLL5        0.0000 
     49 CA          9.6848   18.5523  -11.6498 C.3       3 GLC5        0.0000 
     50 CA          8.9910   20.5770  -11.2680 C.3       9 GLL5        0.0000 
     51 CA         10.1050   16.7720  -12.6190 C.3       6 GLP5        0.0000 
     52 CA         12.7383   16.7022   -5.3085 C.3       3 GLC5        0.0000 
     53 CA         12.8970   18.6220   -5.2930 C.3       9 GLL5        0.0000 
     54 CA         11.8850   14.9150   -5.6140 C.3       6 GLP5        0.0000 
     55 CA         12.5237   20.9664   -4.9980 C.3       3 GLC5        0.0000 
     56 CA         12.5050   22.7310   -4.0000 C.3       6 GLP5        0.0000 
@<TRIPOS>BOND
@<TRIPOS>SUBSTRUCTURE
     1 ALC1        1 GROUP        1 X    ALC  0     ROOT ALC X 1
     2 SEC2        4 GROUP        1 X    SEC  0     **** SEC X 2
     3 GLC5       11 GROUP        1 X    GLC  0     **** GLC X 6
     4 ALP1        3 GROUP        1 Y    ALP  0     ROOT ALP Y 8
     5 SEP2        6 GROUP        1 Y    SEP  0     **** SEP Y 9
     6 GLP5       13 GROUP        1 Y    GLP  0     **** GLP Y 13
     7 ALL1        2 GROUP        1 Z    ALL  0     ROOT ALL Z 15
     8 SEL2        5 GROUP        1 Z    SEL  0     **** SEL Z 16
     9 GLL5       12 GROUP        1 Z    GLL  0     **** GLL Z 20
@<TRIPOS>SET

