#    Name: 1yrx_FMN_1_ligand
#    Modification time : Mon Apr  7 15:53:36 2014

@<TRIPOS>MOLECULE
1yrx_FMN_1_ligand
   50    52     1     0     0
SMALL
NO_CHARGES


@<TRIPOS>ATOM
      1 N1          9.0250   18.3290   -5.6390 N.2       1 FMN201      0.0000 
      2 C2          8.1730   17.9370   -4.6470 C.2       1 FMN201      0.0000 
      3 O2          8.6080   17.5210   -3.6240 O.2       1 FMN201      0.0000 
      4 N3          6.7920   18.0790   -4.7440 N.am      1 FMN201      0.0000 
      5 C4          6.2290   18.5160   -5.9140 C.2       1 FMN201      0.0000 
      6 O4          5.0010   18.5410   -5.9550 O.2       1 FMN201      0.0000 
      7 C4A         7.0600   18.9080   -6.9530 C.2       1 FMN201      0.0000 
      8 N5          6.5310   19.3810   -8.1320 N.2       1 FMN201      0.0000 
      9 C5A         7.3510   19.7660   -9.1640 C.ar      1 FMN201      0.0000 
     10 C6          6.7930   20.2280  -10.3460 C.ar      1 FMN201      0.0000 
     11 C7          7.5970   20.6330  -11.3990 C.ar      1 FMN201      0.0000 
     12 C7M         6.9560   21.2530  -12.6220 C.3       1 FMN201      0.0000 
     13 C8          8.9910   20.5770  -11.2680 C.ar      1 FMN201      0.0000 
     14 C8M         9.8860   20.7950  -12.4750 C.3       1 FMN201      0.0000 
     15 C9          9.5380   20.0880  -10.0930 C.ar      1 FMN201      0.0000 
     16 C9A         8.7450   19.6940   -9.0270 C.ar      1 FMN201      0.0000 
     17 N10         9.3090   19.2010   -7.8390 N.pl3     1 FMN201      0.0000 
     18 C10         8.4690   18.8220   -6.8090 C.2       1 FMN201      0.0000 
     19 C1'        10.7740   18.8420   -7.7510 C.3       1 FMN201      0.0000 
     20 C2'        11.4740   19.9630   -6.9470 C.3       1 FMN201      0.0000 
     21 O2'        11.5300   21.1390   -7.7450 O.3       1 FMN201      0.0000 
     22 C3'        12.9020   19.6000   -6.4510 C.3       1 FMN201      0.0000 
     23 O3'        13.6370   19.0660   -7.5310 O.3       1 FMN201      0.0000 
     24 C4'        12.8970   18.6220   -5.2930 C.3       1 FMN201      0.0000 
     25 O4'        12.1240   19.1270   -4.2330 O.3       1 FMN201      0.0000 
     26 C5'        14.2860   18.3570   -4.7130 C.3       1 FMN201      0.0000 
     27 O5'        14.6520   17.0480   -5.1180 O.3       1 FMN201      0.0000 
     28 P          15.7880   16.1320   -4.4110 P.3       1 FMN201      0.0000 
     29 O1P        17.1170   16.8440   -4.4910 O.co2     1 FMN201      0.0000 
     30 O2P        15.8600   14.8440   -5.1850 O.co2     1 FMN201      0.0000 
     31 O3P        15.4270   15.8700   -2.9690 O.co2     1 FMN201      0.0000 
     32 H           6.2007   17.8527   -3.9296 H         1 FMN201      0.0000 
     33 H           5.7630   20.2707  -10.4425 H         1 FMN201      0.0000 
     34 H          10.5745   20.0143  -10.0081 H         1 FMN201      0.0000 
     35 H          11.2064   18.7978   -8.7330 H         1 FMN201      0.0000 
     36 H          10.8989   17.9116   -7.2296 H         1 FMN201      0.0000 
     37 H          10.8611   20.1520   -6.0543 H         1 FMN201      0.0000 
     38 H          13.3605   20.5332   -6.1064 H         1 FMN201      0.0000 
     39 H          12.4989   17.6724   -5.6341 H         1 FMN201      0.0000 
     40 H          14.2200   18.4519   -3.6344 H         1 FMN201      0.0000 
     41 H          14.9593   19.1130   -5.1029 H         1 FMN201      0.0000 
     42 H           7.6357   21.5000  -13.3127 H         1 FMN201      0.0000 
     43 H           6.3081   20.6288  -13.0585 H         1 FMN201      0.0000 
     44 H           6.4524   22.0866  -12.3951 H         1 FMN201      0.0000 
     45 H          10.8546   20.7244  -12.2367 H         1 FMN201      0.0000 
     46 H           9.7111   20.1218  -13.1935 H         1 FMN201      0.0000 
     47 H           9.7490   21.6988  -12.8805 H         1 FMN201      0.0000 
     48 H          12.0378   20.8719   -8.5641 H         1 FMN201      0.0000 
     49 H          13.3886   19.6313   -8.3176 H         1 FMN201      0.0000 
     50 H          11.2690   18.6095   -4.2669 H         1 FMN201      0.0000 
@<TRIPOS>BOND
     1    2    1 1    
     2   18    1 2    
     3    3    2 2    
     4    4    2 am   
     5    5    4 am   
     6   32    4 1    
     7    6    5 2    
     8    7    5 1    
     9    8    7 2    
    10   18    7 1    
    11    9    8 1    
    12   10    9 ar   
    13   16    9 ar   
    14   11   10 ar   
    15   33   10 1    
    16   12   11 1    
    17   13   11 ar   
    18   42   12 1    
    19   43   12 1    
    20   44   12 1    
    21   14   13 1    
    22   15   13 ar   
    23   45   14 1    
    24   46   14 1    
    25   47   14 1    
    26   16   15 ar   
    27   34   15 1    
    28   17   16 1    
    29   18   17 1    
    30   19   17 1    
    31   20   19 1    
    32   35   19 1    
    33   36   19 1    
    34   21   20 1    
    35   22   20 1    
    36   37   20 1    
    37   48   21 1    
    38   23   22 1    
    39   24   22 1    
    40   38   22 1    
    41   49   23 1    
    42   25   24 1    
    43   26   24 1    
    44   39   24 1    
    45   50   25 1    
    46   27   26 1    
    47   40   26 1    
    48   41   26 1    
    49   28   27 1    
    50   29   28 ar   
    51   30   28 ar   
    52   31   28 ar   
@<TRIPOS>SUBSTRUCTURE
     1 FMN201      1 GROUP   
@<TRIPOS>SET

