#    Name: 3r6x_X84_1_INTS_M
#    Modification time : Tue Mar 25 11:06:19 2014

@<TRIPOS>MOLECULE
3r6x_X84_1_INTS_M
   38     0     9     0     0
SMALL
NO_CHARGES


@<TRIPOS>ATOM
      1 O         -63.2045  -10.9810   23.1440 O.2       1 ALC1        0.0000 
      2 O         -64.0990  -10.1890   23.9820 O.2       7 ALL1        0.0000 
      3 O         -62.3100  -11.7730   22.3060 O.2       4 ALP1        0.0000 
      4 O         -66.9870  -10.5500   19.7010 O.2       1 ALC1        0.0000 
      5 O         -66.9810   -9.9660   21.0520 O.2       7 ALL1        0.0000 
      6 O         -66.9930  -11.1340   18.3500 O.2       4 ALP1        0.0000 
      7 CA        -66.6870  -11.7160   24.4645 C.3       3 GLC5        0.0000 
      8 CA        -66.3700   -9.8340   23.3530 C.3       9 GLL5        0.0000 
      9 CA        -67.0040  -13.5980   25.5760 C.3       6 GLP5        0.0000 
     10 CA        -64.4480   -7.7705   24.4635 C.3       3 GLC5        0.0000 
     11 CA        -65.5440   -9.1720   25.5900 C.3       9 GLL5        0.0000 
     12 CA        -63.3520   -6.3690   23.3370 C.3       6 GLP5        0.0000 
     13 CA        -63.1020   -8.1485   24.0425 C.3       3 GLC5        0.0000 
     14 CA        -62.8520   -9.9280   24.7480 C.3       9 GLL5        0.0000 
     15 CA        -61.3050  -12.5970   24.1690 C.3       3 GLC5        0.0000 
     16 CA        -62.8600  -12.3620   25.5750 C.3       9 GLL5        0.0000 
     17 CA        -59.7500  -12.8320   22.7630 C.3       6 GLP5        0.0000 
     18 N         -64.3525  -11.5790   20.8985 N.am      2 SEC2        0.0000 
     19 N         -65.3490  -11.2190   21.8990 N.am      8 SEL2        0.0000 
     20 N         -63.3560  -11.9390   19.8980 N.am      5 SEP2        0.0000 
     21 CA        -69.1580  -10.3030   25.1885 C.3       3 GLC5        0.0000 
     22 CA        -67.6680   -9.3470   23.7110 C.3       9 GLL5        0.0000 
     23 CA        -70.5180  -11.5460   26.0250 C.3       6 GLP5        0.0000 
     24 CA        -68.0075  -11.0102   22.7535 C.3       3 GLC5        0.0000 
     25 CA        -68.9960  -12.4300   21.9750 C.3       6 GLP5        0.0000 
     26 CA        -65.8702  -10.6158   26.4168 C.3       3 GLC5        0.0000 
     27 CA        -65.2870   -9.7470   24.3030 C.3       9 GLL5        0.0000 
     28 CA        -66.3250  -11.7720   27.8870 C.3       6 GLP5        0.0000 
     29 CA        -65.4260   -8.5004   22.6603 C.3       3 GLC5        0.0000 
     30 CA        -64.6990   -7.3320   21.4030 C.3       6 GLP5        0.0000 
     31 CA        -66.8558  -10.2508   26.6785 C.3       3 GLC5        0.0000 
     32 CA        -67.9280   -8.7730   24.9930 C.3       9 GLL5        0.0000 
     33 CA        -60.7030  -10.1248   25.4781 C.3       3 GLC5        0.0000 
     34 CA        -62.6420  -10.9760   25.8230 C.3       9 GLL5        0.0000 
     35 CA        -58.9180   -9.7230   24.7590 C.3       6 GLP5        0.0000 
     36 CA        -65.7101   -9.8501   28.4208 C.3       3 GLC5        0.0000 
     37 CA        -65.7790   -7.9410   29.2030 C.3       9 GLL5        0.0000 
     38 CA        -64.4379  -12.0491   27.2564 C.3       3 GLC5        0.0000 
@<TRIPOS>BOND
@<TRIPOS>SUBSTRUCTURE
     1 ALC1        1 GROUP        1 X    ALC  0     ROOT ALC X 1
     2 SEC2       18 GROUP        1 X    SEC  0     **** SEC X 2
     3 GLC5        7 GROUP        1 X    GLC  0     **** GLC X 6
     4 ALP1        3 GROUP        1 Y    ALP  0     ROOT ALP Y 8
     5 SEP2       20 GROUP        1 Y    SEP  0     **** SEP Y 9
     6 GLP5        9 GROUP        1 Y    GLP  0     **** GLP Y 13
     7 ALL1        2 GROUP        1 Z    ALL  0     ROOT ALL Z 15
     8 SEL2       19 GROUP        1 Z    SEL  0     **** SEL Z 16
     9 GLL5        8 GROUP        1 Z    GLL  0     **** GLL Z 20
@<TRIPOS>SET

