#    Name: 3r6x_X84_1_ligand
#    Modification time : Tue Mar 25 11:06:19 2014

@<TRIPOS>MOLECULE
3r6x_X84_1_ligand
   44    45     1     0     0
SMALL
NO_CHARGES


@<TRIPOS>ATOM
      1 N01       -64.0990  -10.1890   23.9820 N.pl3     1 X84778      0.0000 
      2 N02       -66.9810   -9.9660   21.0520 N.am      1 X84778      0.0000 
      3 N03       -62.0250  -11.5060   28.1300 N.ar      1 X84778      0.0000 
      4 N04       -67.0420   -8.1800   27.1150 N.pl3     1 X84778      0.0000 
      5 N05       -69.1280   -8.3490   25.2680 N.pl3     1 X84778      0.0000 
      6 C06       -67.6680   -9.3470   23.7110 C.ar      1 X84778      0.0000 
      7 C07       -66.3700   -9.8340   23.3530 C.ar      1 X84778      0.0000 
      8 C08       -65.2870   -9.7470   24.3030 C.ar      1 X84778      0.0000 
      9 C09       -65.5440   -9.1720   25.5900 C.ar      1 X84778      0.0000 
     10 C10       -66.8450   -8.6860   25.9470 C.ar      1 X84778      0.0000 
     11 C11       -67.9280   -8.7730   24.9930 C.ar      1 X84778      0.0000 
     12 C12       -66.1930  -10.3770   22.0970 C.2       1 X84778      0.0000 
     13 C13       -62.8520   -9.9280   24.7480 C.3       1 X84778      0.0000 
     14 C14       -62.6420  -10.9760   25.8230 C.ar      1 X84778      0.0000 
     15 C15       -62.2290  -10.6010   27.1090 C.ar      1 X84778      0.0000 
     16 C16       -62.2460  -12.8410   27.8590 C.ar      1 X84778      0.0000 
     17 C17       -62.6620  -13.3130   26.6030 C.ar      1 X84778      0.0000 
     18 C18       -62.8600  -12.3620   25.5750 C.ar      1 X84778      0.0000 
     19 C19       -66.0120   -7.3640   27.8110 C.3       1 X84778      0.0000 
     20 C20       -65.7790   -7.9410   29.2030 C.3       1 X84778      0.0000 
     21 C21       -64.2950   -8.2040   29.4020 C.3       1 X84778      0.0000 
     22 O22       -65.3490  -11.2190   21.8990 O.2       1 X84778      0.0000 
     23 O23       -64.1250   -9.3500   30.2010 O.3       1 X84778      0.0000 
     24 O24       -69.3920   -7.7350   26.3950 O.2       1 X84778      0.0000 
     25 O25       -70.1200   -8.5340   24.4170 O.2       1 X84778      0.0000 
     26 H         -63.9385  -10.7894   23.1160 H         1 X84778      0.0000 
     27 H         -66.7938  -10.3907   20.1662 H         1 X84778      0.0000 
     28 H         -67.6737   -9.2777   21.2674 H         1 X84778      0.0000 
     29 H         -67.9287   -8.2989   27.6627 H         1 X84778      0.0000 
     30 H         -68.4318   -9.4128   23.0266 H         1 X84778      0.0000 
     31 H         -64.7811   -9.1064   26.2711 H         1 X84778      0.0000 
     32 H         -62.9017   -8.9406   25.2209 H         1 X84778      0.0000 
     33 H         -61.9886   -9.9350   24.0732 H         1 X84778      0.0000 
     34 H         -62.0696   -9.5793   27.2950 H         1 X84778      0.0000 
     35 H         -62.0987  -13.5471   28.6228 H         1 X84778      0.0000 
     36 H         -62.8151  -14.2931   26.4359 H         1 X84778      0.0000 
     37 H         -63.1611  -12.6661   24.6474 H         1 X84778      0.0000 
     38 H         -66.3469   -6.3355   27.9089 H         1 X84778      0.0000 
     39 H         -65.0761   -7.3865   27.2605 H         1 X84778      0.0000 
     40 H         -66.3284   -8.8706   29.3031 H         1 X84778      0.0000 
     41 H         -66.1246   -7.2327   29.9479 H         1 X84778      0.0000 
     42 H         -63.8573   -7.3082   29.8630 H         1 X84778      0.0000 
     43 H         -63.8415   -8.3201   28.4083 H         1 X84778      0.0000 
     44 H         -63.1599   -9.3419   30.4629 H         1 X84778      0.0000 
@<TRIPOS>BOND
     1    8    1 1    
     2   13    1 1    
     3   26    1 1    
     4   12    2 am   
     5   27    2 1    
     6   28    2 1    
     7   15    3 ar   
     8   16    3 ar   
     9   10    4 1    
    10   19    4 1    
    11   29    4 1    
    12   11    5 1    
    13   24    5 2    
    14   25    5 2    
    15    7    6 ar   
    16   11    6 ar   
    17   30    6 1    
    18    8    7 ar   
    19   12    7 1    
    20    9    8 ar   
    21   10    9 ar   
    22   31    9 1    
    23   11   10 ar   
    24   22   12 2    
    25   14   13 1    
    26   32   13 1    
    27   33   13 1    
    28   15   14 ar   
    29   18   14 ar   
    30   34   15 1    
    31   17   16 ar   
    32   35   16 1    
    33   18   17 ar   
    34   36   17 1    
    35   37   18 1    
    36   20   19 1    
    37   38   19 1    
    38   39   19 1    
    39   21   20 1    
    40   40   20 1    
    41   41   20 1    
    42   23   21 1    
    43   42   21 1    
    44   43   21 1    
    45   44   23 1    
@<TRIPOS>SUBSTRUCTURE
     1 X84778      1 GROUP   
@<TRIPOS>SET

