#    Name: 3stw_2TD_1_INTS_M
#    Modification time : Mon Mar 24 18:35:50 2014

@<TRIPOS>MOLECULE
3stw_2TD_1_INTS_M
   44     0     6     0     0
SMALL
NO_CHARGES


@<TRIPOS>ATOM
      1 N         -21.5865   -8.3845  -25.6755 N.am      1 SEC2        0.0000 
      2 N         -22.1640   -7.4060  -26.6600 N.am      5 SEL2        0.0000 
      3 N         -21.0090   -9.3630  -24.6910 N.am      3 SEP2        0.0000 
      4 N         -23.2050   -7.7590  -27.2325 N.am      1 SEC2        0.0000 
      5 N         -24.2460   -8.1120  -27.8050 N.am      3 SEP2        0.0000 
      6 CA        -22.1495   -7.1635  -24.6185 C.3       2 GLC5        0.0000 
      7 CA        -21.2740   -5.6290  -25.6850 C.3       6 GLL5        0.0000 
      8 CA        -23.0250   -8.6980  -23.5520 C.3       4 GLP5        0.0000 
      9 CA        -20.1490   -5.7260  -24.4020 C.3       2 GLC5        0.0000 
     10 CA        -19.0240   -5.8230  -23.1190 C.3       4 GLP5        0.0000 
     11 CA        -20.9970   -3.9550  -24.8605 C.3       2 GLC5        0.0000 
     12 CA        -20.7200   -2.2810  -24.0360 C.3       4 GLP5        0.0000 
     13 CA        -20.1065   -4.6360  -28.5340 C.3       2 GLC5        0.0000 
     14 CA        -20.4500   -6.5430  -27.9950 C.3       6 GLL5        0.0000 
     15 CA        -19.7630   -2.7290  -29.0730 C.3       4 GLP5        0.0000 
     16 CA        -18.3900   -8.4445  -26.2430 C.3       2 GLC5        0.0000 
     17 CA        -19.0510   -7.1310  -27.7680 C.3       6 GLL5        0.0000 
     18 CA        -17.7290   -9.7580  -24.7180 C.3       4 GLP5        0.0000 
     19 CA        -18.1430   -5.6835  -24.9695 C.3       2 GLC5        0.0000 
     20 CA        -17.2620   -5.5440  -26.8200 C.3       6 GLL5        0.0000 
     21 CA        -15.5500   -4.0395  -28.9830 C.3       2 GLC5        0.0000 
     22 CA        -16.1290   -4.5830  -27.2270 C.3       6 GLL5        0.0000 
     23 CA        -14.9710   -3.4960  -30.7390 C.3       4 GLP5        0.0000 
     24 CA        -15.3810   -4.3895  -24.5465 C.3       2 GLC5        0.0000 
     25 CA        -14.8800   -4.5080  -26.3400 C.3       6 GLL5        0.0000 
     26 CA        -15.8820   -4.2710  -22.7530 C.3       4 GLP5        0.0000 
     27 CA        -14.2795   -4.1870  -28.9015 C.3       2 GLC5        0.0000 
     28 CA        -13.5880   -4.8780  -27.0640 C.3       6 GLL5        0.0000 
     29 CA         -9.9260   -7.0810  -28.8715 C.3       2 GLC5        0.0000 
     30 CA         -8.9600   -5.5170  -28.1390 C.3       6 GLL5        0.0000 
     31 CA        -10.8920   -8.6450  -29.6040 C.3       4 GLP5        0.0000 
     32 CA         -7.1075   -6.2530  -27.9630 C.3       2 GLC5        0.0000 
     33 CA         -5.2550   -6.9890  -27.7870 C.3       4 GLP5        0.0000 
     34 CA         -9.0155   -6.9590  -26.7860 C.3       2 GLC5        0.0000 
     35 CA         -9.0710   -8.4010  -25.4330 C.3       4 GLP5        0.0000 
     36 CA        -17.3820   -7.1935  -29.4745 C.3       2 GLC5        0.0000 
     37 CA        -17.9210   -6.1650  -28.0480 C.3       6 GLL5        0.0000 
     38 CA        -16.2780   -7.7390  -31.0410 C.3       4 GLP5        0.0000 
     39 CA        -16.2888   -4.6672  -24.8882 C.3       2 GLC5        0.0000 
     40 CA        -18.3116   -3.9739  -28.2017 C.3       2 GLC5        0.0000 
     41 CA        -10.8157   -6.9675  -28.3937 C.3       2 GLC5        0.0000 
     42 CA        -11.1580   -5.6520  -26.6470 C.3       6 GLL5        0.0000 
     43 CA         -9.9052   -6.8455  -26.3083 C.3       2 GLC5        0.0000 
     44 CA        -10.3210   -4.9280  -27.7200 C.3       6 GLL5        0.0000 
@<TRIPOS>BOND
@<TRIPOS>SUBSTRUCTURE
     1 SEC2        1 GROUP        1 X    SEC  0     ROOT SEC X 2
     2 GLC5        6 GROUP        1 X    GLC  0     **** GLC X 6
     3 SEP2        3 GROUP        1 Y    SEP  0     ROOT SEP Y 9
     4 GLP5        8 GROUP        1 Y    GLP  0     **** GLP Y 13
     5 SEL2        2 GROUP        1 Z    SEL  0     ROOT SEL Z 16
     6 GLL5        7 GROUP        1 Z    GLL  0     **** GLL Z 20
@<TRIPOS>SET

