#    Name: 3stw_2TD_1_ligand
#    Modification time : Mon Mar 24 18:35:50 2014

@<TRIPOS>MOLECULE
3stw_2TD_1_ligand
   36    35     1     0     0
SMALL
NO_CHARGES


@<TRIPOS>ATOM
      1 O1        -22.1640   -7.4060  -26.6600 O.2       1 2TD266      0.0000 
      2 C2        -21.3560   -6.5880  -26.7800 C.2       1 2TD266      0.0000 
      3 C1        -21.2740   -5.6290  -25.6850 C.3       1 2TD266      0.0000 
      4 C3        -20.4500   -6.5430  -27.9950 C.3       1 2TD266      0.0000 
      5 C4        -19.0510   -7.1310  -27.7680 C.3       1 2TD266      0.0000 
      6 C5        -17.9210   -6.1650  -28.0480 C.3       1 2TD266      0.0000 
      7 C6        -17.2620   -5.5440  -26.8200 C.3       1 2TD266      0.0000 
      8 C7        -16.1290   -4.5830  -27.2270 C.3       1 2TD266      0.0000 
      9 C8        -14.8800   -4.5080  -26.3400 C.3       1 2TD266      0.0000 
     10 C9        -13.5880   -4.8780  -27.0640 C.3       1 2TD266      0.0000 
     11 C10       -12.3470   -4.7920  -26.1700 C.3       1 2TD266      0.0000 
     12 C11       -11.1580   -5.6520  -26.6470 C.3       1 2TD266      0.0000 
     13 C12       -10.3210   -4.9280  -27.7200 C.2       1 2TD266      0.0000 
     14 C13        -8.9600   -5.5170  -28.1390 C.2       1 2TD266      0.0000 
     15 H         -20.3403   -5.4949  -28.3286 H         1 2TD266      0.0000 
     16 H         -20.9297   -7.0899  -28.8272 H         1 2TD266      0.0000 
     17 H         -18.9375   -8.0226  -28.4092 H         1 2TD266      0.0000 
     18 H         -18.9832   -7.4804  -26.7228 H         1 2TD266      0.0000 
     19 H         -18.2977   -5.3457  -28.6986 H         1 2TD266      0.0000 
     20 H         -17.1389   -6.6851  -28.6432 H         1 2TD266      0.0000 
     21 H         -16.8483   -6.3314  -26.1925 H         1 2TD266      0.0000 
     22 H         -18.0057   -4.9908  -26.2493 H         1 2TD266      0.0000 
     23 H         -16.5610   -3.5526  -27.3173 H         1 2TD266      0.0000 
     24 H         -15.8077   -4.8437  -28.2688 H         1 2TD266      0.0000 
     25 H         -15.0154   -5.1812  -25.4794 H         1 2TD266      0.0000 
     26 H         -14.7889   -3.4856  -25.9417 H         1 2TD266      0.0000 
     27 H         -13.4535   -4.2078  -27.9246 H         1 2TD266      0.0000 
     28 H         -13.6750   -5.9018  -27.4542 H         1 2TD266      0.0000 
     29 H         -12.6181   -5.1034  -25.1482 H         1 2TD266      0.0000 
     30 H         -12.0191   -3.7415  -26.1107 H         1 2TD266      0.0000 
     31 H         -11.5385   -6.5853  -27.0618 H         1 2TD266      0.0000 
     32 H         -10.5208   -5.8818  -25.7932 H         1 2TD266      0.0000 
     33 H         -10.6485   -4.1082  -28.1281 H         1 2TD266      0.0000 
     34 H         -21.0689   -6.0761  -24.8143 H         1 2TD266      0.0000 
     35 H         -20.5584   -4.9480  -25.8405 H         1 2TD266      0.0000 
     36 H         -22.1320   -5.1300  -25.5633 H         1 2TD266      0.0000 
@<TRIPOS>BOND
     1    2    1 2    
     2    3    2 1    
     3    4    2 1    
     4   34    3 1    
     5   35    3 1    
     6   36    3 1    
     7    5    4 1    
     8   15    4 1    
     9   16    4 1    
    10    6    5 1    
    11   17    5 1    
    12   18    5 1    
    13    7    6 1    
    14   19    6 1    
    15   20    6 1    
    16    8    7 1    
    17   21    7 1    
    18   22    7 1    
    19    9    8 1    
    20   23    8 1    
    21   24    8 1    
    22   10    9 1    
    23   25    9 1    
    24   26    9 1    
    25   11   10 1    
    26   27   10 1    
    27   28   10 1    
    28   12   11 1    
    29   29   11 1    
    30   30   11 1    
    31   13   12 1    
    32   31   12 1    
    33   32   12 1    
    34   14   13 2    
    35   33   13 1    
@<TRIPOS>SUBSTRUCTURE
     1 2TD266      1 GROUP   
@<TRIPOS>SET

