#    Name: 1OXR_1_CAVITY_N1_ALL.mol2
#    Modification time : Mon Mar 10 23:17:46 2014

@<TRIPOS>MOLECULE
1OXR_1_CAVITY_N1_ALL.mol2
   71     0     7     0     0
SMALL
NO_CHARGES


@<TRIPOS>ATOM
      1 OD1        13.4966   11.1725    4.6545 O.3       3 ASP3        0.0000 
      2 N          12.6874   10.2893    3.7517 N.2       2 ALA2        0.0000 
      3 CA         12.6139   13.2998    5.8569 C.3       6 GLY6        0.0000 
      4 OG         13.7461   13.2677    4.8735 O.2       1 SER1        0.0000 
      5 DU         11.8047   12.4166    4.9540 H         7 CUB7        0.0000 
      6 CA         12.9368   12.3845    3.9706 C.3       6 GLY6        0.0000 
      7 DU          9.8632   11.5654    5.0346 H         7 CUB7        0.0000 
      8 N          10.9954   11.5334    4.0512 N.2       2 ALA2        0.0000 
      9 CA         12.1276   11.5013    3.0677 C.3       6 GLY6        0.0000 
     10 CA          9.0540   10.6823    4.1317 C.3       6 GLY6        0.0000 
     11 CA         10.1862   10.6502    3.1483 C.3       6 GLY6        0.0000 
     12 CA         12.0541   14.5118    5.1730 C.3       6 GLY6        0.0000 
     13 OG         13.1863   14.4797    4.1895 O.2       1 SER1        0.0000 
     14 N          14.3185   14.4477    3.2061 N.2       2 ALA2        0.0000 
     15 CA          6.7161   13.7568    8.2037 C.3       6 GLY6        0.0000 
     16 CA          7.8483   13.7247    7.2203 C.3       6 GLY6        0.0000 
     17 CA          8.9805   13.6927    6.2369 C.3       6 GLY6        0.0000 
     18 CA         10.1127   13.6606    5.2535 C.3       6 GLY6        0.0000 
     19 DU         11.2449   13.6286    4.2701 H         7 CUB7        0.0000 
     20 CA         12.3771   13.5965    3.2867 C.3       6 GLY6        0.0000 
     21 CZ          5.9069   12.8736    7.3009 C.ar      5 PHE5        0.0000 
     22 O           7.0391   12.8415    6.3175 O.2       2 ALA2        0.0000 
     23 O           8.1713   12.8095    5.3341 O.2       2 ALA2        0.0000 
     24 DU          9.3035   12.7774    4.3506 H         7 CUB7        0.0000 
     25 CA         10.4357   12.7454    3.3672 C.3       6 GLY6        0.0000 
     26 CA         11.5679   12.7133    2.3838 C.3       6 GLY6        0.0000 
     27 CA          8.4943   11.8943    3.4478 C.3       6 GLY6        0.0000 
     28 OG         13.4358   16.5749    4.4085 O.2       1 SER1        0.0000 
     29 CA         11.4944   15.7238    4.4890 C.3       6 GLY6        0.0000 
     30 OG         12.6266   15.6917    3.5056 O.2       1 SER1        0.0000 
     31 N          13.7588   15.6597    2.5222 N.2       2 ALA2        0.0000 
     32 N           7.2886   14.9367    6.5364 N.2       2 ALA2        0.0000 
     33 CA          8.4208   14.9047    5.5530 C.3       6 GLY6        0.0000 
     34 CA          9.5530   14.8726    4.5696 C.3       6 GLY6        0.0000 
     35 DU         10.6852   14.8406    3.5862 H         7 CUB7        0.0000 
     36 CA         11.8174   14.8085    2.6028 C.3       6 GLY6        0.0000 
     37 O          12.9496   14.7765    1.6194 O.2       2 ALA2        0.0000 
     38 CA          5.3472   14.0856    6.6170 C.3       6 GLY6        0.0000 
     39 O           6.4794   14.0536    5.6336 O.2       2 ALA2        0.0000 
     40 O           7.6116   14.0215    4.6501 O.2       2 ALA2        0.0000 
     41 O           8.7438   13.9895    3.6667 O.2       2 ALA2        0.0000 
     42 DU          9.8760   13.9574    2.6833 H         7 CUB7        0.0000 
     43 CA         11.0082   13.9254    1.6999 C.3       6 GLY6        0.0000 
     44 O           7.9346   13.1063    2.7639 O.2       2 ALA2        0.0000 
     45 CA          9.0668   13.0742    1.7805 C.3       6 GLY6        0.0000 
     46 CA         10.1990   13.0422    0.7970 C.3       6 GLY6        0.0000 
     47 CA         10.9347   16.9358    3.8051 C.3       6 GLY6        0.0000 
     48 CZ         12.0669   16.9037    2.8217 C.ar      5 PHE5        0.0000 
     49 NZ         13.1991   16.8717    1.8383 N.2       4 LYS4        0.0000 
     50 N           7.8611   16.1167    4.8691 N.2       2 ALA2        0.0000 
     51 CZ          8.9933   16.0846    3.8857 C.ar      5 PHE5        0.0000 
     52 CZ         10.1255   16.0526    2.9023 C.ar      5 PHE5        0.0000 
     53 CZ         11.2577   16.0205    1.9189 C.ar      5 PHE5        0.0000 
     54 O          12.3899   15.9885    0.9354 O.2       2 ALA2        0.0000 
     55 O          13.5221   15.9564   -0.0480 O.2       2 ALA2        0.0000 
     56 O           7.0518   15.2335    3.9662 O.2       2 ALA2        0.0000 
     57 CZ          8.1840   15.2015    2.9828 C.ar      5 PHE5        0.0000 
     58 CZ          9.3162   15.1694    1.9994 C.ar      5 PHE5        0.0000 
     59 O          10.4484   15.1374    1.0160 O.2       2 ALA2        0.0000 
     60 O          11.5806   15.1053    0.0326 O.2       2 ALA2        0.0000 
     61 CA          7.3748   14.3183    2.0800 C.3       6 GLY6        0.0000 
     62 N           8.5070   14.2862    1.0965 N.2       2 ALA2        0.0000 
     63 N           9.6392   14.2542    0.1131 N.2       2 ALA2        0.0000 
     64 N           7.6978   13.4030    0.1937 N.2       2 ALA2        0.0000 
     65 O          11.8301   17.2005    0.2515 O.2       2 ALA2        0.0000 
     66 NZ         12.9623   17.1684   -0.7319 N.2       4 LYS4        0.0000 
     67 CZ          9.8887   16.3494    0.3321 C.ar      5 PHE5        0.0000 
     68 CA         11.0209   16.3173   -0.6513 C.3       6 GLY6        0.0000 
     69 CA         12.1531   16.2853   -1.6348 C.3       6 GLY6        0.0000 
     70 CA          7.9473   15.4982    0.4126 C.3       6 GLY6        0.0000 
     71 N           9.0795   15.4662   -0.5708 N.2       2 ALA2        0.0000 
@<TRIPOS>BOND
@<TRIPOS>SUBSTRUCTURE
     1 SER1        4 GROUP   
     2 ALA2        2 GROUP   
     3 ASP3        1 GROUP   
     4 LYS4       49 GROUP   
     5 PHE5       21 GROUP   
     6 GLY6        3 GROUP   
     7 CUB7        5 GROUP   
@<TRIPOS>SET

