#    Name: 1oxr_AIN_1_INTS_M
#    Modification time : Mon Mar 24 20:45:22 2014

@<TRIPOS>MOLECULE
1oxr_AIN_1_INTS_M
   16     0     6     0     0
SMALL
NO_CHARGES


@<TRIPOS>ATOM
      1 N          13.6745   14.6785    0.0980 N.am      1 SEC2        0.0000 
      2 N          13.9070   16.1300    0.6240 N.am      5 SEL2        0.0000 
      3 N          13.4420   13.2270   -0.4280 N.am      3 SEP2        0.0000 
      4 CA         12.2205   14.5835   -1.1570 C.3       2 GLC5        0.0000 
      5 CA         11.1140   15.3810    0.4560 C.3       6 GLL5        0.0000 
      6 CA         13.3270   13.7860   -2.7700 C.3       4 GLP5        0.0000 
      7 CA         13.2275   12.4235    2.3790 C.3       2 GLC5        0.0000 
      8 CA         12.8900   12.5090    4.0560 C.3       6 GLL5        0.0000 
      9 CA         13.5650   12.3380    0.7020 C.3       4 GLP5        0.0000 
     10 CA         14.8275   11.8435    3.2140 C.3       2 GLC5        0.0000 
     11 CA         16.7650   11.1780    2.3720 C.3       4 GLP5        0.0000 
     12 CA          9.3565   12.7430    0.5747 C.3       2 GLC5        0.0000 
     13 CA          9.7740   15.0010    0.4290 C.3       6 GLL5        0.0000 
     14 CA          9.2660   10.6850    0.1450 C.3       4 GLP5        0.0000 
     15 CA         12.4225   13.7366    1.3467 C.3       2 GLC5        0.0000 
     16 CA         11.0880   14.9220    2.9230 C.3       6 GLL5        0.0000 
@<TRIPOS>BOND
@<TRIPOS>SUBSTRUCTURE
     1 SEC2        1 GROUP        1 X    SEC  0     ROOT SEC X 2
     2 GLC5        4 GROUP        1 X    GLC  0     **** GLC X 6
     3 SEP2        3 GROUP        1 Y    SEP  0     ROOT SEP Y 9
     4 GLP5        6 GROUP        1 Y    GLP  0     **** GLP Y 13
     5 SEL2        2 GROUP        1 Z    SEL  0     ROOT SEL Z 16
     6 GLL5        5 GROUP        1 Z    GLL  0     **** GLL Z 20
@<TRIPOS>SET

