#    Name: 1oxr_AIN_1_ligand
#    Modification time : Mon Mar 24 20:45:22 2014

@<TRIPOS>MOLECULE
1oxr_AIN_1_ligand
   20    20     1     0     0
SMALL
NO_CHARGES


@<TRIPOS>ATOM
      1 O1         13.9070   16.1300    0.6240 O.co2     1 AIN141      0.0000 
      2 C7         13.2540   15.7780    1.7230 C.2       1 AIN141      0.0000 
      3 O2         13.9110   15.7590    2.7490 O.co2     1 AIN141      0.0000 
      4 C3         11.8300   15.3160    1.6640 C.ar      1 AIN141      0.0000 
      5 C4         11.1140   15.3810    0.4560 C.ar      1 AIN141      0.0000 
      6 C5          9.7740   15.0010    0.4290 C.ar      1 AIN141      0.0000 
      7 C6          9.1200   14.6010    1.5800 C.ar      1 AIN141      0.0000 
      8 C1          9.7520   14.5680    2.8020 C.ar      1 AIN141      0.0000 
      9 C2         11.0880   14.9220    2.9230 C.ar      1 AIN141      0.0000 
     10 O3         11.8230   14.9060    4.0900 O.3       1 AIN141      0.0000 
     11 C8         12.4770   13.7700    4.7690 C.2       1 AIN141      0.0000 
     12 O4         12.6860   13.8700    5.9710 O.2       1 AIN141      0.0000 
     13 C9         12.8900   12.5090    4.0560 C.3       1 AIN141      0.0000 
     14 H          11.5791   15.7060   -0.3947 H         1 AIN141      0.0000 
     15 H           9.2615   15.0199   -0.4727 H         1 AIN141      0.0000 
     16 H           8.1162   14.3159    1.5169 H         1 AIN141      0.0000 
     17 H           9.2265   14.2751    3.6473 H         1 AIN141      0.0000 
     18 H          13.5463   12.6939    3.3245 H         1 AIN141      0.0000 
     19 H          13.3207   11.8549    4.6778 H         1 AIN141      0.0000 
     20 H          12.1085   12.0455    3.6384 H         1 AIN141      0.0000 
@<TRIPOS>BOND
     1    2    1 ar   
     2    3    2 ar   
     3    4    2 1    
     4    5    4 ar   
     5    9    4 ar   
     6    6    5 ar   
     7   14    5 1    
     8    7    6 ar   
     9   15    6 1    
    10    8    7 ar   
    11   16    7 1    
    12    9    8 ar   
    13   17    8 1    
    14   10    9 1    
    15   11   10 1    
    16   12   11 2    
    17   13   11 1    
    18   18   13 1    
    19   19   13 1    
    20   20   13 1    
@<TRIPOS>SUBSTRUCTURE
     1 AIN141      1 GROUP   
@<TRIPOS>SET

