#    Name: 3wi6_YRZ_1_INTS_M
#    Modification time : Tue Mar 25 02:35:39 2014

@<TRIPOS>MOLECULE
3wi6_YRZ_1_INTS_M
   39     0     9     0     0
SMALL
NO_CHARGES


@<TRIPOS>ATOM
      1 OD1       -31.8235  -18.2460  -16.3960 O.co2     2 ASC3        0.0000 
      2 OD1       -32.5690  -16.4980  -16.0290 O.co2     8 ASL3        0.0000 
      3 OD1       -31.0780  -19.9940  -16.7630 O.co2     5 ASP3        0.0000 
      4 OD1       -31.9770  -17.7685  -15.3965 O.co2     2 ASC3        0.0000 
      5 OD1       -31.3850  -19.0390  -14.7640 O.co2     5 ASP3        0.0000 
      6 CA        -34.6700  -15.3090  -13.8630 C.3       3 GLC5        0.0000 
      7 CA        -33.8850  -16.0710  -15.6390 C.3       9 GLL5        0.0000 
      8 CA        -35.4550  -14.5470  -12.0870 C.3       6 GLP5        0.0000 
      9 CA        -37.8765  -19.7395  -13.7290 C.3       3 GLC5        0.0000 
     10 CA        -36.4740  -18.7560  -12.3190 C.3       9 GLL5        0.0000 
     11 CA        -39.2790  -20.7230  -15.1390 C.3       6 GLP5        0.0000 
     12 CA        -35.9645  -16.6515  -12.2030 C.3       3 GLC5        0.0000 
     13 CA        -38.0520  -20.6420  -11.3765 C.3       3 GLC5        0.0000 
     14 CA        -36.0430  -19.7860  -11.4400 C.3       9 GLL5        0.0000 
     15 CA        -40.0610  -21.4980  -11.3130 C.3       6 GLP5        0.0000 
     16 CA        -35.3195  -20.1950   -9.4975 C.3       3 GLC5        0.0000 
     17 CA        -34.5960  -20.6040   -7.5550 C.3       6 GLP5        0.0000 
     18 CA        -35.6165  -21.7010  -11.1645 C.3       3 GLC5        0.0000 
     19 CA        -35.1900  -23.6160  -10.8890 C.3       6 GLP5        0.0000 
     20 CA        -35.5250  -18.3535   -9.8035 C.3       3 GLC5        0.0000 
     21 CA        -35.0070  -16.9210   -8.1670 C.3       6 GLP5        0.0000 
     22 CA        -34.1185  -18.9300  -10.8475 C.3       3 GLC5        0.0000 
     23 CA        -32.1940  -18.0740  -10.2550 C.3       6 GLP5        0.0000 
     24 N         -38.5120  -18.0055   -9.2150 N.am      1 SEC2        0.0000 
     25 N         -37.7690  -18.8290  -10.4090 N.am      7 SEL2        0.0000 
     26 N         -39.2550  -17.1820   -8.0210 N.am      4 SEP2        0.0000 
     27 CA        -37.6835  -16.5410  -10.1625 C.3       3 GLC5        0.0000 
     28 CA        -38.1410  -17.2070  -12.2370 C.3       9 GLL5        0.0000 
     29 CA        -37.2260  -15.8750   -8.0880 C.3       6 GLP5        0.0000 
     30 CA        -36.1418  -18.9950  -16.6857 C.3       3 GLC5        0.0000 
     31 CA        -34.8540  -17.2160  -15.9080 C.3       9 GLL5        0.0000 
     32 CA        -37.4190  -20.6470  -16.7190 C.3       6 GLP5        0.0000 
     33 CA        -34.1052  -18.3670  -19.4675 C.3       3 GLC5        0.0000 
     34 CA        -34.8750  -17.4700  -17.3970 C.3       9 GLL5        0.0000 
     35 CA        -34.0180  -19.0240  -21.3280 C.3       6 GLP5        0.0000 
     36 CA        -40.4350  -16.5165  -14.2590 C.3       3 GLC5        0.0000 
     37 CA        -38.5630  -15.5510  -13.9600 C.3       9 GLL5        0.0000 
     38 CA        -41.8470  -17.5630  -15.1660 C.3       6 GLP5        0.0000 
     39 CA        -36.9653  -15.5147  -12.4132 C.3       3 GLC5        0.0000 
@<TRIPOS>BOND
@<TRIPOS>SUBSTRUCTURE
     1 SEC2       24 GROUP        1 X    SEC  0     ROOT SEC X 2
     2 ASC3        1 GROUP        1 X    ASC  0     **** ASC X 3
     3 GLC5        6 GROUP        1 X    GLC  0     **** GLC X 6
     4 SEP2       26 GROUP        1 Y    SEP  0     ROOT SEP Y 9
     5 ASP3        3 GROUP        1 Y    ASP  0     **** ASP Y 10
     6 GLP5        8 GROUP        1 Y    GLP  0     **** GLP Y 13
     7 SEL2       25 GROUP        1 Z    SEL  0     ROOT SEL Z 16
     8 ASL3        2 GROUP        1 Z    ASL  0     **** ASL Z 17
     9 GLL5        7 GROUP        1 Z    GLL  0     **** GLL Z 20
@<TRIPOS>SET

