#    Name: 3wi6_YRZ_1_ligand
#    Modification time : Tue Mar 25 02:35:39 2014

@<TRIPOS>MOLECULE
3wi6_YRZ_1_ligand
   35    38     1     0     0
SMALL
NO_CHARGES


@<TRIPOS>ATOM
      1 N19       -36.1510  -16.8720  -15.3710 N.pl3     1 YRZ901      0.0000 
      2 C6        -34.8540  -17.2160  -15.9080 C.3       1 YRZ901      0.0000 
      3 C11       -34.8750  -17.4700  -17.3970 C.3       1 YRZ901      0.0000 
      4 C10       -33.5100  -17.9500  -17.8170 C.3       1 YRZ901      0.0000 
      5 C9        -32.4320  -16.9660  -17.3810 C.3       1 YRZ901      0.0000 
      6 N8        -32.5690  -16.4980  -16.0290 N.4       1 YRZ901      0.0000 
      7 C7        -33.8850  -16.0710  -15.6390 C.3       1 YRZ901      0.0000 
      8 C17       -36.5520  -17.3180  -14.1720 C.2       1 YRZ901      0.0000 
      9 C1        -37.7120  -16.7020  -13.5200 C.2       1 YRZ901      0.0000 
     10 C5        -38.5630  -15.5510  -13.9600 C.3       1 YRZ901      0.0000 
     11 C4        -39.4830  -15.3890  -12.7440 C.3       1 YRZ901      0.0000 
     12 N3        -39.1680  -16.4630  -11.8140 N.3       1 YRZ901      0.0000 
     13 N18       -35.9750  -18.3600  -13.5280 N.2       1 YRZ901      0.0000 
     14 C13       -36.4740  -18.7560  -12.3190 C.2       1 YRZ901      0.0000 
     15 C14       -36.0430  -19.7860  -11.4400 C.2       1 YRZ901      0.0000 
     16 C15       -36.8440  -19.8120  -10.3090 C.2       1 YRZ901      0.0000 
     17 N16       -37.7690  -18.8290  -10.4090 N.2       1 YRZ901      0.0000 
     18 N12       -37.4930  -18.2300  -11.6660 N.pl3     1 YRZ901      0.0000 
     19 C2        -38.1410  -17.2070  -12.2370 C.2       1 YRZ901      0.0000 
     20 H         -36.7519  -16.2641  -15.9610 H         1 YRZ901      0.0000 
     21 H         -34.4515  -18.0952  -15.4146 H         1 YRZ901      0.0000 
     22 H         -35.1161  -16.5519  -17.9182 H         1 YRZ901      0.0000 
     23 H         -35.6150  -18.2269  -17.6255 H         1 YRZ901      0.0000 
     24 H         -33.4757  -18.0574  -18.9028 H         1 YRZ901      0.0000 
     25 H         -33.3072  -18.9231  -17.3658 H         1 YRZ901      0.0000 
     26 H         -32.4453  -16.1139  -18.1000 H         1 YRZ901      0.0000 
     27 H         -31.4448  -17.4617  -17.5321 H         1 YRZ901      0.0000 
     28 H         -33.9313  -15.8294  -14.5785 H         1 YRZ901      0.0000 
     29 H         -34.2136  -15.2064  -16.2132 H         1 YRZ901      0.0000 
     30 H         -39.1394  -15.8118  -14.8010 H         1 YRZ901      0.0000 
     31 H         -37.9835  -14.6805  -14.0771 H         1 YRZ901      0.0000 
     32 H         -40.5090  -15.4482  -13.0843 H         1 YRZ901      0.0000 
     33 H         -39.2968  -14.4174  -12.3045 H         1 YRZ901      0.0000 
     34 H         -35.3055  -20.3665  -11.6201 H         1 YRZ901      0.0000 
     35 H         -36.7438  -20.4330   -9.5840 H         1 YRZ901      0.0000 
@<TRIPOS>BOND
     1    2    1 1    
     2    8    1 1    
     3   20    1 1    
     4    3    2 1    
     5    7    2 1    
     6   21    2 1    
     7    4    3 1    
     8   22    3 1    
     9   23    3 1    
    10    5    4 1    
    11   24    4 1    
    12   25    4 1    
    13    6    5 1    
    14   26    5 1    
    15   27    5 1    
    16    7    6 1    
    17   28    7 1    
    18   29    7 1    
    19    9    8 1    
    20   13    8 2    
    21   10    9 1    
    22   19    9 2    
    23   11   10 1    
    24   30   10 1    
    25   31   10 1    
    26   12   11 1    
    27   32   11 1    
    28   33   11 1    
    29   19   12 1    
    30   14   13 1    
    31   15   14 2    
    32   18   14 1    
    33   16   15 1    
    34   34   15 1    
    35   17   16 2    
    36   35   16 1    
    37   18   17 1    
    38   19   18 1    
@<TRIPOS>SUBSTRUCTURE
     1 YRZ901      1 GROUP   
@<TRIPOS>SET

