#    Name: 1gvw_0EM_1_INTS_M
#    Modification time : Tue Mar 25 04:03:12 2014

@<TRIPOS>MOLECULE
1gvw_0EM_1_INTS_M
   90     0     9     0     0
SMALL
NO_CHARGES


@<TRIPOS>ATOM
      1 CA          0.0045   22.6415   18.6035 C.3       3 GLC5        0.0000 
      2 CA          1.2510   23.0180   20.2280 C.3       9 GLL5        0.0000 
      3 CA         -1.2420   22.2650   16.9790 C.3       6 GLP5        0.0000 
      4 CA          1.9060   21.4925   20.3595 C.3       3 GLC5        0.0000 
      5 CA          2.5610   19.9670   20.4910 C.3       6 GLP5        0.0000 
      6 CA         -0.7465   23.6140   18.3480 C.3       3 GLC5        0.0000 
      7 CA         -0.2510   24.9630   19.7170 C.3       9 GLL5        0.0000 
      8 O           4.1240   25.9185   18.2710 O.2       1 ALC1        0.0000 
      9 O           3.5200   26.8240   19.1780 O.2       7 ALL1        0.0000 
     10 O           4.7280   25.0130   17.3640 O.2       4 ALP1        0.0000 
     11 N           3.3795   26.8895   15.7900 N.am      2 SEC2        0.0000 
     12 N           2.8090   27.9390   16.7710 N.am      8 SEL2        0.0000 
     13 N           3.9500   25.8400   14.8090 N.am      5 SEP2        0.0000 
     14 O           3.0815   30.9480   18.9630 O.2       1 ALC1        0.0000 
     15 O           2.7830   30.0750   17.7310 O.2       7 ALL1        0.0000 
     16 O           3.3800   31.8210   20.1950 O.2       4 ALP1        0.0000 
     17 N           1.3820   33.6450   17.8615 N.am      2 SEC2        0.0000 
     18 N           2.4620   33.0960   16.8710 N.am      8 SEL2        0.0000 
     19 N           0.3020   34.1940   18.8520 N.am      5 SEP2        0.0000 
     20 CA          1.0010   29.7720   13.7205 C.3       3 GLC5        0.0000 
     21 CA          0.3820   31.8430   14.2450 C.3       9 GLL5        0.0000 
     22 CA          1.6200   27.7010   13.1960 C.3       6 GLP5        0.0000 
     23 CA         -0.3650   31.2425   12.6445 C.3       3 GLC5        0.0000 
     24 CA         -1.1120   30.6420   11.0440 C.3       6 GLP5        0.0000 
     25 CA         -1.0215   34.0515   15.6135 C.3       3 GLC5        0.0000 
     26 CA         -1.6400   32.7380   14.3650 C.3       9 GLL5        0.0000 
     27 CA         -0.4030   35.3650   16.8620 C.3       6 GLP5        0.0000 
     28 CA         -3.1320   32.5660   13.2665 C.3       3 GLC5        0.0000 
     29 CA         -4.6240   32.3940   12.1680 C.3       6 GLP5        0.0000 
     30 CA         -1.3760   31.6900   12.7045 C.3       3 GLC5        0.0000 
     31 O           5.0420   30.8055   15.2135 O.2       1 ALC1        0.0000 
     32 O           3.9680   32.0010   15.5460 O.2       7 ALL1        0.0000 
     33 O           6.1160   29.6100   14.8810 O.2       4 ALP1        0.0000 
     34 CA          8.2835   33.9685   15.7910 C.3       3 GLC5        0.0000 
     35 CA          6.3350   32.9230   15.7760 C.3       9 GLL5        0.0000 
     36 CA         10.2320   35.0140   15.8060 C.3       6 GLP5        0.0000 
     37 CA          6.9755   31.3195   14.3775 C.3       3 GLC5        0.0000 
     38 CA          7.6160   29.7160   12.9790 C.3       6 GLP5        0.0000 
     39 CA          9.1085   33.6590   16.6955 C.3       3 GLC5        0.0000 
     40 CA          7.9850   32.3040   17.5850 C.3       9 GLL5        0.0000 
     41 CA          4.8995   35.0210   17.9010 C.3       3 GLC5        0.0000 
     42 CA          5.8460   33.5500   18.2210 C.3       9 GLL5        0.0000 
     43 CA          3.9530   36.4920   17.5810 C.3       6 GLP5        0.0000 
     44 CA          7.2960   34.6430   19.5315 C.3       3 GLC5        0.0000 
     45 CA          8.7460   35.7360   20.8420 C.3       6 GLP5        0.0000 
     46 N           5.2240   31.5660   11.5895 N.am      2 SEC2        0.0000 
     47 N           5.1300   32.1100   12.7550 N.am      8 SEL2        0.0000 
     48 N           5.3180   31.0220   10.4240 N.am      5 SEP2        0.0000 
     49 N           3.9195   30.9690   12.8955 N.am      2 SEC2        0.0000 
     50 N           2.7090   29.8280   13.0360 N.am      5 SEP2        0.0000 
     51 N           1.7995   35.8475   15.5715 N.am      2 SEC2        0.0000 
     52 N           2.6010   35.7980   14.4070 N.am      8 SEL2        0.0000 
     53 N           0.9980   35.8970   16.7360 N.am      5 SEP2        0.0000 
     54 O           4.3920   36.3095   11.2010 O.2       1 ALC1        0.0000 
     55 O           3.5830   36.5370   12.4910 O.2       7 ALL1        0.0000 
     56 O           5.2010   36.0820    9.9110 O.2       4 ALP1        0.0000 
     57 CA          4.7595   37.3775   14.4500 C.3       3 GLC5        0.0000 
     58 CA          3.6210   37.9040   12.9790 C.3       9 GLL5        0.0000 
     59 CA          5.8980   36.8510   15.9210 C.3       6 GLP5        0.0000 
     60 CA          5.4065   40.9200   14.0835 C.3       3 GLC5        0.0000 
     61 CA          3.9970   40.3750   12.5990 C.3       9 GLL5        0.0000 
     62 CA          6.8160   41.4650   15.5680 C.3       6 GLP5        0.0000 
     63 CA          1.8275   38.1700    9.5025 C.3       3 GLC5        0.0000 
     64 CA          2.5770   38.9860   11.0550 C.3       9 GLL5        0.0000 
     65 CA          1.0780   37.3540    7.9500 C.3       6 GLP5        0.0000 
     66 CA          6.2565   41.1010   13.0900 C.3       3 GLC5        0.0000 
     67 CA          4.7160   41.2880   11.6660 C.3       9 GLL5        0.0000 
     68 CA          7.7970   40.9140   14.5140 C.3       6 GLP5        0.0000 
     69 CA          5.3310   41.5440    9.6040 C.3       3 GLC5        0.0000 
     70 CA          5.9460   41.8000    7.5420 C.3       6 GLP5        0.0000 
     71 CA          7.4117   24.9402   20.6752 C.3       3 GLC5        0.0000 
     72 CA          6.6930   26.8970   20.3010 C.3       9 GLL5        0.0000 
     73 CA          7.6370   23.0720   20.5820 C.3       6 GLP5        0.0000 
     74 CA          9.7527   26.1107   21.5502 C.3       3 GLC5        0.0000 
     75 CA          8.5790   27.7350   21.4930 C.3       9 GLL5        0.0000 
     76 CA         11.3760   24.9940   21.7360 C.3       6 GLP5        0.0000 
     77 CA         10.3745   28.6710   20.7985 C.3       3 GLC5        0.0000 
     78 CA         12.2270   29.0270   20.4780 C.3       6 GLP5        0.0000 
     79 CA          1.2315   31.6650   18.5167 C.3       3 GLC5        0.0000 
     80 CA          2.1250   30.7490   16.5920 C.3       9 GLL5        0.0000 
     81 CA          1.0780   32.4100   20.3680 C.3       6 GLP5        0.0000 
     82 CA         -0.0278   33.4935   16.0269 C.3       3 GLC5        0.0000 
     83 CA          0.6450   31.0910   16.7390 C.3       9 GLL5        0.0000 
     84 CA          5.7532   34.9258   15.7067 C.3       3 GLC5        0.0000 
     85 CA          4.8820   33.0780   15.2090 C.3       9 GLL5        0.0000 
     86 CA          5.7355   37.9340   12.0607 C.3       3 GLC5        0.0000 
     87 CA          7.7650   37.4200   11.6540 C.3       6 GLP5        0.0000 
     88 CA          9.1234   27.1343   19.3071 C.3       3 GLC5        0.0000 
     89 CA          8.4650   28.8950   20.7450 C.3       9 GLL5        0.0000 
     90 CA         10.3160   26.1460   17.9180 C.3       6 GLP5        0.0000 
@<TRIPOS>BOND
@<TRIPOS>SUBSTRUCTURE
     1 ALC1        8 GROUP        1 X    ALC  0     ROOT ALC X 1
     2 SEC2       11 GROUP        1 X    SEC  0     **** SEC X 2
     3 GLC5        1 GROUP        1 X    GLC  0     **** GLC X 6
     4 ALP1       10 GROUP        1 Y    ALP  0     ROOT ALP Y 8
     5 SEP2       13 GROUP        1 Y    SEP  0     **** SEP Y 9
     6 GLP5        3 GROUP        1 Y    GLP  0     **** GLP Y 13
     7 ALL1        9 GROUP        1 Z    ALL  0     ROOT ALL Z 15
     8 SEL2       12 GROUP        1 Z    SEL  0     **** SEL Z 16
     9 GLL5        2 GROUP        1 Z    GLL  0     **** GLL Z 20
@<TRIPOS>SET

