#    Name: 1gvw_0EM_1_ligand
#    Modification time : Tue Mar 25 04:03:13 2014

@<TRIPOS>MOLECULE
1gvw_0EM_1_ligand
   97    98     1     0     0
SMALL
NO_CHARGES


@<TRIPOS>ATOM
      1 O1          1.5530   27.3940   20.2800 O.2       1 0EM401      0.0000 
      2 C           2.3520   26.5920   19.7950 C.2       1 0EM401      0.0000 
      3 O2          2.1280   25.1820   19.8390 O.3       1 0EM401      0.0000 
      4 CT          1.0100   24.5180   20.4580 C.3       1 0EM401      0.0000 
      5 C1          0.9900   24.7250   21.9700 C.3       1 0EM401      0.0000 
      6 C2          1.2510   23.0180   20.2280 C.3       1 0EM401      0.0000 
      7 C3         -0.2510   24.9630   19.7170 C.3       1 0EM401      0.0000 
      8 N           3.5200   26.8240   19.1780 N.am      1 0EM401      0.0000 
      9 CA          3.9840   28.2080   18.8460 C.3       1 0EM401      0.0000 
     10 C4          3.1090   28.7590   17.6920 C.2       1 0EM401      0.0000 
     11 O           2.8090   27.9390   16.7710 O.2       1 0EM401      0.0000 
     12 CB          5.4640   28.2240   18.5110 C.3       1 0EM401      0.0000 
     13 CG          6.5420   28.0500   19.5410 C.ar      1 0EM401      0.0000 
     14 CD1         6.6930   26.8970   20.3010 C.ar      1 0EM401      0.0000 
     15 CD2         7.4930   29.0520   19.7780 C.ar      1 0EM401      0.0000 
     16 CE1         7.6800   26.7200   21.2360 C.ar      1 0EM401      0.0000 
     17 CE2         8.4650   28.8950   20.7450 C.ar      1 0EM401      0.0000 
     18 CZ          8.5790   27.7350   21.4930 C.ar      1 0EM401      0.0000 
     19 N1          2.7830   30.0750   17.7310 N.am      1 0EM401      0.0000 
     20 CA1         2.1250   30.7490   16.5920 C.3       1 0EM401      0.0000 
     21 C5          2.8970   32.0560   16.3470 C.2       1 0EM401      0.0000 
     22 O3          2.4620   33.0960   16.8710 O.2       1 0EM401      0.0000 
     23 CB1         0.6450   31.0910   16.7390 C.3       1 0EM401      0.0000 
     24 CG1        -0.0190   31.7110   15.5380 C.2       1 0EM401      0.0000 
     25 ND1        -1.3170   32.2810   15.5690 N.pl3     1 0EM401      0.0000 
     26 CD21        0.3820   31.8430   14.2450 C.2       1 0EM401      0.0000 
     27 CE11       -1.6400   32.7380   14.3650 C.2       1 0EM401      0.0000 
     28 NE2        -0.6090   32.4860   13.5360 N.pl3     1 0EM401      0.0000 
     29 N2          3.9680   32.0010   15.5460 N.am      1 0EM401      0.0000 
     30 CA2         4.8820   33.0780   15.2090 C.3       1 0EM401      0.0000 
     31 CB2         6.3350   32.9230   15.7760 C.3       1 0EM401      0.0000 
     32 CG2         6.4840   32.5500   17.2740 C.3       1 0EM401      0.0000 
     33 CD11        7.9850   32.3040   17.5850 C.3       1 0EM401      0.0000 
     34 CD22        5.8460   33.5500   18.2210 C.3       1 0EM401      0.0000 
     35 P           4.8910   33.4070   13.4150 P.3       1 0EM401      0.0000 
     36 O1P         5.1300   32.1100   12.7550 O.co2     1 0EM401      0.0000 
     37 O2P         5.9260   34.4770   13.0940 O.co2     1 0EM401      0.0000 
     38 CM          3.3150   34.1150   12.9120 C.3       1 0EM401      0.0000 
     39 C6          3.1360   35.5610   13.3240 C.2       1 0EM401      0.0000 
     40 O4          2.6010   35.7980   14.4070 O.2       1 0EM401      0.0000 
     41 N3          3.5830   36.5370   12.4910 N.am      1 0EM401      0.0000 
     42 CA3         3.6210   37.9040   12.9790 C.3       1 0EM401      0.0000 
     43 CB3         3.7910   38.9920   11.9560 C.3       1 0EM401      0.0000 
     44 CG11        3.9970   40.3750   12.5990 C.3       1 0EM401      0.0000 
     45 CG21        2.5770   38.9860   11.0550 C.3       1 0EM401      0.0000 
     46 CD12        4.7160   41.2880   11.6660 C.3       1 0EM401      0.0000 
     47 H           4.1680   26.0662   18.8953 H         1 0EM401      0.0000 
     48 H           3.8120   28.8463   19.7140 H         1 0EM401      0.0000 
     49 H           5.6750   29.1983   17.9386 H         1 0EM401      0.0000 
     50 H           5.6361   27.4453   17.6831 H         1 0EM401      0.0000 
     51 H           5.9999   26.1113   20.1431 H         1 0EM401      0.0000 
     52 H           7.4578   29.9195   19.2141 H         1 0EM401      0.0000 
     53 H           7.7543   25.8268   21.7512 H         1 0EM401      0.0000 
     54 H           9.1382   29.6759   20.9202 H         1 0EM401      0.0000 
     55 H           9.2967   27.6375   22.2022 H         1 0EM401      0.0000 
     56 H           2.9783   30.6671   18.5557 H         1 0EM401      0.0000 
     57 H           2.2585   30.1544   15.6827 H         1 0EM401      0.0000 
     58 H           0.5284   31.7737   17.6133 H         1 0EM401      0.0000 
     59 H           0.0967   30.1610   17.0194 H         1 0EM401      0.0000 
     60 H          -1.8499   32.3084   16.3760 H         1 0EM401      0.0000 
     61 H           1.2164   31.5412   13.8769 H         1 0EM401      0.0000 
     62 H          -2.4659   33.1757   14.1161 H         1 0EM401      0.0000 
     63 H          -0.5560   32.7105   12.6012 H         1 0EM401      0.0000 
     64 H           4.2180   31.0594   15.0726 H         1 0EM401      0.0000 
     65 H           4.4853   34.0601   15.5767 H         1 0EM401      0.0000 
     66 H           6.8778   33.8760   15.5925 H         1 0EM401      0.0000 
     67 H           6.8608   32.1562   15.1660 H         1 0EM401      0.0000 
     68 H           5.9788   31.5715   17.4050 H         1 0EM401      0.0000 
     69 H           2.6026   33.4446   13.3708 H         1 0EM401      0.0000 
     70 H           3.3268   33.9701   11.8413 H         1 0EM401      0.0000 
     71 H           3.8928   36.3585   11.5417 H         1 0EM401      0.0000 
     72 H           4.4447   38.0150   13.7410 H         1 0EM401      0.0000 
     73 H           2.6847   38.1262   13.5667 H         1 0EM401      0.0000 
     74 H           4.6634   38.7640   11.3471 H         1 0EM401      0.0000 
     75 H           4.5691   40.2453   13.5192 H         1 0EM401      0.0000 
     76 H           3.0185   40.7859   12.8533 H         1 0EM401      0.0000 
     77 H           1.8167   24.3678   22.4047 H         1 0EM401      0.0000 
     78 H           0.9269   25.6933   22.2115 H         1 0EM401      0.0000 
     79 H           0.2118   24.2650   22.3976 H         1 0EM401      0.0000 
     80 H           2.1099   22.7125   20.6391 H         1 0EM401      0.0000 
     81 H           0.5218   22.4597   20.6237 H         1 0EM401      0.0000 
     82 H           1.2961   22.7941   19.2544 H         1 0EM401      0.0000 
     83 H          -0.3823   25.9530   19.7687 H         1 0EM401      0.0000 
     84 H          -0.2163   24.7222   18.7471 H         1 0EM401      0.0000 
     85 H          -1.0735   24.5381   20.0952 H         1 0EM401      0.0000 
     86 H           8.3607   31.5577   17.0356 H         1 0EM401      0.0000 
     87 H           8.5407   33.1141   17.3980 H         1 0EM401      0.0000 
     88 H           8.1309   32.0637   18.5447 H         1 0EM401      0.0000 
     89 H           5.9629   33.2825   19.1775 H         1 0EM401      0.0000 
     90 H           6.2436   34.4621   18.1210 H         1 0EM401      0.0000 
     91 H           4.8632   33.6394   18.0597 H         1 0EM401      0.0000 
     92 H           2.6353   39.6915   10.3486 H         1 0EM401      0.0000 
     93 H           2.4671   38.1098   10.5858 H         1 0EM401      0.0000 
     94 H           1.7340   39.1523   11.5666 H         1 0EM401      0.0000 
     95 H           5.6168   40.9315   11.4182 H         1 0EM401      0.0000 
     96 H           4.2096   41.4226   10.8143 H         1 0EM401      0.0000 
     97 H           4.8591   42.1924   12.0680 H         1 0EM401      0.0000 
@<TRIPOS>BOND
     1    2    1 2    
     2    3    2 1    
     3    8    2 am   
     4    4    3 1    
     5    5    4 1    
     6    6    4 1    
     7    7    4 1    
     8   77    5 1    
     9   78    5 1    
    10   79    5 1    
    11   80    6 1    
    12   81    6 1    
    13   82    6 1    
    14   83    7 1    
    15   84    7 1    
    16   85    7 1    
    17    9    8 1    
    18   47    8 1    
    19   10    9 1    
    20   12    9 1    
    21   48    9 1    
    22   11   10 2    
    23   19   10 am   
    24   13   12 1    
    25   49   12 1    
    26   50   12 1    
    27   14   13 ar   
    28   15   13 ar   
    29   16   14 ar   
    30   51   14 1    
    31   17   15 ar   
    32   52   15 1    
    33   18   16 ar   
    34   53   16 1    
    35   18   17 ar   
    36   54   17 1    
    37   55   18 1    
    38   20   19 1    
    39   56   19 1    
    40   21   20 1    
    41   23   20 1    
    42   57   20 1    
    43   22   21 2    
    44   29   21 am   
    45   24   23 1    
    46   58   23 1    
    47   59   23 1    
    48   25   24 1    
    49   26   24 2    
    50   27   25 1    
    51   60   25 1    
    52   28   26 1    
    53   61   26 1    
    54   28   27 2    
    55   62   27 1    
    56   63   28 1    
    57   30   29 1    
    58   64   29 1    
    59   31   30 1    
    60   35   30 1    
    61   65   30 1    
    62   32   31 1    
    63   66   31 1    
    64   67   31 1    
    65   33   32 1    
    66   34   32 1    
    67   68   32 1    
    68   86   33 1    
    69   87   33 1    
    70   88   33 1    
    71   89   34 1    
    72   90   34 1    
    73   91   34 1    
    74   36   35 ar   
    75   37   35 ar   
    76   38   35 1    
    77   39   38 1    
    78   69   38 1    
    79   70   38 1    
    80   40   39 2    
    81   41   39 am   
    82   42   41 1    
    83   71   41 1    
    84   43   42 1    
    85   72   42 1    
    86   73   42 1    
    87   44   43 1    
    88   45   43 1    
    89   74   43 1    
    90   46   44 1    
    91   75   44 1    
    92   76   44 1    
    93   92   45 1    
    94   93   45 1    
    95   94   45 1    
    96   95   46 1    
    97   96   46 1    
    98   97   46 1    
@<TRIPOS>SUBSTRUCTURE
     1 0EM401      1 GROUP   
@<TRIPOS>SET

