#    Name: 1rkh_VD2_1_INTS_M
#    Modification time : Tue Mar 25 00:50:40 2014

@<TRIPOS>MOLECULE
1rkh_VD2_1_INTS_M
  120     0     9     0     0
SMALL
NO_CHARGES


@<TRIPOS>ATOM
      1 N          64.8115   -3.0925   -7.1315 N.am      2 SEC2        0.0000 
      2 N          65.9920   -2.5040   -7.4360 N.am      8 SEL2        0.0000 
      3 N          63.6310   -3.6810   -6.8270 N.am      5 SEP2        0.0000 
      4 CA         67.4805   -3.8890   -6.2510 C.3       3 GLC5        0.0000 
      5 CA         67.3880   -1.9550   -5.5660 C.3       9 GLL5        0.0000 
      6 CA         67.5730   -5.8230   -6.9360 C.3       6 GLP5        0.0000 
      7 CA         69.5360   -2.1715   -5.7820 C.3       3 GLC5        0.0000 
      8 CA         71.6840   -2.3880   -5.9980 C.3       6 GLP5        0.0000 
      9 CA         68.4745   -3.0850   -4.1030 C.3       3 GLC5        0.0000 
     10 CA         69.5610   -4.2150   -2.6400 C.3       6 GLP5        0.0000 
     11 CA         66.2415   -2.9860   -4.1265 C.3       3 GLC5        0.0000 
     12 CA         65.0950   -4.0170   -2.6870 C.3       6 GLP5        0.0000 
     13 CA         69.0855    0.0175   -8.0315 C.3       3 GLC5        0.0000 
     14 CA         67.3460   -0.5120   -7.6460 C.3       9 GLL5        0.0000 
     15 CA         70.8250    0.5470   -8.4170 C.3       6 GLP5        0.0000 
     16 CA         67.5625    1.3300   -8.8635 C.3       3 GLC5        0.0000 
     17 CA         67.7790    3.1720  -10.0810 C.3       6 GLP5        0.0000 
     18 CA         67.7885   -1.5435   -9.4235 C.3       3 GLC5        0.0000 
     19 CA         68.2310   -2.5750  -11.2010 C.3       6 GLP5        0.0000 
     20 CA         62.2075   -0.9935   -4.9645 C.3       3 GLC5        0.0000 
     21 CA         63.2540    0.5210   -6.1940 C.3       9 GLL5        0.0000 
     22 CA         61.1610   -2.5080   -3.7350 C.3       6 GLP5        0.0000 
     23 CA         63.1030    0.0745   -9.2980 C.3       3 GLC5        0.0000 
     24 CA         61.5340    0.6100   -8.0710 C.3       9 GLL5        0.0000 
     25 CA         64.6720   -0.4610  -10.5250 C.3       6 GLP5        0.0000 
     26 CA         60.8695   -0.5065   -9.3530 C.3       3 GLC5        0.0000 
     27 CA         60.2050   -1.6230  -10.6350 C.3       6 GLP5        0.0000 
     28 CA         59.6595    1.5990   -8.1165 C.3       3 GLC5        0.0000 
     29 CA         57.7850    2.5880   -8.1620 C.3       6 GLP5        0.0000 
     30 CA         62.0135   -1.4450   -7.8245 C.3       3 GLC5        0.0000 
     31 CA         62.4930   -3.5000   -7.5780 C.3       6 GLP5        0.0000 
     32 CA         60.8020   -0.4945   -4.3620 C.3       3 GLC5        0.0000 
     33 CA         60.4430    1.5190   -4.9890 C.3       9 GLL5        0.0000 
     34 CA         64.1615    2.3390   -3.6185 C.3       3 GLC5        0.0000 
     35 CA         63.0270    3.4230   -4.4330 C.3       9 GLL5        0.0000 
     36 CA         65.2960    1.2550   -2.8040 C.3       6 GLP5        0.0000 
     37 CA         58.6500    5.0695   -5.7160 C.3       3 GLC5        0.0000 
     38 CA         60.3290    4.0370   -4.9160 C.3       9 GLL5        0.0000 
     39 CA         56.9710    6.1020   -6.5160 C.3       6 GLP5        0.0000 
     40 CA         64.2755    5.2435   -7.1580 C.3       3 GLC5        0.0000 
     41 CA         62.2260    4.7550   -6.4780 C.3       9 GLL5        0.0000 
     42 CA         66.3250    5.7320   -7.8380 C.3       6 GLP5        0.0000 
     43 CA         64.3115    6.5570   -5.6750 C.3       3 GLC5        0.0000 
     44 CA         62.3570    6.1790   -5.7210 C.3       9 GLL5        0.0000 
     45 CA         66.2660    6.9350   -5.6290 C.3       6 GLP5        0.0000 
     46 CA         62.6510    8.1680   -6.3175 C.3       3 GLC5        0.0000 
     47 CA         62.9450   10.1570   -6.9140 C.3       6 GLP5        0.0000 
     48 CA         59.5225    7.3630   -5.4835 C.3       3 GLC5        0.0000 
     49 CA         60.9400    6.5420   -5.1220 C.3       9 GLL5        0.0000 
     50 CA         58.1050    8.1840   -5.8450 C.3       6 GLP5        0.0000 
     51 CA         58.9285    6.1895   -4.8490 C.3       3 GLC5        0.0000 
     52 CA         60.5620    5.3200   -4.1390 C.3       9 GLL5        0.0000 
     53 CA         57.2950    7.0590   -5.5590 C.3       6 GLP5        0.0000 
     54 CA         63.0475    6.1500    0.2760 C.3       3 GLC5        0.0000 
     55 CA         60.9420    5.5890    0.2500 C.3       9 GLL5        0.0000 
     56 CA         65.1530    6.7110    0.3020 C.3       6 GLP5        0.0000 
     57 CA         60.8140    3.4575   -0.1400 C.3       3 GLC5        0.0000 
     58 CA         60.6860    1.3260   -0.5300 C.3       6 GLP5        0.0000 
     59 CA         59.1910    5.5120   -0.5365 C.3       3 GLC5        0.0000 
     60 CA         57.4400    5.4350   -1.3230 C.3       6 GLP5        0.0000 
     61 CA         63.1055    7.4275    0.1375 C.3       3 GLC5        0.0000 
     62 CA         61.0580    8.1440   -0.0270 C.3       9 GLL5        0.0000 
     63 CA         59.0415    8.4970    2.9385 C.3       3 GLC5        0.0000 
     64 CA         60.2880    8.2370    1.3320 C.3       9 GLL5        0.0000 
     65 CA         57.7950    8.7570    4.5450 C.3       6 GLP5        0.0000 
     66 N          58.3125    8.6830    2.1820 N.am      2 SEC2        0.0000 
     67 N          58.8690    8.1170    1.1080 N.am      8 SEL2        0.0000 
     68 N          57.7560    9.2490    3.2560 N.am      5 SEP2        0.0000 
     69 O          58.4295    9.0640    0.0495 O.2       1 ALC1        0.0000 
     70 O          58.8690    8.1170    1.1080 O.2       7 ALL1        0.0000 
     71 O          57.9900   10.0110   -1.0090 O.2       4 ALP1        0.0000 
     72 CA         63.2835    8.3220    2.3050 C.3       3 GLC5        0.0000 
     73 CA         62.1360    6.9470    2.9880 C.3       9 GLL5        0.0000 
     74 CA         64.4310    9.6970    1.6220 C.3       6 GLP5        0.0000 
     75 CA         63.6445    6.8290    1.6450 C.3       3 GLC5        0.0000 
     76 CA         59.0095    4.5060    2.4340 C.3       3 GLC5        0.0000 
     77 CA         60.3310    5.6840    1.6790 C.3       9 GLL5        0.0000 
     78 CA         57.6880    3.3280    3.1890 C.3       6 GLP5        0.0000 
     79 CA         58.5010    5.8235    0.7805 C.3       3 GLC5        0.0000 
     80 CA         56.6710    5.9630   -0.1180 C.3       6 GLP5        0.0000 
     81 N          60.5780    4.4860    3.9185 N.am      2 SEC2        0.0000 
     82 N          60.8130    4.5940    2.5240 N.am      8 SEL2        0.0000 
     83 N          60.3430    4.3780    5.3130 N.am      5 SEP2        0.0000 
     84 O          62.1015    4.1150    2.3970 O.2       1 ALC1        0.0000 
     85 O          60.8130    4.5940    2.5240 O.2       7 ALL1        0.0000 
     86 O          63.3900    3.6360    2.2700 O.2       4 ALP1        0.0000 
     87 CA         65.8017   -0.7093   -8.8603 C.3       3 GLC5        0.0000 
     88 CA         66.5170   -1.4030   -6.7450 C.3       9 GLL5        0.0000 
     89 CA         64.8245   -0.3322   -8.5190 C.3       3 GLC5        0.0000 
     90 CA         65.4030   -0.6240   -6.1230 C.3       9 GLL5        0.0000 
     91 CA         64.7058    0.7069   -4.5787 C.3       3 GLC5        0.0000 
     92 CA         64.5510    0.2170   -6.9030 C.3       9 GLL5        0.0000 
     93 CA         63.3043   -1.6706   -6.9657 C.3       3 GLC5        0.0000 
     94 CA         62.1790    2.3800   -9.0853 C.3       3 GLC5        0.0000 
     95 CA         62.4120    3.7030  -10.6330 C.3       6 GLP5        0.0000 
     96 CA         60.3807    1.7102   -2.5638 C.3       3 GLC5        0.0000 
     97 CA         58.5463    0.9982   -4.4272 C.3       3 GLC5        0.0000 
     98 CA         59.7080    2.6700   -4.2060 C.3       9 GLL5        0.0000 
     99 CA         57.0170   -0.0980   -4.2570 C.3       6 GLP5        0.0000 
    100 CA         62.0817    5.7895   -8.0512 C.3       3 GLC5        0.0000 
    101 CA         61.8720    6.1120  -10.0030 C.3       6 GLP5        0.0000 
    102 CA         58.9850    5.3987   -2.4093 C.3       3 GLC5        0.0000 
    103 CA         59.0528    7.1562   -3.0787 C.3       3 GLC5        0.0000 
    104 CA         60.4980    5.4050   -2.8520 C.3       9 GLL5        0.0000 
    105 CA         57.4970    8.2780   -3.6950 C.3       6 GLP5        0.0000 
    106 CA         62.8770    6.9802   -1.7595 C.3       3 GLC5        0.0000 
    107 CA         60.7190    6.6640   -2.0730 C.3       9 GLL5        0.0000 
    108 CA         64.9530    7.2320   -2.1310 C.3       6 GLP5        0.0000 
    109 CA         59.1205    6.0817   -1.3555 C.3       3 GLC5        0.0000 
    110 CA         62.5520    8.9437    1.1373 C.3       3 GLC5        0.0000 
    111 CA         59.2480    9.6363    0.2768 C.3       3 GLC5        0.0000 
    112 CA         57.8230   11.0820   -0.0990 C.3       6 GLP5        0.0000 
    113 CA         61.1700    9.8537    0.1318 C.3       3 GLC5        0.0000 
    114 CA         61.6670   11.5170   -0.3890 C.3       6 GLP5        0.0000 
    115 CA         60.5268    9.4128    2.6883 C.3       3 GLC5        0.0000 
    116 CA         60.5230   11.1860    3.5700 C.3       6 GLP5        0.0000 
    117 CA         59.2215    6.8700    3.3695 C.3       3 GLC5        0.0000 
    118 CA         60.7730    7.0420    2.2810 C.3       9 GLL5        0.0000 
    119 CA         57.8910    7.3770    4.7590 C.3       6 GLP5        0.0000 
    120 CA         59.1044    2.6046   -6.6159 C.3       3 GLC5        0.0000 
@<TRIPOS>BOND
@<TRIPOS>SUBSTRUCTURE
     1 ALC1       69 GROUP        1 X    ALC  0     ROOT ALC X 1
     2 SEC2        1 GROUP        1 X    SEC  0     **** SEC X 2
     3 GLC5        4 GROUP        1 X    GLC  0     **** GLC X 6
     4 ALP1       71 GROUP        1 Y    ALP  0     ROOT ALP Y 8
     5 SEP2        3 GROUP        1 Y    SEP  0     **** SEP Y 9
     6 GLP5        6 GROUP        1 Y    GLP  0     **** GLP Y 13
     7 ALL1       70 GROUP        1 Z    ALL  0     ROOT ALL Z 15
     8 SEL2        2 GROUP        1 Z    SEL  0     **** SEL Z 16
     9 GLL5        5 GROUP        1 Z    GLL  0     **** GLL Z 20
@<TRIPOS>SET

