#    Name: 1rkh_VD2_1_ligand
#    Modification time : Tue Mar 25 00:50:40 2014

@<TRIPOS>MOLECULE
1rkh_VD2_1_ligand
   76    78     1     0     0
SMALL
NO_CHARGES


@<TRIPOS>ATOM
      1 O3         65.9920   -2.5040   -7.4360 O.3       1 VD2500      0.0000 
      2 C25        66.5170   -1.4030   -6.7450 C.3       1 VD2500      0.0000 
      3 C27        67.3880   -1.9550   -5.5660 C.3       1 VD2500      0.0000 
      4 C26        67.3460   -0.5120   -7.6460 C.3       1 VD2500      0.0000 
      5 C24        65.4030   -0.6240   -6.1230 C.3       1 VD2500      0.0000 
      6 C23        64.5510    0.2170   -6.9030 C.3       1 VD2500      0.0000 
      7 C22        63.2540    0.5210   -6.1940 C.3       1 VD2500      0.0000 
      8 C20        62.3580    1.5040   -7.0040 C.3       1 VD2500      0.0000 
      9 C21        61.5340    0.6100   -8.0710 C.3       1 VD2500      0.0000 
     10 C17        61.2150    2.2590   -6.1680 C.3       1 VD2500      0.0000 
     11 C16        60.4430    1.5190   -4.9890 C.3       1 VD2500      0.0000 
     12 C13        61.7540    3.5440   -5.5190 C.3       1 VD2500      0.0000 
     13 C18        63.0270    3.4230   -4.4330 C.3       1 VD2500      0.0000 
     14 C14        60.3290    4.0370   -4.9160 C.3       1 VD2500      0.0000 
     15 C15        59.7080    2.6700   -4.2060 C.3       1 VD2500      0.0000 
     16 C12        62.2260    4.7550   -6.4780 C.3       1 VD2500      0.0000 
     17 C11        62.3570    6.1790   -5.7210 C.3       1 VD2500      0.0000 
     18 C9         60.9400    6.5420   -5.1220 C.3       1 VD2500      0.0000 
     19 C8         60.5620    5.3200   -4.1390 C.2       1 VD2500      0.0000 
     20 C7         60.4980    5.4050   -2.8520 C.2       1 VD2500      0.0000 
     21 C6         60.7190    6.6640   -2.0730 C.2       1 VD2500      0.0000 
     22 C5         60.8830    6.7930   -0.7030 C.2       1 VD2500      0.0000 
     23 C10        60.9420    5.5890    0.2500 C.3       1 VD2500      0.0000 
     24 C4         61.0580    8.1440   -0.0270 C.3       1 VD2500      0.0000 
     25 C3         60.2880    8.2370    1.3320 C.3       1 VD2500      0.0000 
     26 O2         58.8690    8.1170    1.1080 O.3       1 VD2500      0.0000 
     27 C2         60.7730    7.0420    2.2810 C.3       1 VD2500      0.0000 
     28 C28        62.1360    6.9470    2.9880 C.3       1 VD2500      0.0000 
     29 C1         60.3310    5.6840    1.6790 C.3       1 VD2500      0.0000 
     30 O1         60.8130    4.5940    2.5240 O.3       1 VD2500      0.0000 
     31 H          65.8625   -0.0111   -5.2629 H         1 VD2500      0.0000 
     32 H          64.7612   -1.3735   -5.5290 H         1 VD2500      0.0000 
     33 H          64.3068   -0.2527   -7.8756 H         1 VD2500      0.0000 
     34 H          65.0455    1.1794   -7.1383 H         1 VD2500      0.0000 
     35 H          63.4569    0.9711   -5.2183 H         1 VD2500      0.0000 
     36 H          62.6889   -0.4015   -6.0346 H         1 VD2500      0.0000 
     37 H          62.9128    2.1922   -7.5499 H         1 VD2500      0.0000 
     38 H          60.4375    2.5984   -6.8835 H         1 VD2500      0.0000 
     39 H          61.1474    1.0582   -4.3583 H         1 VD2500      0.0000 
     40 H          59.7311    0.8665   -5.4059 H         1 VD2500      0.0000 
     41 H          59.7246    4.2094   -5.8112 H         1 VD2500      0.0000 
     42 H          60.0017    2.6816   -3.2128 H         1 VD2500      0.0000 
     43 H          58.6918    2.6569   -4.4060 H         1 VD2500      0.0000 
     44 H          61.5005    4.8607   -7.2756 H         1 VD2500      0.0000 
     45 H          63.1936    4.5025   -6.8947 H         1 VD2500      0.0000 
     46 H          62.6389    6.9090   -6.4372 H         1 VD2500      0.0000 
     47 H          63.0598    6.0710   -4.9337 H         1 VD2500      0.0000 
     48 H          60.2275    6.5784   -5.8947 H         1 VD2500      0.0000 
     49 H          61.0126    7.4196   -4.5471 H         1 VD2500      0.0000 
     50 H          60.2789    4.5714   -2.2299 H         1 VD2500      0.0000 
     51 H          60.7472    7.5429   -2.6802 H         1 VD2500      0.0000 
     52 H          62.0208    5.2780    0.3617 H         1 VD2500      0.0000 
     53 H          60.4655    4.7055   -0.2652 H         1 VD2500      0.0000 
     54 H          60.6885    8.9371   -0.6816 H         1 VD2500      0.0000 
     55 H          62.1173    8.3260    0.1698 H         1 VD2500      0.0000 
     56 H          60.5543    9.1465    1.8109 H         1 VD2500      0.0000 
     57 H          59.9831    7.1231    3.1938 H         1 VD2500      0.0000 
     58 H          59.2719    5.6871    1.5914 H         1 VD2500      0.0000 
     59 H          68.1372   -2.5297   -5.8952 H         1 VD2500      0.0000 
     60 H          67.7983   -1.2170   -5.0302 H         1 VD2500      0.0000 
     61 H          66.8481   -2.5109   -4.9340 H         1 VD2500      0.0000 
     62 H          67.7189    0.2728   -7.1510 H         1 VD2500      0.0000 
     63 H          68.1212   -1.0034   -8.0429 H         1 VD2500      0.0000 
     64 H          66.8079   -0.1498   -8.4071 H         1 VD2500      0.0000 
     65 H          62.1436    0.1159   -8.6908 H         1 VD2500      0.0000 
     66 H          60.9598   -0.0725   -7.6188 H         1 VD2500      0.0000 
     67 H          60.9310    1.1709   -8.6383 H         1 VD2500      0.0000 
     68 H          63.8393    3.0216   -4.8562 H         1 VD2500      0.0000 
     69 H          63.2950    4.3170   -4.0738 H         1 VD2500      0.0000 
     70 H          62.7921    2.8501   -3.6478 H         1 VD2500      0.0000 
     71 H          62.8938    6.9497    2.3355 H         1 VD2500      0.0000 
     72 H          62.2845    7.7135    3.6129 H         1 VD2500      0.0000 
     73 H          62.2169    6.1090    3.5276 H         1 VD2500      0.0000 
     74 H          66.6244   -1.8694   -6.9916 H         1 VD2500      0.0000 
     75 H          58.6123    8.9524    0.6221 H         1 VD2500      0.0000 
     76 H          61.7996    4.7400    2.5969 H         1 VD2500      0.0000 
@<TRIPOS>BOND
     1    2    1 1    
     2   74    1 1    
     3    3    2 1    
     4    4    2 1    
     5    5    2 1    
     6   59    3 1    
     7   60    3 1    
     8   61    3 1    
     9   62    4 1    
    10   63    4 1    
    11   64    4 1    
    12    6    5 1    
    13   31    5 1    
    14   32    5 1    
    15    7    6 1    
    16   33    6 1    
    17   34    6 1    
    18    8    7 1    
    19   35    7 1    
    20   36    7 1    
    21    9    8 1    
    22   10    8 1    
    23   37    8 1    
    24   65    9 1    
    25   66    9 1    
    26   67    9 1    
    27   11   10 1    
    28   12   10 1    
    29   38   10 1    
    30   15   11 1    
    31   39   11 1    
    32   40   11 1    
    33   13   12 1    
    34   14   12 1    
    35   16   12 1    
    36   68   13 1    
    37   69   13 1    
    38   70   13 1    
    39   15   14 1    
    40   19   14 1    
    41   41   14 1    
    42   42   15 1    
    43   43   15 1    
    44   17   16 1    
    45   44   16 1    
    46   45   16 1    
    47   18   17 1    
    48   46   17 1    
    49   47   17 1    
    50   19   18 1    
    51   48   18 1    
    52   49   18 1    
    53   20   19 2    
    54   21   20 1    
    55   50   20 1    
    56   22   21 2    
    57   51   21 1    
    58   23   22 1    
    59   24   22 1    
    60   29   23 1    
    61   52   23 1    
    62   53   23 1    
    63   25   24 1    
    64   54   24 1    
    65   55   24 1    
    66   26   25 1    
    67   27   25 1    
    68   56   25 1    
    69   75   26 1    
    70   28   27 1    
    71   29   27 1    
    72   57   27 1    
    73   71   28 1    
    74   72   28 1    
    75   73   28 1    
    76   30   29 1    
    77   58   29 1    
    78   76   30 1    
@<TRIPOS>SUBSTRUCTURE
     1 VD2500      1 GROUP   
@<TRIPOS>SET

