#    Name: 3f3t_1AU_1_INTS_M
#    Modification time : Tue Mar 25 03:06:05 2014

@<TRIPOS>MOLECULE
3f3t_1AU_1_INTS_M
   67     0     9     0     0
SMALL
NO_CHARGES


@<TRIPOS>ATOM
      1 CA         -8.4880   37.3170  -12.4175 C.3       3 GLC5        0.0000 
      2 CA         -7.2460   36.3230  -10.9300 C.3       9 GLL5        0.0000 
      3 CA         -9.7300   38.3110  -13.9050 C.3       6 GLP5        0.0000 
      4 CA         -6.8375   38.6150   -9.3880 C.3       3 GLC5        0.0000 
      5 CA         -7.3510   36.5850   -9.5690 C.3       9 GLL5        0.0000 
      6 CA         -6.3240   40.6450   -9.2070 C.3       6 GLP5        0.0000 
      7 CA         -3.0405   36.1430   -5.7155 C.3       3 GLC5        0.0000 
      8 CA         -4.5190   35.0780   -6.9020 C.3       9 GLL5        0.0000 
      9 CA         -1.5620   37.2080   -4.5290 C.3       6 GLP5        0.0000 
     10 O          -2.2465   34.2875   -9.3230 O.2       1 ALC1        0.0000 
     11 O          -3.3200   34.0400   -8.7110 O.2       7 ALL1        0.0000 
     12 O          -1.1730   34.5350   -9.9350 O.2       4 ALP1        0.0000 
     13 N          -2.7505   32.6495   -5.5870 N.am      2 SEC2        0.0000 
     14 N          -3.3070   32.6940   -6.9070 N.am      8 SEL2        0.0000 
     15 N          -2.1940   32.6050   -4.2670 N.am      5 SEP2        0.0000 
     16 O          -1.4965   33.4225   -9.2485 O.2       1 ALC1        0.0000 
     17 O          -1.8200   32.3100   -8.5620 O.2       7 ALL1        0.0000 
     18 CA         -0.5380   32.3295   -9.7780 C.3       3 GLC5        0.0000 
     19 CA         -1.1910   31.2560   -7.9900 C.3       9 GLL5        0.0000 
     20 CA          0.1150   33.4030  -11.5660 C.3       6 GLP5        0.0000 
     21 CA         -2.8100   30.5940   -5.4410 C.3       3 GLC5        0.0000 
     22 CA         -1.7670   30.2030   -7.3820 C.3       9 GLL5        0.0000 
     23 CA         -3.8530   30.9850   -3.5000 C.3       6 GLP5        0.0000 
     24 CA         -0.1460   25.6895   -7.7175 C.3       3 GLC5        0.0000 
     25 CA         -1.4560   27.0300   -7.1120 C.3       9 GLL5        0.0000 
     26 CA          1.1640   24.3490   -8.3230 C.3       6 GLP5        0.0000 
     27 CA         -2.1385   25.4305   -6.5165 C.3       3 GLC5        0.0000 
     28 CA         -2.8210   23.8310   -5.9210 C.3       6 GLP5        0.0000 
     29 CA          0.9155   25.9840   -7.1240 C.3       3 GLC5        0.0000 
     30 CA          0.6670   27.6190   -5.9250 C.3       9 GLL5        0.0000 
     31 CA          2.3240   26.8810   -6.0175 C.3       3 GLC5        0.0000 
     32 CA          3.9810   26.1430   -6.1100 C.3       6 GLP5        0.0000 
     33 CA         -0.2830   28.3885   -3.0735 C.3       3 GLC5        0.0000 
     34 CA         -1.4570   28.1530   -4.8590 C.3       9 GLL5        0.0000 
     35 CA          0.8910   28.6240   -1.2880 C.3       6 GLP5        0.0000 
     36 CA         -1.9305   27.7845   -3.1370 C.3       3 GLC5        0.0000 
     37 CA         -2.4040   27.4160   -1.4150 C.3       6 GLP5        0.0000 
     38 CA         -2.6550   29.5690   -4.1795 C.3       3 GLC5        0.0000 
     39 CA          2.2050   29.5245   -9.8095 C.3       3 GLC5        0.0000 
     40 CA          2.1700   31.3200   -9.1490 C.3       9 GLL5        0.0000 
     41 CA          2.2400   27.7290  -10.4700 C.3       6 GLP5        0.0000 
     42 CA          2.5520   32.2835  -11.4190 C.3       3 GLC5        0.0000 
     43 CA          3.2300   32.0820   -9.6820 C.3       9 GLL5        0.0000 
     44 CA          1.8740   32.4850  -13.1560 C.3       6 GLP5        0.0000 
     45 CA         -4.1355   36.6970  -10.6558 C.3       3 GLC5        0.0000 
     46 CA         -5.2040   35.0410  -10.5340 C.3       9 GLL5        0.0000 
     47 CA         -3.0110   38.2220  -11.4610 C.3       6 GLP5        0.0000 
     48 CA         -6.3660   33.6850  -10.6943 C.3       3 GLC5        0.0000 
     49 CA         -7.4720   32.1980  -11.5380 C.3       6 GLP5        0.0000 
     50 CA         -5.0373   34.6635  -12.6922 C.3       3 GLC5        0.0000 
     51 CA         -4.3830   34.0310  -14.4200 C.3       6 GLP5        0.0000 
     52 CA         -7.0922   34.0675  -11.3502 C.3       3 GLC5        0.0000 
     53 CA         -6.1790   35.5510  -11.3950 C.3       9 GLL5        0.0000 
     54 CA         -9.2812   36.3760  -10.0777 C.3       3 GLC5        0.0000 
     55 CA        -11.2640   36.2980   -9.9060 C.3       6 GLP5        0.0000 
     56 CA         -6.1144   37.3990  -11.4954 C.3       3 GLC5        0.0000 
     57 CA         -5.1970   38.5370  -12.6250 C.3       6 GLP5        0.0000 
     58 CA         -2.1600   30.7227   -9.3320 C.3       3 GLC5        0.0000 
     59 CA         -2.8410   30.7160  -10.9780 C.3       6 GLP5        0.0000 
     60 CA         -0.6050   31.7242   -6.0950 C.3       3 GLC5        0.0000 
     61 CA          0.2690   32.7190   -4.5040 C.3       6 GLP5        0.0000 
     62 CA          0.7140   32.6423   -6.3918 C.3       3 GLC5        0.0000 
     63 CA          1.1860   33.2460   -8.1640 C.3       9 GLL5        0.0000 
     64 CA          0.8898   32.6729  -10.1401 C.3       3 GLC5        0.0000 
     65 CA          1.1320   31.8850   -8.3950 C.3       9 GLL5        0.0000 
     66 CA          1.4310   33.5712  -10.3138 C.3       3 GLC5        0.0000 
     67 CA          2.2330   34.0250   -8.6840 C.3       9 GLL5        0.0000 
@<TRIPOS>BOND
@<TRIPOS>SUBSTRUCTURE
     1 ALC1       10 GROUP        1 X    ALC  0     ROOT ALC X 1
     2 SEC2       13 GROUP        1 X    SEC  0     **** SEC X 2
     3 GLC5        1 GROUP        1 X    GLC  0     **** GLC X 6
     4 ALP1       12 GROUP        1 Y    ALP  0     ROOT ALP Y 8
     5 SEP2       15 GROUP        1 Y    SEP  0     **** SEP Y 9
     6 GLP5        3 GROUP        1 Y    GLP  0     **** GLP Y 13
     7 ALL1       11 GROUP        1 Z    ALL  0     ROOT ALL Z 15
     8 SEL2       14 GROUP        1 Z    SEL  0     **** SEL Z 16
     9 GLL5        2 GROUP        1 Z    GLL  0     **** GLL Z 20
@<TRIPOS>SET

