#    Name: 3f3t_1AU_1_ligand
#    Modification time : Tue Mar 25 03:06:05 2014

@<TRIPOS>MOLECULE
3f3t_1AU_1_ligand
   55    58     1     0     0
SMALL
NO_CHARGES


@<TRIPOS>ATOM
      1 CBB        -5.3160   35.3030   -9.1670 C.ar      1 1AU1        0.0000 
      2 CAO        -5.2040   35.0410  -10.5340 C.ar      1 1AU1        0.0000 
      3 CAG        -6.1790   35.5510  -11.3950 C.ar      1 1AU1        0.0000 
      4 CAF        -7.2460   36.3230  -10.9300 C.ar      1 1AU1        0.0000 
      5 CAM        -7.3510   36.5850   -9.5690 C.ar      1 1AU1        0.0000 
      6 CBA        -6.4010   36.0790   -8.6920 C.ar      1 1AU1        0.0000 
      7 CAN        -6.5370   36.3470   -7.3330 C.ar      1 1AU1        0.0000 
      8 CAI        -5.5930   35.8300   -6.4480 C.ar      1 1AU1        0.0000 
      9 CAL        -4.5190   35.0780   -6.9020 C.ar      1 1AU1        0.0000 
     10 CAX        -4.3570   34.7970   -8.2690 C.ar      1 1AU1        0.0000 
     11 NAS        -3.3200   34.0400   -8.7110 N.am      1 1AU1        0.0000 
     12 CAU        -2.8390   32.9920   -8.0100 C.2       1 1AU1        0.0000 
     13 OAE        -3.3070   32.6940   -6.9070 O.2       1 1AU1        0.0000 
     14 NAT        -1.8200   32.3100   -8.5620 N.am      1 1AU1        0.0000 
     15 CAZ        -1.1910   31.2560   -7.9900 C.2       1 1AU1        0.0000 
     16 CAQ        -1.7670   30.2030   -7.3820 C.2       1 1AU1        0.0000 
     17 CAY        -0.7350   29.4500   -6.9680 C.2       1 1AU1        0.0000 
     18 CBD        -0.7610   28.0740   -6.2210 C.3       1 1AU1        0.0000 
     19 CAB        -1.4560   27.0300   -7.1120 C.3       1 1AU1        0.0000 
     20 CAC         0.6670   27.6190   -5.9250 C.3       1 1AU1        0.0000 
     21 CAA        -1.4570   28.1530   -4.8590 C.3       1 1AU1        0.0000 
     22 NAR         0.4010   30.0380   -7.3350 N.2       1 1AU1        0.0000 
     23 NBC         0.1480   31.0980   -7.9140 N.pl3     1 1AU1        0.0000 
     24 CAW         1.1320   31.8850   -8.3950 C.ar      1 1AU1        0.0000 
     25 CAP         1.1860   33.2460   -8.1640 C.ar      1 1AU1        0.0000 
     26 CAK         2.1700   31.3200   -9.1490 C.ar      1 1AU1        0.0000 
     27 CAH         3.2300   32.0820   -9.6820 C.ar      1 1AU1        0.0000 
     28 CAJ         3.2610   33.4540   -9.4390 C.ar      1 1AU1        0.0000 
     29 CAV         2.2330   34.0250   -8.6840 C.ar      1 1AU1        0.0000 
     30 NAD         2.2460   35.3370   -8.4280 N.pl3     1 1AU1        0.0000 
     31 H          -4.4295   34.4908  -10.8955 H         1 1AU1        0.0000 
     32 H          -6.1079   35.3496  -12.4130 H         1 1AU1        0.0000 
     33 H          -7.9395   36.6894  -11.5849 H         1 1AU1        0.0000 
     34 H          -8.1307   37.1524   -9.2132 H         1 1AU1        0.0000 
     35 H          -7.3136   36.9117   -6.9902 H         1 1AU1        0.0000 
     36 H          -5.6973   36.0119   -5.4328 H         1 1AU1        0.0000 
     37 H          -3.8225   34.7151   -6.2295 H         1 1AU1        0.0000 
     38 H          -2.8755   34.2835   -9.6388 H         1 1AU1        0.0000 
     39 H          -1.4752   32.6228   -9.5324 H         1 1AU1        0.0000 
     40 H          -2.6878   30.0334   -7.2722 H         1 1AU1        0.0000 
     41 H           0.4508   33.7070   -7.6021 H         1 1AU1        0.0000 
     42 H           2.1610   30.2917   -9.3253 H         1 1AU1        0.0000 
     43 H           3.9556   31.6313  -10.2331 H         1 1AU1        0.0000 
     44 H           4.0164   34.0300   -9.8033 H         1 1AU1        0.0000 
     45 H           1.4790   35.6881   -7.8910 H         1 1AU1        0.0000 
     46 H           3.0216   35.8496   -8.7965 H         1 1AU1        0.0000 
     47 H          -0.9801   26.9094   -7.9832 H         1 1AU1        0.0000 
     48 H          -1.4941   26.1327   -6.6722 H         1 1AU1        0.0000 
     49 H          -2.3971   27.2918   -7.3259 H         1 1AU1        0.0000 
     50 H           1.2031   27.5101   -6.7621 H         1 1AU1        0.0000 
     51 H           1.1538   28.2751   -5.3483 H         1 1AU1        0.0000 
     52 H           0.6855   26.7399   -5.4487 H         1 1AU1        0.0000 
     53 H          -1.4696   27.2665   -4.3964 H         1 1AU1        0.0000 
     54 H          -1.0005   28.7974   -4.2455 H         1 1AU1        0.0000 
     55 H          -2.4072   28.4526   -4.9443 H         1 1AU1        0.0000 
@<TRIPOS>BOND
     1    2    1 ar   
     2    6    1 ar   
     3   10    1 ar   
     4    3    2 ar   
     5   31    2 1    
     6    4    3 ar   
     7   32    3 1    
     8    5    4 ar   
     9   33    4 1    
    10    6    5 ar   
    11   34    5 1    
    12    7    6 ar   
    13    8    7 ar   
    14   35    7 1    
    15    9    8 ar   
    16   36    8 1    
    17   10    9 ar   
    18   37    9 1    
    19   11   10 1    
    20   12   11 am   
    21   38   11 1    
    22   13   12 2    
    23   14   12 am   
    24   15   14 1    
    25   39   14 1    
    26   16   15 2    
    27   23   15 1    
    28   17   16 1    
    29   40   16 1    
    30   18   17 1    
    31   22   17 2    
    32   19   18 1    
    33   20   18 1    
    34   21   18 1    
    35   47   19 1    
    36   48   19 1    
    37   49   19 1    
    38   50   20 1    
    39   51   20 1    
    40   52   20 1    
    41   53   21 1    
    42   54   21 1    
    43   55   21 1    
    44   23   22 1    
    45   24   23 1    
    46   25   24 ar   
    47   26   24 ar   
    48   29   25 ar   
    49   41   25 1    
    50   27   26 ar   
    51   42   26 1    
    52   28   27 ar   
    53   43   27 1    
    54   29   28 ar   
    55   44   28 1    
    56   30   29 1    
    57   45   30 1    
    58   46   30 1    
@<TRIPOS>SUBSTRUCTURE
     1 1AU1        1 GROUP   
@<TRIPOS>SET

