#    Name: 1bzl_FAD_1_INTS_M
#    Modification time : Mon Mar 24 20:03:09 2014

@<TRIPOS>MOLECULE
1bzl_FAD_1_INTS_M
  127     0     9     0     0
SMALL
NO_CHARGES


@<TRIPOS>ATOM
      1 N          22.4005    8.0280  -16.7330 N.am      2 SEC2        0.0000 
      2 N          22.5980    9.3390  -17.8500 N.am      8 SEL2        0.0000 
      3 N          22.2030    6.7170  -15.6160 N.am      5 SEP2        0.0000 
      4 N          22.8595    8.0835  -18.0320 N.am      2 SEC2        0.0000 
      5 N          23.1210    6.8280  -18.2140 N.am      5 SEP2        0.0000 
      6 N          23.6830    9.2960  -18.5460 N.am      2 SEC2        0.0000 
      7 N          24.7680    9.2530  -19.2420 N.am      5 SEP2        0.0000 
      8 N          22.0240   10.6585  -13.9305 N.am      2 SEC2        0.0000 
      9 N          22.3540    9.7730  -15.3520 N.am      8 SEL2        0.0000 
     10 N          21.6940   11.5440  -12.5090 N.am      5 SEP2        0.0000 
     11 N          22.2785    8.2450  -15.4840 N.am      2 SEC2        0.0000 
     12 CA         19.8190   10.6535  -15.9340 C.3       3 GLC5        0.0000 
     13 CA         19.9410   10.4730  -18.1610 C.3       9 GLL5        0.0000 
     14 CA         19.6970   10.8340  -13.7070 C.3       6 GLP5        0.0000 
     15 CA         21.2720   11.2525  -19.4030 C.3       3 GLC5        0.0000 
     16 CA         22.6030   12.0320  -20.6450 C.3       6 GLP5        0.0000 
     17 CA         17.1930   11.2410  -17.8550 C.3       3 GLC5        0.0000 
     18 CA         18.5450    9.9010  -18.1050 C.3       9 GLL5        0.0000 
     19 CA         15.8410   12.5810  -17.6050 C.3       6 GLP5        0.0000 
     20 CA         19.3895    7.9430  -16.3220 C.3       3 GLC5        0.0000 
     21 CA         18.5590    8.3680  -18.1800 C.3       9 GLL5        0.0000 
     22 CA         20.2200    7.5180  -14.4640 C.3       6 GLP5        0.0000 
     23 O          16.3075    7.4625  -17.2200 O.2       1 ALC1        0.0000 
     24 O          17.9850    7.8550  -16.9660 O.2       7 ALL1        0.0000 
     25 O          14.6300    7.0700  -17.4740 O.2       4 ALP1        0.0000 
     26 O          16.7250    8.2470  -16.6225 O.2       1 ALC1        0.0000 
     27 O          15.4650    8.6390  -16.2790 O.2       4 ALP1        0.0000 
     28 N          17.9840    5.8800  -19.3415 N.am      2 SEC2        0.0000 
     29 N          16.8970    6.9210  -19.3920 N.am      8 SEL2        0.0000 
     30 N          19.0710    4.8390  -19.2910 N.am      5 SEP2        0.0000 
     31 O          15.7635    6.9955  -18.4330 O.2       1 ALC1        0.0000 
     32 O          16.8970    6.9210  -19.3920 O.2       7 ALL1        0.0000 
     33 CA         16.3270   10.9570  -18.5570 C.3       3 GLC5        0.0000 
     34 CA         16.8130    9.3330  -19.5090 C.3       9 GLL5        0.0000 
     35 CA         16.6890   11.8325  -22.4795 C.3       3 GLC5        0.0000 
     36 CA         14.9570   10.4170  -22.4030 C.3       9 GLL5        0.0000 
     37 CA         18.4210   13.2480  -22.5560 C.3       6 GLP5        0.0000 
     38 CA         11.7050   10.2510  -23.1715 C.3       3 GLC5        0.0000 
     39 CA         13.7970   10.9980  -22.9190 C.3       9 GLL5        0.0000 
     40 CA          9.6130    9.5040  -23.4240 C.3       6 GLP5        0.0000 
     41 O          12.5855   12.5050  -24.4835 O.2       1 ALC1        0.0000 
     42 O          13.7460   11.5320  -24.1380 O.2       7 ALL1        0.0000 
     43 O          11.4250   13.4780  -24.8290 O.2       4 ALP1        0.0000 
     44 N          11.3730   11.4405  -22.5815 N.am      2 SEC2        0.0000 
     45 N          12.7290   11.0240  -22.1140 N.am      8 SEL2        0.0000 
     46 N          10.0170   11.8570  -23.0490 N.am      5 SEP2        0.0000 
     47 CA         13.3470   12.6095  -21.1695 C.3       3 GLC5        0.0000 
     48 CA         12.8500   10.6130  -20.8610 C.3       9 GLL5        0.0000 
     49 CA         13.8440   14.6060  -21.4780 C.3       6 GLP5        0.0000 
     50 CA         11.1490   11.1685  -19.9280 C.3       3 GLC5        0.0000 
     51 CA          9.4480   11.7240  -18.9950 C.3       6 GLP5        0.0000 
     52 CA         12.5675    9.7450  -19.1580 C.3       3 GLC5        0.0000 
     53 CA         12.2850    8.8770  -17.4550 C.3       6 GLP5        0.0000 
     54 CA         12.7945    8.6520  -21.2170 C.3       3 GLC5        0.0000 
     55 CA         12.7390    6.6910  -21.5730 C.3       6 GLP5        0.0000 
     56 CA         11.2315   10.0585  -22.1425 C.3       3 GLC5        0.0000 
     57 CA         15.3910   11.3000  -19.3525 C.3       3 GLC5        0.0000 
     58 CA         14.9410   10.0190  -21.1000 C.3       9 GLL5        0.0000 
     59 N          30.6315   10.9000  -12.5835 N.am      2 SEC2        0.0000 
     60 N          31.7620    9.8630  -12.0460 N.am      8 SEL2        0.0000 
     61 N          29.5010   11.9370  -13.1210 N.am      5 SEP2        0.0000 
     62 O          32.8125    7.6830  -10.8025 O.2       1 ALC1        0.0000 
     63 O          32.4200    7.7010  -12.0700 O.2       7 ALL1        0.0000 
     64 O          33.2050    7.6650   -9.5350 O.2       4 ALP1        0.0000 
     65 N          32.6350    4.2325  -13.9255 N.am      2 SEC2        0.0000 
     66 N          31.6210    5.1010  -14.5290 N.am      8 SEL2        0.0000 
     67 N          33.6490    3.3640  -13.3220 N.am      5 SEP2        0.0000 
     68 CA         30.1945    4.3365  -13.5570 C.3       3 GLC5        0.0000 
     69 CA         30.8780    4.9110  -15.6020 C.3       9 GLL5        0.0000 
     70 CA         29.5110    3.7620  -11.5120 C.3       6 GLP5        0.0000 
     71 CA         31.3280    2.2990  -14.6165 C.3       3 GLC5        0.0000 
     72 CA         30.8640    3.6500  -16.2380 C.3       9 GLL5        0.0000 
     73 CA         31.7920    0.9480  -12.9950 C.3       6 GLP5        0.0000 
     74 CA         32.0635    3.4675  -18.0275 C.3       3 GLC5        0.0000 
     75 CA         33.2630    3.2850  -19.8170 C.3       6 GLP5        0.0000 
     76 CA         29.6305    0.7020  -19.5335 C.3       3 GLC5        0.0000 
     77 CA         29.9280    1.9940  -17.8910 C.3       9 GLL5        0.0000 
     78 CA         29.3330   -0.5900  -21.1760 C.3       6 GLP5        0.0000 
     79 CA         29.0720    0.2870  -16.9950 C.3       3 GLC5        0.0000 
     80 CA         28.2160   -1.4200  -16.0990 C.3       6 GLP5        0.0000 
     81 CA         31.5955    2.6395  -18.8540 C.3       3 GLC5        0.0000 
     82 CA         28.7360    5.2995  -20.4825 C.3       3 GLC5        0.0000 
     83 CA         28.2060    4.1900  -18.8780 C.3       9 GLL5        0.0000 
     84 CA         29.2660    6.4090  -22.0870 C.3       6 GLP5        0.0000 
     85 CA         27.0740    8.0025  -13.7995 C.3       3 GLC5        0.0000 
     86 CA         28.2560    8.8350  -15.4310 C.3       9 GLL5        0.0000 
     87 CA         25.8920    7.1700  -12.1680 C.3       6 GLP5        0.0000 
     88 CA         28.5720    7.6900  -13.6265 C.3       3 GLC5        0.0000 
     89 CA         28.8880    6.5450  -11.8220 C.3       6 GLP5        0.0000 
     90 CA         28.1920    9.8220  -13.4285 C.3       3 GLC5        0.0000 
     91 CA         28.1280   10.8090  -11.4260 C.3       6 GLP5        0.0000 
     92 CA         29.3085   11.2250  -15.5155 C.3       3 GLC5        0.0000 
     93 CA         27.5590    9.9620  -16.1100 C.3       9 GLL5        0.0000 
     94 CA         31.0580   12.4880  -14.9210 C.3       6 GLP5        0.0000 
     95 O          28.1570   11.9030  -17.4075 O.2       1 ALC1        0.0000 
     96 O          28.5320   10.9810  -16.2990 O.2       7 ALL1        0.0000 
     97 O          27.7820   12.8250  -18.5160 O.2       4 ALP1        0.0000 
     98 O          27.8350   10.9705  -17.8355 O.2       1 ALC1        0.0000 
     99 O          27.1380   10.9600  -19.3720 O.2       4 ALP1        0.0000 
    100 CA         27.3895   11.3290  -13.7745 C.3       3 GLC5        0.0000 
    101 CA         26.3890   10.5180  -15.3620 C.3       9 GLL5        0.0000 
    102 CA         28.3900   12.1400  -12.1870 C.3       6 GLP5        0.0000 
    103 CA         25.8245   13.5265  -15.0465 C.3       3 GLC5        0.0000 
    104 CA         25.7500   11.6740  -16.0770 C.3       9 GLL5        0.0000 
    105 CA         25.8990   15.3790  -14.0160 C.3       6 GLP5        0.0000 
    106 N          22.3455   13.9770  -14.0245 N.am      2 SEC2        0.0000 
    107 N          22.4830   13.4980  -15.4310 N.am      8 SEL2        0.0000 
    108 N          22.2080   14.4560  -12.6180 N.am      5 SEP2        0.0000 
    109 N          24.9450   14.3000  -18.3140 N.am      2 SEC2        0.0000 
    110 N          24.0270   13.5690  -17.4140 N.am      8 SEL2        0.0000 
    111 N          25.8630   15.0310  -19.2140 N.am      5 SEP2        0.0000 
    112 CA         19.1130   11.6425  -19.6405 C.3       3 GLC5        0.0000 
    113 CA         18.9830   13.0980  -21.1480 C.3       6 GLP5        0.0000 
    114 CA         18.8488    6.2990  -18.4350 C.3       3 GLC5        0.0000 
    115 CA         19.5680    4.3560  -18.0530 C.3       6 GLP5        0.0000 
    116 CA         14.1105   12.6567  -22.0695 C.3       3 GLC5        0.0000 
    117 CA         13.8440    8.4545  -21.6623 C.3       3 GLC5        0.0000 
    118 CA         28.7413    2.7790  -16.1215 C.3       3 GLC5        0.0000 
    119 CA         30.0830    3.4180  -17.3290 C.3       9 GLL5        0.0000 
    120 CA         27.4770    2.8520  -14.6330 C.3       6 GLP5        0.0000 
    121 CA         30.5624    4.0634  -19.4080 C.3       3 GLC5        0.0000 
    122 CA         32.1780    4.0540  -20.5770 C.3       6 GLP5        0.0000 
    123 CA         27.0540    5.2514  -17.8206 C.3       3 GLC5        0.0000 
    124 CA         29.2920    4.4930  -17.8710 C.3       9 GLL5        0.0000 
    125 CA         25.0470    5.4670  -17.7880 C.3       6 GLP5        0.0000 
    126 CA         28.6968    3.9871  -15.7261 C.3       3 GLC5        0.0000 
    127 CA         30.1300    5.9850  -16.1540 C.3       9 GLL5        0.0000 
@<TRIPOS>BOND
@<TRIPOS>SUBSTRUCTURE
     1 ALC1       23 GROUP        1 X    ALC  0     ROOT ALC X 1
     2 SEC2        1 GROUP        1 X    SEC  0     **** SEC X 2
     3 GLC5       12 GROUP        1 X    GLC  0     **** GLC X 6
     4 ALP1       25 GROUP        1 Y    ALP  0     ROOT ALP Y 8
     5 SEP2        3 GROUP        1 Y    SEP  0     **** SEP Y 9
     6 GLP5       14 GROUP        1 Y    GLP  0     **** GLP Y 13
     7 ALL1       24 GROUP        1 Z    ALL  0     ROOT ALL Z 15
     8 SEL2        2 GROUP        1 Z    SEL  0     **** SEL Z 16
     9 GLL5       13 GROUP        1 Z    GLL  0     **** GLL Z 20
@<TRIPOS>SET

