#    Name: 1bzl_FAD_1_ligand
#    Modification time : Mon Mar 24 20:03:09 2014

@<TRIPOS>MOLECULE
1bzl_FAD_1_ligand
   84    89     1     0     0
SMALL
NO_CHARGES


@<TRIPOS>ATOM
      1 PA         22.0840   10.1970  -16.7510 P.3       1 FAD601      0.0000 
      2 O1A        22.5980    9.3390  -17.8500 O.co2     1 FAD601      0.0000 
      3 O2A        22.3540    9.7730  -15.3520 O.co2     1 FAD601      0.0000 
      4 O5B        20.5230   10.2760  -16.8900 O.3       1 FAD601      0.0000 
      5 C5B        19.9410   10.4730  -18.1610 C.3       1 FAD601      0.0000 
      6 C4B        18.5450    9.9010  -18.1050 C.3       1 FAD601      0.0000 
      7 O4B        17.7810   10.3210  -19.2230 O.3       1 FAD601      0.0000 
      8 C3B        18.5590    8.3680  -18.1800 C.3       1 FAD601      0.0000 
      9 O3B        17.9850    7.8550  -16.9660 O.3       1 FAD601      0.0000 
     10 C2B        17.7000    8.1160  -19.4540 C.3       1 FAD601      0.0000 
     11 O2B        16.8970    6.9210  -19.3920 O.3       1 FAD601      0.0000 
     12 C1B        16.8130    9.3330  -19.5090 C.3       1 FAD601      0.0000 
     13 N9A        16.2120    9.5650  -20.8250 N.pl3     1 FAD601      0.0000 
     14 C8A        16.8970    9.7050  -21.9870 C.2       1 FAD601      0.0000 
     15 N7A        16.2170   10.2610  -22.9440 N.2       1 FAD601      0.0000 
     16 C5A        14.9570   10.4170  -22.4030 C.ar      1 FAD601      0.0000 
     17 C6A        13.7970   10.9980  -22.9190 C.ar      1 FAD601      0.0000 
     18 N6A        13.7460   11.5320  -24.1380 N.pl3     1 FAD601      0.0000 
     19 N1A        12.7290   11.0240  -22.1140 N.ar      1 FAD601      0.0000 
     20 C2A        12.8500   10.6130  -20.8610 C.ar      1 FAD601      0.0000 
     21 N3A        13.9020   10.1090  -20.2510 N.ar      1 FAD601      0.0000 
     22 C4A        14.9410   10.0190  -21.1000 C.ar      1 FAD601      0.0000 
     23 N1         31.0250    8.5690  -13.8090 N.2       1 FAD601      0.0000 
     24 C2         31.7470    8.7680  -12.6110 C.2       1 FAD601      0.0000 
     25 O2         31.7620    9.8630  -12.0460 O.2       1 FAD601      0.0000 
     26 N3         32.4200    7.7010  -12.0700 N.am      1 FAD601      0.0000 
     27 C4         32.3800    6.4170  -12.5960 C.2       1 FAD601      0.0000 
     28 O4         32.8100    5.4720  -11.9420 O.2       1 FAD601      0.0000 
     29 C4X        31.7120    6.2820  -13.9440 C.2       1 FAD601      0.0000 
     30 N5         31.6210    5.1010  -14.5290 N.2       1 FAD601      0.0000 
     31 C5X        30.8780    4.9110  -15.6020 C.ar      1 FAD601      0.0000 
     32 C6         30.8640    3.6500  -16.2380 C.ar      1 FAD601      0.0000 
     33 C7         30.0830    3.4180  -17.3290 C.ar      1 FAD601      0.0000 
     34 C7M        29.9280    1.9940  -17.8910 C.3       1 FAD601      0.0000 
     35 C8         29.2920    4.4930  -17.8710 C.ar      1 FAD601      0.0000 
     36 C8M        28.2060    4.1900  -18.8780 C.3       1 FAD601      0.0000 
     37 C9         29.3730    5.7300  -17.3320 C.ar      1 FAD601      0.0000 
     38 C9A        30.1300    5.9850  -16.1540 C.ar      1 FAD601      0.0000 
     39 N10        30.2060    7.2210  -15.5530 N.pl3     1 FAD601      0.0000 
     40 C10        31.0000    7.4010  -14.4670 C.2       1 FAD601      0.0000 
     41 C1'        29.4740    8.4050  -16.1460 C.3       1 FAD601      0.0000 
     42 C2'        28.2560    8.8350  -15.4310 C.3       1 FAD601      0.0000 
     43 O2'        27.4200    7.6970  -15.4630 O.3       1 FAD601      0.0000 
     44 C3'        27.5590    9.9620  -16.1100 C.3       1 FAD601      0.0000 
     45 O3'        28.5320   10.9810  -16.2990 O.3       1 FAD601      0.0000 
     46 C4'        26.3890   10.5180  -15.3620 C.3       1 FAD601      0.0000 
     47 O4'        25.4010    9.5040  -15.3470 O.3       1 FAD601      0.0000 
     48 C5'        25.7500   11.6740  -16.0770 C.3       1 FAD601      0.0000 
     49 O5'        24.5910   12.2110  -15.3990 O.3       1 FAD601      0.0000 
     50 P          23.4180   12.7960  -16.3170 P.3       1 FAD601      0.0000 
     51 O1P        22.4830   13.4980  -15.4310 O.co2     1 FAD601      0.0000 
     52 O2P        24.0270   13.5690  -17.4140 O.co2     1 FAD601      0.0000 
     53 O3P        22.7410   11.6050  -17.0840 O.3       1 FAD601      0.0000 
     54 H          20.4887    9.9565  -18.9486 H         1 FAD601      0.0000 
     55 H          19.8657   11.5287  -18.4197 H         1 FAD601      0.0000 
     56 H          18.0716   10.1779  -17.1848 H         1 FAD601      0.0000 
     57 H          19.5423    8.0649  -18.3708 H         1 FAD601      0.0000 
     58 H          18.3550    8.1460  -20.2940 H         1 FAD601      0.0000 
     59 H          16.1037    9.2670  -18.7322 H         1 FAD601      0.0000 
     60 H          17.8559    9.3932  -22.0715 H         1 FAD601      0.0000 
     61 H          14.3471   11.1215  -24.8237 H         1 FAD601      0.0000 
     62 H          13.1113   12.2954  -24.2578 H         1 FAD601      0.0000 
     63 H          11.9318   10.7082  -20.2386 H         1 FAD601      0.0000 
     64 H          33.0044    7.8597  -11.2024 H         1 FAD601      0.0000 
     65 H          31.4683    2.9002  -15.8496 H         1 FAD601      0.0000 
     66 H          28.8797    6.5380  -17.7671 H         1 FAD601      0.0000 
     67 H          29.2197    8.1617  -17.2076 H         1 FAD601      0.0000 
     68 H          30.1913    9.2604  -16.2132 H         1 FAD601      0.0000 
     69 H          28.5012    9.0960  -14.4276 H         1 FAD601      0.0000 
     70 H          27.2174    9.6120  -17.0893 H         1 FAD601      0.0000 
     71 H          26.6672   10.8013  -14.3867 H         1 FAD601      0.0000 
     72 H          25.4792   11.3408  -17.1046 H         1 FAD601      0.0000 
     73 H          26.5204   12.4660  -16.2159 H         1 FAD601      0.0000 
     74 H          30.8065    1.6085  -18.1733 H         1 FAD601      0.0000 
     75 H          29.5370    1.3687  -17.2156 H         1 FAD601      0.0000 
     76 H          29.3283    1.9737  -18.6910 H         1 FAD601      0.0000 
     77 H          28.5723    3.7512  -19.6985 H         1 FAD601      0.0000 
     78 H          27.5120    3.5759  -18.5023 H         1 FAD601      0.0000 
     79 H          27.7333    5.0195  -19.1754 H         1 FAD601      0.0000 
     80 H          17.0703    8.2569  -16.9223 H         1 FAD601      0.0000 
     81 H          16.3000    7.0514  -18.6004 H         1 FAD601      0.0000 
     82 H          26.5879    8.0003  -15.9272 H         1 FAD601      0.0000 
     83 H          28.1761   11.5433  -17.0455 H         1 FAD601      0.0000 
     84 H          24.5286    9.9929  -15.3423 H         1 FAD601      0.0000 
@<TRIPOS>BOND
     1    2    1 ar   
     2    3    1 ar   
     3    4    1 1    
     4   53    1 1    
     5    5    4 1    
     6    6    5 1    
     7   54    5 1    
     8   55    5 1    
     9    7    6 1    
    10    8    6 1    
    11   56    6 1    
    12   12    7 1    
    13    9    8 1    
    14   10    8 1    
    15   57    8 1    
    16   80    9 1    
    17   11   10 1    
    18   12   10 1    
    19   58   10 1    
    20   81   11 1    
    21   13   12 1    
    22   59   12 1    
    23   14   13 1    
    24   22   13 1    
    25   15   14 2    
    26   60   14 1    
    27   16   15 1    
    28   17   16 ar   
    29   22   16 ar   
    30   18   17 1    
    31   19   17 ar   
    32   61   18 1    
    33   62   18 1    
    34   20   19 ar   
    35   21   20 ar   
    36   63   20 1    
    37   22   21 ar   
    38   24   23 1    
    39   40   23 2    
    40   25   24 2    
    41   26   24 am   
    42   27   26 am   
    43   64   26 1    
    44   28   27 2    
    45   29   27 1    
    46   30   29 2    
    47   40   29 1    
    48   31   30 1    
    49   32   31 ar   
    50   38   31 ar   
    51   33   32 ar   
    52   65   32 1    
    53   34   33 1    
    54   35   33 ar   
    55   74   34 1    
    56   75   34 1    
    57   76   34 1    
    58   36   35 1    
    59   37   35 ar   
    60   77   36 1    
    61   78   36 1    
    62   79   36 1    
    63   38   37 ar   
    64   66   37 1    
    65   39   38 1    
    66   40   39 1    
    67   41   39 1    
    68   42   41 1    
    69   67   41 1    
    70   68   41 1    
    71   43   42 1    
    72   44   42 1    
    73   69   42 1    
    74   82   43 1    
    75   45   44 1    
    76   46   44 1    
    77   70   44 1    
    78   83   45 1    
    79   47   46 1    
    80   48   46 1    
    81   71   46 1    
    82   84   47 1    
    83   49   48 1    
    84   72   48 1    
    85   73   48 1    
    86   50   49 1    
    87   51   50 ar   
    88   52   50 ar   
    89   53   50 1    
@<TRIPOS>SUBSTRUCTURE
     1 FAD601      1 GROUP   
@<TRIPOS>SET

