#    Name: 4nie_NBH_3_INTS_M
#    Modification time : Tue Mar 25 13:10:49 2014

@<TRIPOS>MOLECULE
4nie_NBH_3_INTS_M
   85     0     9     0     0
SMALL
NO_CHARGES


@<TRIPOS>ATOM
      1 CA         15.9525   15.8660  -19.1365 C.3       3 GLC5        0.0000 
      2 CA         16.0010   14.7490  -20.8240 C.3       9 GLL5        0.0000 
      3 CA         15.9040   16.9830  -17.4490 C.3       6 GLP5        0.0000 
      4 CA         17.8190   15.2805  -19.9400 C.3       3 GLC5        0.0000 
      5 CA         19.6370   15.8120  -19.0560 C.3       6 GLP5        0.0000 
      6 CA         15.1655   11.0970  -25.4410 C.3       3 GLC5        0.0000 
      7 CA         14.6560   11.6110  -23.5030 C.3       9 GLL5        0.0000 
      8 CA         15.6750   10.5830  -27.3790 C.3       6 GLP5        0.0000 
      9 CA         14.6040   13.2060  -24.6610 C.3       3 GLC5        0.0000 
     10 CA         14.5520   14.8010  -25.8190 C.3       6 GLP5        0.0000 
     11 CA         16.8210    8.7740  -22.5255 C.3       3 GLC5        0.0000 
     12 CA         16.9750   10.9830  -22.8900 C.3       9 GLL5        0.0000 
     13 CA         16.6670    6.5650  -22.1610 C.3       6 GLP5        0.0000 
     14 CA         18.4145    9.7180  -23.5915 C.3       3 GLC5        0.0000 
     15 CA         19.8540    8.4530  -24.2930 C.3       6 GLP5        0.0000 
     16 CA         18.6435    9.8275  -18.0540 C.3       3 GLC5        0.0000 
     17 CA         19.0190   10.9200  -19.6600 C.3       9 GLL5        0.0000 
     18 CA         18.2680    8.7350  -16.4480 C.3       6 GLP5        0.0000 
     19 O          22.7905   11.7060  -19.6720 O.2       1 ALC1        0.0000 
     20 O          21.4030   11.5460  -19.2580 O.2       7 ALL1        0.0000 
     21 O          24.1780   11.8660  -20.0860 O.2       4 ALP1        0.0000 
     22 CA         24.8350   11.8935  -17.1755 C.3       3 GLC5        0.0000 
     23 CA         22.7000   11.7670  -17.1040 C.3       9 GLL5        0.0000 
     24 CA         26.9700   12.0200  -17.2470 C.3       6 GLP5        0.0000 
     25 CA         23.5370   10.4185  -18.6385 C.3       3 GLC5        0.0000 
     26 CA         24.3740    9.0700  -20.1730 C.3       6 GLP5        0.0000 
     27 CA         22.3115   15.0260  -12.7640 C.3       3 GLC5        0.0000 
     28 CA         22.8620   14.7950  -14.7330 C.3       9 GLL5        0.0000 
     29 CA         21.7610   15.2570  -10.7950 C.3       6 GLP5        0.0000 
     30 N          24.3840   19.3180  -15.1120 N.am      2 SEC2        0.0000 
     31 N          23.5690   18.4320  -16.0040 N.am      8 SEL2        0.0000 
     32 N          25.1990   20.2040  -14.2200 N.am      5 SEP2        0.0000 
     33 N          24.4545   17.3245  -12.4555 N.am      2 SEC2        0.0000 
     34 N          23.8640   17.5660  -13.9210 N.am      8 SEL2        0.0000 
     35 N          25.0450   17.0830  -10.9900 N.am      5 SEP2        0.0000 
     36 CA         21.7125   17.3645  -12.7380 C.3       3 GLC5        0.0000 
     37 CA         21.2690   18.0060  -14.6530 C.3       9 GLL5        0.0000 
     38 CA         22.1560   16.7230  -10.8230 C.3       6 GLP5        0.0000 
     39 CA         18.6560   16.2655  -14.9480 C.3       3 GLC5        0.0000 
     40 CA         20.1140   17.6020  -15.6260 C.3       9 GLL5        0.0000 
     41 CA         17.1980   14.9290  -14.2700 C.3       6 GLP5        0.0000 
     42 CA         19.8755   16.7070  -17.3410 C.3       3 GLC5        0.0000 
     43 CA         21.9145   12.0045  -22.8705 C.3       3 GLC5        0.0000 
     44 CA         20.4310   11.7250  -21.4570 C.3       9 GLL5        0.0000 
     45 CA         23.3980   12.2840  -24.2840 C.3       6 GLP5        0.0000 
     46 CA         14.9805   14.1065  -19.9920 C.3       3 GLC5        0.0000 
     47 CA         14.1790   13.5800  -18.4480 C.3       6 GLP5        0.0000 
     48 CA         13.8080   15.0940  -21.3260 C.3       3 GLC5        0.0000 
     49 CA         11.8340   15.5550  -21.1160 C.3       6 GLP5        0.0000 
     50 CA         15.1665   16.4630  -22.2740 C.3       3 GLC5        0.0000 
     51 CA         15.5630   14.5170  -22.2480 C.3       9 GLL5        0.0000 
     52 CA         14.5510   18.2930  -23.0120 C.3       6 GLP5        0.0000 
     53 CA         15.2420   14.3620  -24.2305 C.3       3 GLC5        0.0000 
     54 CA         14.4875    8.7935  -21.6292 C.3       3 GLC5        0.0000 
     55 CA         13.7710   10.5910  -22.8900 C.3       9 GLL5        0.0000 
     56 CA         15.2870    7.0030  -21.0750 C.3       6 GLP5        0.0000 
     57 CA         12.5245   11.3710  -19.8622 C.3       3 GLC5        0.0000 
     58 CA         13.6050   10.5770  -21.4770 C.3       9 GLL5        0.0000 
     59 CA         11.8650   12.6500  -18.5520 C.3       6 GLP5        0.0000 
     60 CA         13.8610    8.0732  -21.1653 C.3       3 GLC5        0.0000 
     61 CA         12.7630    9.6070  -20.8680 C.3       9 GLL5        0.0000 
     62 CA         12.4245    8.1847  -19.3922 C.3       3 GLC5        0.0000 
     63 CA         12.4140    7.2260  -17.5290 C.3       6 GLP5        0.0000 
     64 CA         10.7645   10.3645  -22.5087 C.3       3 GLC5        0.0000 
     65 CA         12.1070    8.6800  -21.6430 C.3       9 GLL5        0.0000 
     66 CA          9.3370   12.0420  -22.6680 C.3       6 GLP5        0.0000 
     67 CA         13.9920    8.0900  -22.2175 C.3       3 GLC5        0.0000 
     68 CA         12.2770    8.6940  -23.0560 C.3       9 GLL5        0.0000 
     69 CA         13.8665    8.1075  -24.6475 C.3       3 GLC5        0.0000 
     70 CA         15.0360    7.0380  -25.9350 C.3       6 GLP5        0.0000 
     71 CA         20.7082   13.6282  -20.4528 C.3       3 GLC5        0.0000 
     72 CA         21.0670   15.6990  -20.1290 C.3       6 GLP5        0.0000 
     73 CA         21.9823   10.1502  -21.1212 C.3       3 GLC5        0.0000 
     74 CA         23.6150    8.7430  -21.4660 C.3       6 GLP5        0.0000 
     75 CA         24.4842   13.6000  -14.8328 C.3       3 GLC5        0.0000 
     76 CA         22.7960   13.1930  -16.5860 C.3       9 GLL5        0.0000 
     77 CA         26.1730   13.8760  -13.7820 C.3       6 GLP5        0.0000 
     78 CA         21.9652   15.3113  -18.7125 C.3       3 GLC5        0.0000 
     79 CA         22.8310   14.2510  -17.5230 C.3       9 GLL5        0.0000 
     80 CA         24.5317   14.6017  -14.4923 C.3       3 GLC5        0.0000 
     81 CA         22.9190   15.8600  -15.6720 C.3       9 GLL5        0.0000 
     82 CA         24.0566   15.9509  -17.9305 C.3       3 GLC5        0.0000 
     83 CA         25.2220   16.5100  -19.3770 C.3       6 GLP5        0.0000 
     84 CA         20.1863   19.4560  -15.7168 C.3       3 GLC5        0.0000 
     85 CA         19.6810   21.1080  -16.2940 C.3       6 GLP5        0.0000 
@<TRIPOS>BOND
@<TRIPOS>SUBSTRUCTURE
     1 ALC1       19 GROUP        1 X    ALC  0     ROOT ALC X 1
     2 SEC2       30 GROUP        1 X    SEC  0     **** SEC X 2
     3 GLC5        1 GROUP        1 X    GLC  0     **** GLC X 6
     4 ALP1       21 GROUP        1 Y    ALP  0     ROOT ALP Y 8
     5 SEP2       32 GROUP        1 Y    SEP  0     **** SEP Y 9
     6 GLP5        3 GROUP        1 Y    GLP  0     **** GLP Y 13
     7 ALL1       20 GROUP        1 Z    ALL  0     ROOT ALL Z 15
     8 SEL2       31 GROUP        1 Z    SEL  0     **** SEL Z 16
     9 GLL5        2 GROUP        1 Z    GLL  0     **** GLL Z 20
@<TRIPOS>SET

