#    Name: 4nie_NBH_3_ligand
#    Modification time : Tue Mar 25 13:10:49 2014

@<TRIPOS>MOLECULE
4nie_NBH_3_ligand
   66    68     1     0     0
SMALL
NO_CHARGES


@<TRIPOS>ATOM
      1 C01        16.0010   14.7490  -20.8240 C.3       1 NBH601      0.0000 
      2 C02        15.5630   14.5170  -22.2480 C.3       1 NBH601      0.0000 
      3 C03        16.3010   13.3290  -23.0360 C.3       1 NBH601      0.0000 
      4 N04        15.8740   11.9770  -22.7540 N.4       1 NBH601      0.0000 
      5 C05        14.6560   11.6110  -23.5030 C.3       1 NBH601      0.0000 
      6 C06        13.7710   10.5910  -22.8900 C.ar      1 NBH601      0.0000 
      7 C07        13.6050   10.5770  -21.4770 C.ar      1 NBH601      0.0000 
      8 C08        12.7630    9.6070  -20.8680 C.ar      1 NBH601      0.0000 
      9 C09        12.1070    8.6800  -21.6430 C.ar      1 NBH601      0.0000 
     10 C10        12.2770    8.6940  -23.0560 C.ar      1 NBH601      0.0000 
     11 C11        13.1170    9.6600  -23.6640 C.ar      1 NBH601      0.0000 
     12 C12        16.9750   10.9830  -22.8900 C.3       1 NBH601      0.0000 
     13 C13        18.1350   11.1150  -21.8970 C.ar      1 NBH601      0.0000 
     14 C14        17.9600   10.7900  -20.5630 C.ar      1 NBH601      0.0000 
     15 C15        19.0190   10.9200  -19.6600 C.ar      1 NBH601      0.0000 
     16 C16        20.2680   11.3900  -20.0960 C.ar      1 NBH601      0.0000 
     17 N17        21.4030   11.5460  -19.2580 N.am      1 NBH601      0.0000 
     18 C18        21.3950   11.5730  -17.8230 C.2       1 NBH601      0.0000 
     19 O19        20.4020   11.5000  -17.1640 O.2       1 NBH601      0.0000 
     20 C20        22.7000   11.7670  -17.1040 C.3       1 NBH601      0.0000 
     21 C21        22.7960   13.1930  -16.5860 C.ar      1 NBH601      0.0000 
     22 C22        22.8310   14.2510  -17.5230 C.ar      1 NBH601      0.0000 
     23 C23        22.8960   15.5960  -17.0690 C.ar      1 NBH601      0.0000 
     24 C24        22.9190   15.8600  -15.6720 C.ar      1 NBH601      0.0000 
     25 C25        22.8620   14.7950  -14.7330 C.ar      1 NBH601      0.0000 
     26 C26        22.7950   13.4550  -15.1810 C.ar      1 NBH601      0.0000 
     27 S27        22.9830   17.5070  -15.0710 S.o2      1 NBH601      0.0000 
     28 O28        23.5690   18.4320  -16.0040 O.2       1 NBH601      0.0000 
     29 O29        23.8640   17.5660  -13.9210 O.2       1 NBH601      0.0000 
     30 C30        21.2690   18.0060  -14.6530 C.3       1 NBH601      0.0000 
     31 C31        20.1140   17.6020  -15.6260 C.3       1 NBH601      0.0000 
     32 C32        20.4310   11.7250  -21.4570 C.ar      1 NBH601      0.0000 
     33 C33        19.3850   11.5990  -22.3450 C.ar      1 NBH601      0.0000 
     34 H          15.7113   15.4347  -22.8505 H         1 NBH601      0.0000 
     35 H          14.4786   14.2941  -22.2855 H         1 NBH601      0.0000 
     36 H          17.3932   13.4678  -22.8278 H         1 NBH601      0.0000 
     37 H          16.1884   13.5782  -24.1226 H         1 NBH601      0.0000 
     38 H          15.5768   11.9556  -21.6489 H         1 NBH601      0.0000 
     39 H          14.9504   11.2617  -24.5324 H         1 NBH601      0.0000 
     40 H          14.0528   12.5418  -23.6983 H         1 NBH601      0.0000 
     41 H          14.0902   11.2630  -20.9016 H         1 NBH601      0.0000 
     42 H          12.6583    9.6159  -19.8469 H         1 NBH601      0.0000 
     43 H          11.4940    7.9738  -21.2262 H         1 NBH601      0.0000 
     44 H          11.7914    8.0053  -23.6307 H         1 NBH601      0.0000 
     45 H          13.2258    9.6499  -24.6853 H         1 NBH601      0.0000 
     46 H          17.3992   11.0335  -23.9216 H         1 NBH601      0.0000 
     47 H          16.5603    9.9505  -22.7976 H         1 NBH601      0.0000 
     48 H          17.0468   10.4500  -20.2279 H         1 NBH601      0.0000 
     49 H          18.8856   10.6713  -18.6726 H         1 NBH601      0.0000 
     50 H          22.3461   11.6529  -19.7296 H         1 NBH601      0.0000 
     51 H          23.5282   11.5779  -17.7840 H         1 NBH601      0.0000 
     52 H          22.7656   11.0774  -16.2648 H         1 NBH601      0.0000 
     53 H          22.8098   14.0532  -18.5216 H         1 NBH601      0.0000 
     54 H          22.9257   16.3600  -17.7342 H         1 NBH601      0.0000 
     55 H          22.8696   15.0004  -13.7335 H         1 NBH601      0.0000 
     56 H          22.7469   12.6895  -14.5226 H         1 NBH601      0.0000 
     57 H          21.3653   19.0906  -14.5481 H         1 NBH601      0.0000 
     58 H          21.1424   17.5766  -13.6549 H         1 NBH601      0.0000 
     59 H          21.3512   12.0675  -21.7772 H         1 NBH601      0.0000 
     60 H          19.4974   11.8519  -23.3330 H         1 NBH601      0.0000 
     61 H          16.9741   14.9721  -20.7664 H         1 NBH601      0.0000 
     62 H          15.5015   15.5046  -20.4002 H         1 NBH601      0.0000 
     63 H          15.8511   13.9418  -20.2531 H         1 NBH601      0.0000 
     64 H          20.2475   17.9849  -16.5401 H         1 NBH601      0.0000 
     65 H          20.0466   16.6098  -15.7308 H         1 NBH601      0.0000 
     66 H          19.2247   17.9234  -15.3006 H         1 NBH601      0.0000 
@<TRIPOS>BOND
     1    2    1 1    
     2   61    1 1    
     3   62    1 1    
     4   63    1 1    
     5    3    2 1    
     6   34    2 1    
     7   35    2 1    
     8    4    3 1    
     9   36    3 1    
    10   37    3 1    
    11    5    4 1    
    12   12    4 1    
    13   38    4 1    
    14    6    5 1    
    15   39    5 1    
    16   40    5 1    
    17    7    6 ar   
    18   11    6 ar   
    19    8    7 ar   
    20   41    7 1    
    21    9    8 ar   
    22   42    8 1    
    23   10    9 ar   
    24   43    9 1    
    25   11   10 ar   
    26   44   10 1    
    27   45   11 1    
    28   13   12 1    
    29   46   12 1    
    30   47   12 1    
    31   14   13 ar   
    32   33   13 ar   
    33   15   14 ar   
    34   48   14 1    
    35   16   15 ar   
    36   49   15 1    
    37   17   16 1    
    38   32   16 ar   
    39   18   17 am   
    40   50   17 1    
    41   19   18 2    
    42   20   18 1    
    43   21   20 1    
    44   51   20 1    
    45   52   20 1    
    46   22   21 ar   
    47   26   21 ar   
    48   23   22 ar   
    49   53   22 1    
    50   24   23 ar   
    51   54   23 1    
    52   25   24 ar   
    53   27   24 1    
    54   26   25 ar   
    55   55   25 1    
    56   56   26 1    
    57   28   27 2    
    58   29   27 2    
    59   30   27 1    
    60   31   30 1    
    61   57   30 1    
    62   58   30 1    
    63   64   31 1    
    64   65   31 1    
    65   66   31 1    
    66   33   32 ar   
    67   59   32 1    
    68   60   33 1    
@<TRIPOS>SUBSTRUCTURE
     1 NBH601      1 GROUP   
@<TRIPOS>SET

