#    Name: 2c5v_CK4_2_INTS_M
#    Modification time : Mon Mar 24 22:40:50 2014

@<TRIPOS>MOLECULE
2c5v_CK4_2_INTS_M
   67     0     9     0     0
SMALL
NO_CHARGES


@<TRIPOS>ATOM
      1 CA         51.8570   45.6125   25.8500 C.3       3 GLC5        0.0000 
      2 CA         50.7770   45.3350   27.0910 C.3       9 GLL5        0.0000 
      3 CA         52.9370   45.8900   24.6090 C.3       6 GLP5        0.0000 
      4 CA         51.9060   46.3065   28.4920 C.3       3 GLC5        0.0000 
      5 CA         53.0350   47.2780   29.8930 C.3       6 GLP5        0.0000 
      6 CA         50.7380   48.8735   26.9275 C.3       3 GLC5        0.0000 
      7 CA         49.8860   47.1110   27.9370 C.3       9 GLL5        0.0000 
      8 CA         51.5900   50.6360   25.9180 C.3       6 GLP5        0.0000 
      9 CA         47.0355   44.8140   27.4630 C.3       3 GLC5        0.0000 
     10 CA         48.9370   45.1770   28.1380 C.3       9 GLL5        0.0000 
     11 CA         45.1340   44.4510   26.7880 C.3       6 GLP5        0.0000 
     12 CA         49.6895   44.9490   22.3155 C.3       3 GLC5        0.0000 
     13 CA         48.3970   45.7170   23.7720 C.3       9 GLL5        0.0000 
     14 CA         50.9820   44.1810   20.8590 C.3       6 GLP5        0.0000 
     15 O          47.6655   46.1785   21.6905 O.2       1 ALC1        0.0000 
     16 O          46.9810   46.9980   22.4630 O.2       7 ALL1        0.0000 
     17 O          48.3500   45.3590   20.9180 O.2       4 ALP1        0.0000 
     18 CA         45.1070   46.6920   23.4180 C.3       3 GLC5        0.0000 
     19 CA         46.1000   47.9810   22.1600 C.3       9 GLL5        0.0000 
     20 CA         44.1140   45.4030   24.6760 C.3       6 GLP5        0.0000 
     21 CA         44.1315   47.4685   21.4475 C.3       3 GLC5        0.0000 
     22 CA         42.1630   46.9560   20.7350 C.3       6 GLP5        0.0000 
     23 CA         46.9965   49.2090   21.9185 C.3       3 GLC5        0.0000 
     24 CA         47.8930   50.4370   21.6770 C.3       6 GLP5        0.0000 
     25 N          46.4110   47.0690   19.7585 N.am      2 SEC2        0.0000 
     26 N          45.6700   48.0400   20.8910 N.am      8 SEL2        0.0000 
     27 N          47.1520   46.0980   18.6260 N.am      5 SEP2        0.0000 
     28 CA         45.2875   50.6365   19.1855 C.3       3 GLC5        0.0000 
     29 CA         44.7850   48.9650   20.5170 C.3       9 GLL5        0.0000 
     30 CA         45.7900   52.3080   17.8540 C.3       6 GLP5        0.0000 
     31 CA         44.8645   47.2680   19.1880 C.3       3 GLC5        0.0000 
     32 CA         44.9440   45.5710   17.8590 C.3       6 GLP5        0.0000 
     33 CA         46.1505   48.9015   18.9010 C.3       3 GLC5        0.0000 
     34 CA         47.5160   48.8380   17.2850 C.3       6 GLP5        0.0000 
     35 CA         43.0825   48.8790   23.9000 C.3       3 GLC5        0.0000 
     36 CA         44.7780   49.8250   22.7730 C.3       9 GLL5        0.0000 
     37 CA         41.3870   47.9330   25.0270 C.3       6 GLP5        0.0000 
     38 CA         41.1240   52.4585   21.6485 C.3       3 GLC5        0.0000 
     39 CA         42.7430   52.4650   22.2480 C.3       9 GLL5        0.0000 
     40 CA         39.5050   52.4520   21.0490 C.3       6 GLP5        0.0000 
     41 CA         42.9425   53.2790   28.4880 C.3       3 GLC5        0.0000 
     42 CA         44.2060   52.9200   26.8990 C.3       9 GLL5        0.0000 
     43 CA         41.6790   53.6380   30.0770 C.3       6 GLP5        0.0000 
     44 CA         50.6915   46.2207   29.3554 C.3       3 GLC5        0.0000 
     45 CA         49.6400   45.9650   27.3420 C.3       9 GLL5        0.0000 
     46 CA         52.0330   46.5840   30.8220 C.3       6 GLP5        0.0000 
     47 CA         47.0530   45.1662   26.1553 C.3       3 GLC5        0.0000 
     48 CA         48.8920   46.2970   26.0760 C.3       9 GLL5        0.0000 
     49 CA         46.0547   45.8395   24.1957 C.3       3 GLC5        0.0000 
     50 CA         46.1385   46.6092   25.7405 C.3       3 GLC5        0.0000 
     51 CA         47.4090   47.6580   24.7720 C.3       9 GLL5        0.0000 
     52 CA         44.5270   45.6740   26.1100 C.3       6 GLP5        0.0000 
     53 CA         50.2523   46.6300   25.0328 C.3       3 GLC5        0.0000 
     54 CA         48.0910   47.4310   25.9700 C.3       9 GLL5        0.0000 
     55 CA         51.8260   46.4790   23.7260 C.3       6 GLP5        0.0000 
     56 CA         47.6972   48.8417   22.9462 C.3       3 GLC5        0.0000 
     57 CA         47.5940   46.8350   23.6590 C.3       9 GLL5        0.0000 
     58 CA         49.9926   46.3461   23.8704 C.3       3 GLC5        0.0000 
     59 CA         42.9457   49.7320   19.9035 C.3       3 GLC5        0.0000 
     60 CA         41.3520   50.0550   18.8160 C.3       6 GLP5        0.0000 
     61 CA         46.2163   49.9230   21.3340 C.3       3 GLC5        0.0000 
     62 CA         44.2940   49.8530   21.4650 C.3       9 GLL5        0.0000 
     63 CA         43.4109   48.2865   21.3085 C.3       3 GLC5        0.0000 
     64 CA         46.2725   50.3990   22.4458 C.3       3 GLC5        0.0000 
     65 CA         41.3475   52.8180   23.9880 C.3       3 GLC5        0.0000 
     66 CA         43.4690   51.9430   23.4600 C.3       9 GLL5        0.0000 
     67 CA         39.5890   53.4320   25.1220 C.3       6 GLP5        0.0000 
@<TRIPOS>BOND
@<TRIPOS>SUBSTRUCTURE
     1 ALC1       15 GROUP        1 X    ALC  0     ROOT ALC X 1
     2 SEC2       25 GROUP        1 X    SEC  0     **** SEC X 2
     3 GLC5        1 GROUP        1 X    GLC  0     **** GLC X 6
     4 ALP1       17 GROUP        1 Y    ALP  0     ROOT ALP Y 8
     5 SEP2       27 GROUP        1 Y    SEP  0     **** SEP Y 9
     6 GLP5        3 GROUP        1 Y    GLP  0     **** GLP Y 13
     7 ALL1       16 GROUP        1 Z    ALL  0     ROOT ALL Z 15
     8 SEL2       26 GROUP        1 Z    SEL  0     **** SEL Z 16
     9 GLL5        2 GROUP        1 Z    GLL  0     **** GLL Z 20
@<TRIPOS>SET

