#    Name: 2c5v_CK4_2_ligand
#    Modification time : Mon Mar 24 22:40:50 2014

@<TRIPOS>MOLECULE
2c5v_CK4_2_ligand
   37    39     1     0     0
SMALL
NO_CHARGES


@<TRIPOS>ATOM
      1 F8B        50.7770   45.3350   27.0910 F         1 CK41297     0.0000 
      2 C7B        49.6400   45.9650   27.3420 C.3       1 CK41297     0.0000 
      3 F1B        49.8860   47.1110   27.9370 F         1 CK41297     0.0000 
      4 F9B        48.9370   45.1770   28.1380 F         1 CK41297     0.0000 
      5 C4B        48.8920   46.2970   26.0760 C.ar      1 CK41297     0.0000 
      6 C5B        49.0520   45.4660   24.9690 C.ar      1 CK41297     0.0000 
      7 C6B        48.3970   45.7170   23.7720 C.ar      1 CK41297     0.0000 
      8 C3B        48.0910   47.4310   25.9700 C.ar      1 CK41297     0.0000 
      9 C2B        47.4090   47.6580   24.7720 C.ar      1 CK41297     0.0000 
     10 C1B        47.5940   46.8350   23.6590 C.ar      1 CK41297     0.0000 
     11 N7         46.9810   46.9980   22.4630 N.pl3     1 CK41297     0.0000 
     12 C2         46.1000   47.9810   22.1600 C.ar      1 CK41297     0.0000 
     13 N1         45.6700   48.0400   20.8910 N.ar      1 CK41297     0.0000 
     14 C6         44.7850   48.9650   20.5170 C.ar      1 CK41297     0.0000 
     15 C5         44.2940   49.8530   21.4650 C.ar      1 CK41297     0.0000 
     16 N3         45.6800   48.8720   23.0800 N.ar      1 CK41297     0.0000 
     17 C4         44.7780   49.8250   22.7730 C.ar      1 CK41297     0.0000 
     18 C5A        44.5260   50.8970   23.6560 C.2       1 CK41297     0.0000 
     19 S4A        45.0160   50.8310   25.2720 S.3       1 CK41297     0.0000 
     20 C1A        43.4690   51.9430   23.4600 C.2       1 CK41297     0.0000 
     21 C6A        42.7430   52.4650   22.2480 C.3       1 CK41297     0.0000 
     22 N2A        43.3710   52.7530   24.5440 N.2       1 CK41297     0.0000 
     23 C3A        44.1590   52.2710   25.5360 C.2       1 CK41297     0.0000 
     24 C7A        44.2060   52.9200   26.8990 C.3       1 CK41297     0.0000 
     25 H          49.6773   44.6393   25.0444 H         1 CK41297     0.0000 
     26 H          48.5101   45.0755   22.9787 H         1 CK41297     0.0000 
     27 H          48.0029   48.0814   26.7468 H         1 CK41297     0.0000 
     28 H          46.7501   48.4562   24.7080 H         1 CK41297     0.0000 
     29 H          47.2132   46.2865   21.6873 H         1 CK41297     0.0000 
     30 H          44.4536   49.0406   19.5422 H         1 CK41297     0.0000 
     31 H          43.5691   50.5366   21.2040 H         1 CK41297     0.0000 
     32 H          43.3733   52.8557   21.5771 H         1 CK41297     0.0000 
     33 H          42.2302   51.7434   21.7829 H         1 CK41297     0.0000 
     34 H          42.0884   53.1821   22.4874 H         1 CK41297     0.0000 
     35 H          45.1390   53.1669   27.1608 H         1 CK41297     0.0000 
     36 H          43.6613   53.7580   26.9303 H         1 CK41297     0.0000 
     37 H          43.8524   52.3138   27.6114 H         1 CK41297     0.0000 
@<TRIPOS>BOND
     1    2    1 1    
     2    3    2 1    
     3    4    2 1    
     4    5    2 1    
     5    6    5 ar   
     6    8    5 ar   
     7    7    6 ar   
     8   25    6 1    
     9   10    7 ar   
    10   26    7 1    
    11    9    8 ar   
    12   27    8 1    
    13   10    9 ar   
    14   28    9 1    
    15   11   10 1    
    16   12   11 1    
    17   29   11 1    
    18   13   12 ar   
    19   16   12 ar   
    20   14   13 ar   
    21   15   14 ar   
    22   30   14 1    
    23   17   15 ar   
    24   31   15 1    
    25   17   16 ar   
    26   18   17 1    
    27   19   18 1    
    28   20   18 2    
    29   23   19 1    
    30   21   20 1    
    31   22   20 1    
    32   32   21 1    
    33   33   21 1    
    34   34   21 1    
    35   23   22 2    
    36   24   23 1    
    37   35   24 1    
    38   36   24 1    
    39   37   24 1    
@<TRIPOS>SUBSTRUCTURE
     1 CK41297     1 GROUP   
@<TRIPOS>SET

