#    Name: 2wka_P89_1_INTS_M
#    Modification time : Tue Mar 25 04:24:59 2014

@<TRIPOS>MOLECULE
2wka_P89_1_INTS_M
  102     0     9     0     0
SMALL
NO_CHARGES


@<TRIPOS>ATOM
      1 CA         64.5220   44.7730    2.0505 C.3       3 GLC5        0.0000 
      2 CA         64.3340   44.8500    0.0170 C.3       9 GLL5        0.0000 
      3 CA         64.7100   44.6960    4.0840 C.3       6 GLP5        0.0000 
      4 CA         63.8670   46.6020    1.2145 C.3       3 GLC5        0.0000 
      5 CA         63.4000   48.3540    2.4120 C.3       6 GLP5        0.0000 
      6 CA         66.3515   44.7065   -2.1085 C.3       3 GLC5        0.0000 
      7 CA         64.9680   45.5390   -1.2030 C.3       9 GLL5        0.0000 
      8 CA         67.7350   43.8740   -3.0140 C.3       6 GLP5        0.0000 
      9 CA         66.5035   46.4875    0.0050 C.3       3 GLC5        0.0000 
     10 CA         68.0390   47.4360    1.2130 C.3       6 GLP5        0.0000 
     11 CA         64.8335   46.2185   -5.5165 C.3       3 GLC5        0.0000 
     12 CA         64.4610   46.5050   -3.5050 C.3       9 GLL5        0.0000 
     13 CA         65.2060   45.9320   -7.5280 C.3       6 GLP5        0.0000 
     14 CA         62.8065   47.3835   -4.2430 C.3       3 GLC5        0.0000 
     15 CA         61.1520   48.2620   -4.9810 C.3       6 GLP5        0.0000 
     16 CA         64.9435   48.5420   -5.4170 C.3       3 GLC5        0.0000 
     17 CA         65.4340   47.6950   -3.4460 C.3       9 GLL5        0.0000 
     18 CA         64.4530   49.3890   -7.3880 C.3       6 GLP5        0.0000 
     19 CA         67.3070   47.9280   -3.8135 C.3       3 GLC5        0.0000 
     20 CA         69.1800   48.1610   -4.1810 C.3       6 GLP5        0.0000 
     21 CA         62.9215   48.6525   -4.1845 C.3       3 GLC5        0.0000 
     22 CA         64.6910   49.0430   -3.3880 C.3       9 GLL5        0.0000 
     23 CA         62.7370   50.0385   -2.9005 C.3       3 GLC5        0.0000 
     24 CA         60.7830   51.0340   -2.4130 C.3       6 GLP5        0.0000 
     25 CA         67.0380   50.8870   -1.8720 C.3       3 GLC5        0.0000 
     26 CA         65.6580   50.2370   -3.3540 C.3       9 GLL5        0.0000 
     27 CA         68.4180   51.5370   -0.3900 C.3       6 GLP5        0.0000 
     28 CA         67.6200   49.7655   -3.4175 C.3       3 GLC5        0.0000 
     29 CA         69.5820   49.2940   -3.4810 C.3       6 GLP5        0.0000 
     30 CA         63.1345   51.8645   -2.6190 C.3       3 GLC5        0.0000 
     31 CA         64.8970   51.5760   -3.3560 C.3       9 GLL5        0.0000 
     32 CA         61.3720   52.1530   -1.8820 C.3       6 GLP5        0.0000 
     33 CA         66.0690   51.8305   -5.1570 C.3       3 GLC5        0.0000 
     34 CA         65.8420   52.7780   -3.2100 C.3       9 GLL5        0.0000 
     35 CA         66.2960   50.8830   -7.1040 C.3       6 GLP5        0.0000 
     36 CA         67.1300   52.1575   -1.8000 C.3       3 GLC5        0.0000 
     37 CA         64.6240   53.1915   -1.5130 C.3       3 GLC5        0.0000 
     38 CA         63.4060   53.6050    0.1840 C.3       6 GLP5        0.0000 
     39 N          62.7985   54.9655   -3.6790 N.am      2 SEC2        0.0000 
     40 N          63.8340   54.0080   -3.6530 N.am      8 SEL2        0.0000 
     41 N          61.7630   55.9230   -3.7050 N.am      5 SEP2        0.0000 
     42 CA         66.6170   57.2945   -4.2115 C.3       3 GLC5        0.0000 
     43 CA         65.6540   55.4520   -3.4120 C.3       9 GLL5        0.0000 
     44 CA         67.5800   59.1370   -5.0110 C.3       6 GLP5        0.0000 
     45 N          63.2210   56.1225   -3.6875 N.am      2 SEC2        0.0000 
     46 N          64.6790   56.3220   -3.6700 N.am      8 SEL2        0.0000 
     47 N          64.6695   57.8930   -7.3575 N.am      2 SEC2        0.0000 
     48 N          64.0110   57.6390   -6.2310 N.am      8 SEL2        0.0000 
     49 N          65.3280   58.1470   -8.4840 N.am      5 SEP2        0.0000 
     50 CA         61.2020   58.0960   -5.2410 C.3       3 GLC5        0.0000 
     51 CA         62.3220   59.2580   -5.7890 C.3       9 GLL5        0.0000 
     52 CA         60.0820   56.9340   -4.6930 C.3       6 GLP5        0.0000 
     53 CA         60.4680   58.3685   -6.4415 C.3       3 GLC5        0.0000 
     54 CA         61.8830   59.2550   -7.2550 C.3       9 GLL5        0.0000 
     55 CA         59.0530   57.4820   -5.6280 C.3       6 GLP5        0.0000 
     56 CA         62.5750   57.4355   -8.1250 C.3       3 GLC5        0.0000 
     57 CA         63.2670   55.6160   -8.9950 C.3       6 GLP5        0.0000 
     58 CA         61.0545   58.4895   -4.1595 C.3       3 GLC5        0.0000 
     59 CA         62.0270   60.0450   -3.6260 C.3       9 GLL5        0.0000 
     60 CA         63.3280   61.2185   -0.9850 C.3       3 GLC5        0.0000 
     61 CA         63.3790   59.3330   -1.6500 C.3       9 GLL5        0.0000 
     62 CA         63.2770   63.1040   -0.3200 C.3       6 GLP5        0.0000 
     63 CA         62.1770   59.9750   -0.1150 C.3       3 GLC5        0.0000 
     64 CA         60.9750   60.6170    1.4200 C.3       6 GLP5        0.0000 
     65 N          63.3280   60.5765    1.0030 N.am      2 SEC2        0.0000 
     66 N          64.5260   59.8000    1.1110 N.am      8 SEL2        0.0000 
     67 N          62.1300   61.3530    0.8950 N.am      5 SEP2        0.0000 
     68 O          64.7205   59.1435    2.1400 O.2       1 ALC1        0.0000 
     69 O          64.5260   59.8000    1.1110 O.2       7 ALL1        0.0000 
     70 O          64.9150   58.4870    3.1690 O.2       4 ALP1        0.0000 
     71 N          65.2460   62.2005    0.3405 N.am      2 SEC2        0.0000 
     72 N          66.2030   61.3720   -0.0510 N.am      8 SEL2        0.0000 
     73 N          64.2890   63.0290    0.7320 N.am      5 SEP2        0.0000 
     74 N          66.7105   61.7135   -1.2145 N.am      2 SEC2        0.0000 
     75 N          67.2180   62.0550   -2.3780 N.am      5 SEP2        0.0000 
     76 N          66.9735   58.0135    0.5710 N.am      2 SEC2        0.0000 
     77 N          66.3170   58.7650   -0.3530 N.am      8 SEL2        0.0000 
     78 N          67.6300   57.2620    1.4950 N.am      5 SEP2        0.0000 
     79 CA         62.6710   45.4682   -1.0095 C.3       3 GLC5        0.0000 
     80 CA         60.6910   45.7420   -1.4260 C.3       6 GLP5        0.0000 
     81 CA         64.0108   47.5537   -0.7915 C.3       3 GLC5        0.0000 
     82 CA         63.8890   46.1140   -2.1270 C.3       9 GLL5        0.0000 
     83 CA         63.5930   49.2810    0.0820 C.3       6 GLP5        0.0000 
     84 CA         62.4330   46.0258   -2.1210 C.3       3 GLC5        0.0000 
     85 CA         66.3413   45.4870   -3.2447 C.3       3 GLC5        0.0000 
     86 CA         64.3704   44.3514   -3.2780 C.3       3 GLC5        0.0000 
     87 CA         64.2960   42.5370   -3.9710 C.3       6 GLP5        0.0000 
     88 CA         64.3277   48.8250   -1.6675 C.3       3 GLC5        0.0000 
     89 CA         64.4352   50.0938   -1.6365 C.3       3 GLC5        0.0000 
     90 CA         64.9954   50.6085   -5.1647 C.3       3 GLC5        0.0000 
     91 CA         64.9550   50.6090   -6.9660 C.3       6 GLP5        0.0000 
     92 CA         65.5592   58.7840   -4.8490 C.3       3 GLC5        0.0000 
     93 CA         63.3520   58.4340   -5.3560 C.3       9 GLL5        0.0000 
     94 CA         63.4250   60.5987   -6.6589 C.3       3 GLC5        0.0000 
     95 CA         64.4900   62.1470   -6.9040 C.3       6 GLP5        0.0000 
     96 CA         63.5995   59.0358   -7.9199 C.3       3 GLC5        0.0000 
     97 CA         64.8390   59.0210   -9.4260 C.3       6 GLP5        0.0000 
     98 CA         62.2204   57.4813   -4.4130 C.3       3 GLC5        0.0000 
     99 CA         61.1430   56.1220   -4.9170 C.3       6 GLP5        0.0000 
    100 CA         64.6395   60.8447   -2.7567 C.3       3 GLC5        0.0000 
    101 CA         63.0570   59.2500   -3.1310 C.3       9 GLL5        0.0000 
    102 CA         66.0610   62.3980   -3.1230 C.3       6 GLP5        0.0000 
@<TRIPOS>BOND
@<TRIPOS>SUBSTRUCTURE
     1 ALC1       68 GROUP        1 X    ALC  0     ROOT ALC X 1
     2 SEC2       39 GROUP        1 X    SEC  0     **** SEC X 2
     3 GLC5        1 GROUP        1 X    GLC  0     **** GLC X 6
     4 ALP1       70 GROUP        1 Y    ALP  0     ROOT ALP Y 8
     5 SEP2       41 GROUP        1 Y    SEP  0     **** SEP Y 9
     6 GLP5        3 GROUP        1 Y    GLP  0     **** GLP Y 13
     7 ALL1       69 GROUP        1 Z    ALL  0     ROOT ALL Z 15
     8 SEL2       40 GROUP        1 Z    SEL  0     **** SEL Z 16
     9 GLL5        2 GROUP        1 Z    GLL  0     **** GLL Z 20
@<TRIPOS>SET

