#    Name: 2wka_P89_1_ligand
#    Modification time : Tue Mar 25 04:24:59 2014

@<TRIPOS>MOLECULE
2wka_P89_1_ligand
   60    60     1     0     0
SMALL
NO_CHARGES


@<TRIPOS>ATOM
      1 CAA        64.3340   44.8500    0.0170 C.3       1 P89605      0.0000 
      2 CAD        64.9680   45.5390   -1.2030 C.3       1 P89605      0.0000 
      3 CAE        63.8890   46.1140   -2.1270 C.3       1 P89605      0.0000 
      4 CAF        64.4610   46.5050   -3.5050 C.3       1 P89605      0.0000 
      5 CAG        65.4340   47.6950   -3.4460 C.3       1 P89605      0.0000 
      6 CAH        64.6910   49.0430   -3.3880 C.3       1 P89605      0.0000 
      7 CAI        65.6580   50.2370   -3.3540 C.3       1 P89605      0.0000 
      8 CAJ        64.8970   51.5760   -3.3560 C.3       1 P89605      0.0000 
      9 CAK        65.8420   52.7780   -3.2100 C.3       1 P89605      0.0000 
     10 CAL        65.0410   54.0670   -3.4330 C.2       1 P89605      0.0000 
     11 OAC        63.8340   54.0080   -3.6530 O.2       1 P89605      0.0000 
     12 CA         65.6540   55.4520   -3.4120 C.3       1 P89605      0.0000 
     13 N4A        64.6790   56.3220   -3.6700 N.2       1 P89605      0.0000 
     14 C4A        64.8010   57.6210   -3.6500 C.2       1 P89605      0.0000 
     15 C4         63.7250   58.4280   -4.0180 C.ar      1 P89605      0.0000 
     16 C3         63.3520   58.4340   -5.3560 C.ar      1 P89605      0.0000 
     17 O3         64.0110   57.6390   -6.2310 O.3       1 P89605      0.0000 
     18 C2         62.3220   59.2580   -5.7890 C.ar      1 P89605      0.0000 
     19 C2A        61.8830   59.2550   -7.2550 C.3       1 P89605      0.0000 
     20 N1         61.6860   60.0420   -4.9040 N.ar      1 P89605      0.0000 
     21 C6         62.0270   60.0450   -3.6260 C.ar      1 P89605      0.0000 
     22 C5         63.0570   59.2500   -3.1310 C.ar      1 P89605      0.0000 
     23 C5A        63.3790   59.3330   -1.6500 C.3       1 P89605      0.0000 
     24 OP4        64.4830   60.1690   -1.4520 O.3       1 P89605      0.0000 
     25 P          65.4560   59.9610   -0.1780 P.3       1 P89605      0.0000 
     26 OP2        64.5260   59.8000    1.1110 O.3       1 P89605      0.0000 
     27 OP3        66.2030   61.3720   -0.0510 O.3       1 P89605      0.0000 
     28 OP1        66.3170   58.7650   -0.3530 O.3       1 P89605      0.0000 
     29 H          65.5623   44.8130   -1.7525 H         1 P89605      0.0000 
     30 H          65.6145   46.3436   -0.8610 H         1 P89605      0.0000 
     31 H          63.4511   46.9989   -1.6624 H         1 P89605      0.0000 
     32 H          63.1028   45.3707   -2.2690 H         1 P89605      0.0000 
     33 H          63.6295   46.7569   -4.1747 H         1 P89605      0.0000 
     34 H          64.9823   45.6387   -3.9305 H         1 P89605      0.0000 
     35 H          66.0722   47.6786   -4.3306 H         1 P89605      0.0000 
     36 H          66.0637   47.5977   -2.5605 H         1 P89605      0.0000 
     37 H          64.0643   49.0649   -2.4938 H         1 P89605      0.0000 
     38 H          64.0454   49.1306   -4.2645 H         1 P89605      0.0000 
     39 H          66.3079   50.1962   -4.2266 H         1 P89605      0.0000 
     40 H          66.2694   50.1769   -2.4551 H         1 P89605      0.0000 
     41 H          64.1829   51.5797   -2.5299 H         1 P89605      0.0000 
     42 H          64.3429   51.6680   -4.2924 H         1 P89605      0.0000 
     43 H          66.6245   52.7093   -3.9493 H         1 P89605      0.0000 
     44 H          66.2620   52.7838   -2.2164 H         1 P89605      0.0000 
     45 H          66.4659   55.4504   -4.1558 H         1 P89605      0.0000 
     46 H          66.1203   55.5771   -2.4224 H         1 P89605      0.0000 
     47 H          65.6854   58.0943   -3.3653 H         1 P89605      0.0000 
     48 H          61.5196   60.6600   -2.9351 H         1 P89605      0.0000 
     49 H          63.5615   58.3077   -1.2926 H         1 P89605      0.0000 
     50 H          62.4781   59.7011   -1.1351 H         1 P89605      0.0000 
     51 H          65.0264   44.4706    0.6307 H         1 P89605      0.0000 
     52 H          63.7807   45.4849    0.5562 H         1 P89605      0.0000 
     53 H          63.7356   44.0953   -0.2520 H         1 P89605      0.0000 
     54 H          62.6311   59.5110   -7.8672 H         1 P89605      0.0000 
     55 H          61.5626   58.3532   -7.5449 H         1 P89605      0.0000 
     56 H          61.1357   59.8986   -7.4202 H         1 P89605      0.0000 
     57 H          63.9213   56.7150   -5.8592 H         1 P89605      0.0000 
     58 H          65.1154   59.3872    1.8053 H         1 P89605      0.0000 
     59 H          66.8741   61.2446    0.6793 H         1 P89605      0.0000 
     60 H          65.7459   58.1041   -0.8399 H         1 P89605      0.0000 
@<TRIPOS>BOND
     1    2    1 1    
     2   51    1 1    
     3   52    1 1    
     4   53    1 1    
     5    3    2 1    
     6   29    2 1    
     7   30    2 1    
     8    4    3 1    
     9   31    3 1    
    10   32    3 1    
    11    5    4 1    
    12   33    4 1    
    13   34    4 1    
    14    6    5 1    
    15   35    5 1    
    16   36    5 1    
    17    7    6 1    
    18   37    6 1    
    19   38    6 1    
    20    8    7 1    
    21   39    7 1    
    22   40    7 1    
    23    9    8 1    
    24   41    8 1    
    25   42    8 1    
    26   10    9 1    
    27   43    9 1    
    28   44    9 1    
    29   11   10 2    
    30   12   10 1    
    31   13   12 1    
    32   45   12 1    
    33   46   12 1    
    34   14   13 2    
    35   15   14 1    
    36   47   14 1    
    37   16   15 ar   
    38   22   15 ar   
    39   17   16 1    
    40   18   16 ar   
    41   57   17 1    
    42   19   18 1    
    43   20   18 ar   
    44   54   19 1    
    45   55   19 1    
    46   56   19 1    
    47   21   20 ar   
    48   22   21 ar   
    49   48   21 1    
    50   23   22 1    
    51   24   23 1    
    52   49   23 1    
    53   50   23 1    
    54   25   24 1    
    55   26   25 1    
    56   27   25 1    
    57   28   25 1    
    58   58   26 1    
    59   59   27 1    
    60   60   28 1    
@<TRIPOS>SUBSTRUCTURE
     1 P89605      1 GROUP   
@<TRIPOS>SET

