#    Name: 3lcv_SAM_1_INTS_M
#    Modification time : Mon Mar 24 21:29:22 2014

@<TRIPOS>MOLECULE
3lcv_SAM_1_INTS_M
   85     0    12     0     0
SMALL
NO_CHARGES


@<TRIPOS>ATOM
      1 O           9.3210   -0.4735   22.5290 O.2       1 ALC1        0.0000 
      2 O           8.8800   -1.7400   22.9860 O.2       9 ALL1        0.0000 
      3 O           9.7620    0.7930   22.0720 O.2       5 ALP1        0.0000 
      4 O           9.1465   -1.8160   24.2485 O.2       1 ALC1        0.0000 
      5 O           9.4130   -1.8920   25.5110 O.2       5 ALP1        0.0000 
      6 O           9.3665   -2.8265   21.9290 O.2       1 ALC1        0.0000 
      7 O           9.8530   -3.9130   20.8720 O.2       5 ALP1        0.0000 
      8 CA          8.7400    0.0255   23.9480 C.3       4 GLC5        0.0000 
      9 CA          7.4430   -1.4750   23.1020 C.3      12 GLL5        0.0000 
     10 CA         10.0370    1.5260   24.7940 C.3       8 GLP5        0.0000 
     11 NZ          6.4295   -4.3365   24.5115 N.4       3 LYC4        0.0000 
     12 NZ          7.0640   -3.8230   23.0130 N.4      11 LYL4        0.0000 
     13 NZ          5.8890   -6.1440   25.7790 N.4       7 LYP4        0.0000 
     14 N           6.6470   -5.1970   23.7925 N.am      2 SEC2        0.0000 
     15 N           7.0640   -3.8230   23.0130 N.am     10 SEL2        0.0000 
     16 N           6.2300   -6.5710   24.5720 N.am      6 SEP2        0.0000 
     17 N           6.4295   -4.3365   24.5115 N.am      2 SEC2        0.0000 
     18 N           5.7950   -4.8500   26.0100 N.am      6 SEP2        0.0000 
     19 NZ          5.6530   -3.8525   25.1425 N.4       3 LYC4        0.0000 
     20 NZ          5.5110   -2.8550   24.2750 N.4      11 LYL4        0.0000 
     21 N           5.6530   -3.8525   25.1425 N.am      2 SEC2        0.0000 
     22 N           5.5110   -2.8550   24.2750 N.am     10 SEL2        0.0000 
     23 CA          7.1860   -3.7360   19.8850 C.3       4 GLC5        0.0000 
     24 CA          6.8360   -1.7890   20.4270 C.3      12 GLL5        0.0000 
     25 CA          7.5360   -5.6830   19.3430 C.3       8 GLP5        0.0000 
     26 CA          4.8005   -1.5265   16.5895 C.3       4 GLC5        0.0000 
     27 CA          5.7510   -2.2890   17.8130 C.3      12 GLL5        0.0000 
     28 CA          3.8500   -0.7640   15.3660 C.3       8 GLP5        0.0000 
     29 CA          6.6435   -3.9860   18.5780 C.3       4 GLC5        0.0000 
     30 CA          9.6160    1.2460   19.5050 C.3       4 GLC5        0.0000 
     31 CA          7.5660    1.1460   18.8760 C.3      12 GLL5        0.0000 
     32 CA         11.6660    1.3460   20.1340 C.3       8 GLP5        0.0000 
     33 CA          5.0370    1.8280   17.6090 C.3       4 GLC5        0.0000 
     34 CA          6.6900    2.3680   18.6720 C.3      12 GLL5        0.0000 
     35 CA          3.3840    1.2880   16.5460 C.3       8 GLP5        0.0000 
     36 N           5.0005    2.3390   20.7710 N.am      2 SEC2        0.0000 
     37 N           6.3920    2.6690   20.0790 N.am     10 SEL2        0.0000 
     38 N           3.6090    2.0090   21.4630 N.am      6 SEP2        0.0000 
     39 N           5.2750    3.3495   19.4215 N.am      2 SEC2        0.0000 
     40 N           4.1580    4.0300   18.7640 N.am      6 SEP2        0.0000 
     41 N           7.3880    3.4030   21.0805 N.am      2 SEC2        0.0000 
     42 N           8.3840    4.1370   22.0820 N.am      6 SEP2        0.0000 
     43 O           8.1735    5.2265   19.6115 O.2       1 ALC1        0.0000 
     44 O           7.4540    4.8020   18.6330 O.2       9 ALL1        0.0000 
     45 O           8.8930    5.6510   20.5900 O.2       5 ALP1        0.0000 
     46 CA         10.3180    2.0900   19.1220 C.3       4 GLC5        0.0000 
     47 CA          8.9700    2.8340   18.1100 C.3      12 GLL5        0.0000 
     48 N          10.7665    3.4440   13.7715 N.am      2 SEC2        0.0000 
     49 N          10.5600    3.9520   15.1560 N.am     10 SEL2        0.0000 
     50 N          10.9730    2.9360   12.3870 N.am      6 SEP2        0.0000 
     51 CA         14.1855    6.3375   16.6390 C.3       4 GLC5        0.0000 
     52 CA         12.7790    4.8310   15.9010 C.3      12 GLL5        0.0000 
     53 CA         15.5920    7.8440   17.3770 C.3       8 GLP5        0.0000 
     54 CA         13.6160    3.0085   15.1600 C.3       4 GLC5        0.0000 
     55 CA         14.4530    1.1860   14.4190 C.3       8 GLP5        0.0000 
     56 O          14.4755    6.0845   14.6575 O.2       1 ALC1        0.0000 
     57 O          13.2910    5.0970   14.7300 O.2       9 ALL1        0.0000 
     58 O          15.6600    7.0720   14.5850 O.2       5 ALP1        0.0000 
     59 O          12.6760    4.9085   13.1490 O.2       1 ALC1        0.0000 
     60 O          12.0610    4.7200   11.5680 O.2       5 ALP1        0.0000 
     61 N          14.9855    5.3280   17.1345 N.am      2 SEC2        0.0000 
     62 N          13.5220    5.0850   17.0170 N.am     10 SEL2        0.0000 
     63 N          16.4490    5.5710   17.2520 N.am      6 SEP2        0.0000 
     64 CA         12.3265    3.0750   19.1855 C.3       4 GLC5        0.0000 
     65 CA         12.9870    4.8040   18.2370 C.3      12 GLL5        0.0000 
     66 CA         12.6700    6.6340   17.7545 C.3       4 GLC5        0.0000 
     67 CA         12.3530    8.4640   17.2720 C.3       8 GLP5        0.0000 
     68 CA         14.2895    6.3240   17.8070 C.3       4 GLC5        0.0000 
     69 CA         14.6005    3.7830   18.3990 C.3       4 GLC5        0.0000 
     70 CA         16.2140    2.7620   18.5610 C.3       8 GLP5        0.0000 
     71 CA         11.3285    2.6845   18.7035 C.3       4 GLC5        0.0000 
     72 CA         10.9910    4.0230   17.2730 C.3      12 GLL5        0.0000 
     73 CA         10.4975    6.1080   17.7020 C.3       4 GLC5        0.0000 
     74 CA         10.0040    8.1930   18.1310 C.3       8 GLP5        0.0000 
     75 CA          6.7683    0.5710   23.2835 C.3       4 GLC5        0.0000 
     76 CA          6.8680   -0.9090   21.6660 C.3      12 GLL5        0.0000 
     77 CA          6.3810    2.3340   24.1830 C.3       8 GLP5        0.0000 
     78 CA          5.1630   -1.9725   21.1598 C.3       4 GLC5        0.0000 
     79 CA          3.4740   -2.5960   21.2730 C.3       8 GLP5        0.0000 
     80 CA          5.3502    0.0197   17.1155 C.3       4 GLC5        0.0000 
     81 CA          6.1850   -0.9500   18.9480 C.3      12 GLL5        0.0000 
     82 CA          4.1290    0.5800   15.6000 C.3       8 GLP5        0.0000 
     83 CA          4.7210   -2.1078   19.8268 C.3       4 GLC5        0.0000 
     84 CA         12.2412    6.5118   16.6232 C.3       4 GLC5        0.0000 
     85 CA         11.4800    4.2880   16.0480 C.3      12 GLL5        0.0000 
@<TRIPOS>BOND
@<TRIPOS>SUBSTRUCTURE
     1 ALC1        1 GROUP        1 X    ALC  0     ROOT ALC X 1
     2 SEC2       14 GROUP        1 X    SEC  0     **** SEC X 2
     3 LYC4       11 GROUP        1 X    LYC  0     **** LYC X 4
     4 GLC5        8 GROUP        1 X    GLC  0     **** GLC X 6
     5 ALP1        3 GROUP        1 Y    ALP  0     ROOT ALP Y 8
     6 SEP2       16 GROUP        1 Y    SEP  0     **** SEP Y 9
     7 LYP4       13 GROUP        1 Y    LYP  0     **** LYP Y 11
     8 GLP5       10 GROUP        1 Y    GLP  0     **** GLP Y 13
     9 ALL1        2 GROUP        1 Z    ALL  0     ROOT ALL Z 15
    10 SEL2       15 GROUP        1 Z    SEL  0     **** SEL Z 16
    11 LYL4       12 GROUP        1 Z    LYL  0     **** LYL Z 18
    12 GLL5        9 GROUP        1 Z    GLL  0     **** GLL Z 20
@<TRIPOS>SET

