#    Name: 3lcv_SAM_1_ligand
#    Modification time : Mon Mar 24 21:29:22 2014

@<TRIPOS>MOLECULE
3lcv_SAM_1_ligand
   50    52     1     0     0
SMALL
NO_CHARGES


@<TRIPOS>ATOM
      1 N           8.8800   -1.7400   22.9860 N.4       1 SAM301      0.0000 
      2 CA          7.4430   -1.4750   23.1020 C.3       1 SAM301      0.0000 
      3 C           6.6850   -2.7520   23.4550 C.2       1 SAM301      0.0000 
      4 O           7.0640   -3.8230   23.0130 O.co2     1 SAM301      0.0000 
      5 OXT         5.5110   -2.8550   24.2750 O.co2     1 SAM301      0.0000 
      6 CB          6.8680   -0.9090   21.6660 C.3       1 SAM301      0.0000 
      7 CG          6.8360   -1.7890   20.4270 C.3       1 SAM301      0.0000 
      8 SD          6.1850   -0.9500   18.9480 S.3       1 SAM301      0.0000 
      9 CE          5.7510   -2.2890   17.8130 C.3       1 SAM301      0.0000 
     10 C5'         6.9580   -0.1310   18.3140 C.3       1 SAM301      0.0000 
     11 C4'         7.5660    1.1460   18.8760 C.3       1 SAM301      0.0000 
     12 O4'         8.8050    1.4340   18.1900 O.3       1 SAM301      0.0000 
     13 C3'         6.6900    2.3680   18.6720 C.3       1 SAM301      0.0000 
     14 O3'         6.3920    2.6690   20.0790 O.3       1 SAM301      0.0000 
     15 C2'         7.5610    3.4890   18.1150 C.3       1 SAM301      0.0000 
     16 O2'         7.4540    4.8020   18.6330 O.3       1 SAM301      0.0000 
     17 C1'         8.9700    2.8340   18.1100 C.3       1 SAM301      0.0000 
     18 N9          9.7170    3.4880   17.1450 N.pl3     1 SAM301      0.0000 
     19 C8          9.4990    3.4780   15.7830 C.2       1 SAM301      0.0000 
     20 N7         10.5600    3.9520   15.1560 N.2       1 SAM301      0.0000 
     21 C5         11.4800    4.2880   16.0480 C.ar      1 SAM301      0.0000 
     22 C6         12.7790    4.8310   15.9010 C.ar      1 SAM301      0.0000 
     23 N6         13.2910    5.0970   14.7300 N.pl3     1 SAM301      0.0000 
     24 N1         13.5220    5.0850   17.0170 N.ar      1 SAM301      0.0000 
     25 C2         12.9870    4.8040   18.2370 C.ar      1 SAM301      0.0000 
     26 N3         11.7460    4.2810   18.3600 N.ar      1 SAM301      0.0000 
     27 C4         10.9910    4.0230   17.2730 C.ar      1 SAM301      0.0000 
     28 H           7.2294   -0.7181   23.8186 H         1 SAM301      0.0000 
     29 H           7.4607    0.0259   21.4589 H         1 SAM301      0.0000 
     30 H           5.8337   -0.5260   21.8929 H         1 SAM301      0.0000 
     31 H           6.1742   -2.6359   20.5137 H         1 SAM301      0.0000 
     32 H           7.8118   -2.1047   20.0942 H         1 SAM301      0.0000 
     33 H           6.4745    0.2256   17.2893 H         1 SAM301      0.0000 
     34 H           7.8908   -0.6889   17.8348 H         1 SAM301      0.0000 
     35 H           7.7489    1.0253   19.9274 H         1 SAM301      0.0000 
     36 H           5.8818    2.1598   18.1258 H         1 SAM301      0.0000 
     37 H           7.2987    3.4838   16.9886 H         1 SAM301      0.0000 
     38 H           9.3552    3.1920   19.1536 H         1 SAM301      0.0000 
     39 H           8.6718    3.1610   15.3759 H         1 SAM301      0.0000 
     40 H          13.0076    4.4996   13.9799 H         1 SAM301      0.0000 
     41 H          13.9196    5.8738   14.6907 H         1 SAM301      0.0000 
     42 H          13.5535    4.9990   19.0988 H         1 SAM301      0.0000 
     43 H           9.2618   -2.0967   23.8386 H         1 SAM301      0.0000 
     44 H           9.0773   -2.4123   22.2725 H         1 SAM301      0.0000 
     45 H           9.3932   -0.9123   22.7588 H         1 SAM301      0.0000 
     46 H           6.5454   -2.8495   17.5788 H         1 SAM301      0.0000 
     47 H           5.0656   -2.9018   18.2064 H         1 SAM301      0.0000 
     48 H           5.3746   -1.9408   16.9545 H         1 SAM301      0.0000 
     49 H           6.7380    1.8826   20.5907 H         1 SAM301      0.0000 
     50 H           8.1254    4.8437   19.3729 H         1 SAM301      0.0000 
@<TRIPOS>BOND
     1    2    1 1    
     2   43    1 1    
     3   44    1 1    
     4   45    1 1    
     5    3    2 1    
     6    6    2 1    
     7   28    2 1    
     8    4    3 ar   
     9    5    3 ar   
    10    7    6 1    
    11   29    6 1    
    12   30    6 1    
    13    8    7 1    
    14   31    7 1    
    15   32    7 1    
    16    9    8 1    
    17   10    8 1    
    18   46    9 1    
    19   47    9 1    
    20   48    9 1    
    21   11   10 1    
    22   33   10 1    
    23   34   10 1    
    24   12   11 1    
    25   13   11 1    
    26   35   11 1    
    27   17   12 1    
    28   14   13 1    
    29   15   13 1    
    30   36   13 1    
    31   49   14 1    
    32   16   15 1    
    33   17   15 1    
    34   37   15 1    
    35   50   16 1    
    36   18   17 1    
    37   38   17 1    
    38   19   18 1    
    39   27   18 1    
    40   20   19 2    
    41   39   19 1    
    42   21   20 1    
    43   22   21 ar   
    44   27   21 ar   
    45   23   22 1    
    46   24   22 ar   
    47   40   23 1    
    48   41   23 1    
    49   25   24 ar   
    50   26   25 ar   
    51   42   25 1    
    52   27   26 ar   
@<TRIPOS>SUBSTRUCTURE
     1 SAM301      1 GROUP   
@<TRIPOS>SET

