#    Name: 3had_NAD_1_INTS_M
#    Modification time : Tue Mar 25 13:48:38 2014

@<TRIPOS>MOLECULE
3had_NAD_1_INTS_M
   80     0     9     0     0
SMALL
NO_CHARGES


@<TRIPOS>ATOM
      1 N          40.3165   35.0090   31.9415 N.am      2 SEC2        0.0000 
      2 N          41.7270   35.0920   31.6440 N.am      8 SEL2        0.0000 
      3 N          38.9060   34.9260   32.2390 N.am      5 SEP2        0.0000 
      4 CA         39.6065   37.7925   26.5085 C.3       3 GLC5        0.0000 
      5 CA         41.2480   36.7620   27.1600 C.3       9 GLL5        0.0000 
      6 CA         37.9650   38.8230   25.8570 C.3       6 GLP5        0.0000 
      7 CA         40.3170   35.1870   28.1655 C.3       3 GLC5        0.0000 
      8 CA         41.7950   35.4360   26.5140 C.3       9 GLL5        0.0000 
      9 CA         38.8390   34.9380   29.8170 C.3       6 GLP5        0.0000 
     10 O          39.7745   34.9440   25.4450 O.2       1 ALC1        0.0000 
     11 O          40.6400   34.4850   26.3640 O.2       7 ALL1        0.0000 
     12 O          38.9090   35.4030   24.5260 O.2       4 ALP1        0.0000 
     13 N          43.2980   35.3230   23.0095 N.am      2 SEC2        0.0000 
     14 N          42.3680   34.9080   24.1450 N.am      8 SEL2        0.0000 
     15 N          44.2280   35.7380   21.8740 N.am      5 SEP2        0.0000 
     16 O          41.2355   34.9420   23.4445 O.2       1 ALC1        0.0000 
     17 O          42.3680   34.9080   24.1450 O.2       7 ALL1        0.0000 
     18 O          40.1030   34.9760   22.7440 O.2       4 ALP1        0.0000 
     19 CA         39.8690   37.9855   25.3855 C.3       3 GLC5        0.0000 
     20 CA         41.7730   37.1480   24.9140 C.3       9 GLL5        0.0000 
     21 CA         41.9425   39.3125   25.1300 C.3       3 GLC5        0.0000 
     22 CA         42.1120   41.4770   25.3460 C.3       6 GLP5        0.0000 
     23 CA         42.6825   40.4365   23.8940 C.3       3 GLC5        0.0000 
     24 CA         43.2530   39.3960   22.4420 C.3       9 GLL5        0.0000 
     25 CA         43.0070   41.7325   22.4505 C.3       3 GLC5        0.0000 
     26 CA         43.0190   40.2380   21.2150 C.3       9 GLL5        0.0000 
     27 CA         42.9950   43.2270   23.6860 C.3       6 GLP5        0.0000 
     28 CA         39.3390   40.8140   21.9135 C.3       3 GLC5        0.0000 
     29 CA         40.6820   39.5160   21.3240 C.3       9 GLL5        0.0000 
     30 CA         37.9960   42.1120   22.5030 C.3       6 GLP5        0.0000 
     31 CA         39.2385   37.8890   21.3360 C.3       3 GLC5        0.0000 
     32 CA         37.7950   36.2620   21.3480 C.3       6 GLP5        0.0000 
     33 CA         41.5485   37.7915   20.8140 C.3       3 GLC5        0.0000 
     34 CA         42.4150   36.0670   20.3040 C.3       6 GLP5        0.0000 
     35 CA         40.7170   40.4720   23.0050 C.3       3 GLC5        0.0000 
     36 CA         40.7520   41.4280   24.6860 C.3       6 GLP5        0.0000 
     37 CA         41.4515   40.0565   23.8375 C.3       3 GLC5        0.0000 
     38 CA         42.1510   38.6850   22.9890 C.3       9 GLL5        0.0000 
     39 N          39.0590   37.7030   32.8005 N.am      2 SEC2        0.0000 
     40 N          40.2650   38.0370   32.2200 N.am      8 SEL2        0.0000 
     41 N          37.8530   37.3690   33.3810 N.am      5 SEP2        0.0000 
     42 CA         41.9025   40.7970   29.0490 C.3       3 GLC5        0.0000 
     43 CA         41.8380   40.4580   31.2440 C.3       9 GLL5        0.0000 
     44 CA         41.9670   41.1360   26.8540 C.3       6 GLP5        0.0000 
     45 N          39.9100   42.8060   33.1515 N.am      2 SEC2        0.0000 
     46 N          41.2240   42.2610   32.7640 N.am      8 SEL2        0.0000 
     47 N          38.5960   43.3510   33.5390 N.am      5 SEP2        0.0000 
     48 N          43.7550   44.3830   29.9495 N.am      2 SEC2        0.0000 
     49 N          43.4640   43.8450   31.2490 N.am      8 SEL2        0.0000 
     50 N          44.0460   44.9210   28.6500 N.am      5 SEP2        0.0000 
     51 O          44.4690   44.4795   31.3335 O.2       1 ALC1        0.0000 
     52 O          43.4640   43.8450   31.2490 O.2       7 ALL1        0.0000 
     53 O          45.4740   45.1140   31.4180 O.2       4 ALP1        0.0000 
     54 CA         42.2560   45.0400   33.1790 C.3       3 GLC5        0.0000 
     55 CA         42.0770   42.9540   33.7690 C.3       9 GLL5        0.0000 
     56 CA         42.4350   47.1260   32.5890 C.3       6 GLP5        0.0000 
     57 CA         39.3420   40.7370   37.0650 C.3       3 GLC5        0.0000 
     58 CA         40.4960   41.8930   37.6920 C.3       9 GLL5        0.0000 
     59 CA         38.1880   39.5810   36.4380 C.3       6 GLP5        0.0000 
     60 CA         38.6980   42.0970   36.7255 C.3       3 GLC5        0.0000 
     61 CA         40.2020   43.0930   37.0000 C.3       9 GLL5        0.0000 
     62 CA         37.1940   41.1010   36.4510 C.3       6 GLP5        0.0000 
     63 CA         39.8370   41.5690   35.2925 C.3       3 GLC5        0.0000 
     64 CA         40.6780   43.4380   35.7930 C.3       9 GLL5        0.0000 
     65 CA         38.9960   39.7000   34.7920 C.3       6 GLP5        0.0000 
     66 CA         42.3540   44.5645   36.3605 C.3       3 GLC5        0.0000 
     67 CA         44.0300   45.6910   36.9280 C.3       6 GLP5        0.0000 
     68 CA         40.2182   35.9680   28.8040 C.3       3 GLC5        0.0000 
     69 CA         41.9470   37.2340   28.4220 C.3       9 GLL5        0.0000 
     70 CA         41.7823   39.0670   27.3225 C.3       3 GLC5        0.0000 
     71 CA         42.5293   37.6590   21.3564 C.3       3 GLC5        0.0000 
     72 CA         40.5100   41.8778   30.1662 C.3       3 GLC5        0.0000 
     73 CA         39.1240   42.5570   28.9570 C.3       6 GLP5        0.0000 
     74 CA         45.4095   42.8065   31.9655 C.3       3 GLC5        0.0000 
     75 CA         43.3740   42.5220   31.8130 C.3       9 GLL5        0.0000 
     76 CA         47.3650   43.0590   31.3560 C.3       6 GLP5        0.0000 
     77 CA         40.3345   40.4228   35.5653 C.3       3 GLC5        0.0000 
     78 CA         41.9330   41.2950   35.7210 C.3       9 GLL5        0.0000 
     79 CA         40.0895   45.0318   36.7172 C.3       3 GLC5        0.0000 
     80 CA         39.7390   46.7980   37.0380 C.3       6 GLP5        0.0000 
@<TRIPOS>BOND
@<TRIPOS>SUBSTRUCTURE
     1 ALC1       10 GROUP        1 X    ALC  0     ROOT ALC X 1
     2 SEC2        1 GROUP        1 X    SEC  0     **** SEC X 2
     3 GLC5        4 GROUP        1 X    GLC  0     **** GLC X 6
     4 ALP1       12 GROUP        1 Y    ALP  0     ROOT ALP Y 8
     5 SEP2        3 GROUP        1 Y    SEP  0     **** SEP Y 9
     6 GLP5        6 GROUP        1 Y    GLP  0     **** GLP Y 13
     7 ALL1       11 GROUP        1 Z    ALL  0     ROOT ALL Z 15
     8 SEL2        2 GROUP        1 Z    SEL  0     **** SEL Z 16
     9 GLL5        5 GROUP        1 Z    GLL  0     **** GLL Z 20
@<TRIPOS>SET

