#    Name: 3had_NAD_1_ligand
#    Modification time : Tue Mar 25 13:48:38 2014

@<TRIPOS>MOLECULE
3had_NAD_1_ligand
   70    74     1     0     0
SMALL
NO_CHARGES


@<TRIPOS>ATOM
      1 PA         42.5700   36.0450   30.7790 P.3       1 NAD350      0.0000 
      2 O1A        43.9510   35.7050   30.4100 O.co2     1 NAD350      0.0000 
      3 O2A        41.7270   35.0920   31.6440 O.co2     1 NAD350      0.0000 
      4 O5B        41.6190   36.2550   29.4700 O.3       1 NAD350      0.0000 
      5 C5B        41.9470   37.2340   28.4220 C.3       1 NAD350      0.0000 
      6 C4B        41.2480   36.7620   27.1600 C.3       1 NAD350      0.0000 
      7 O4B        41.6150   37.8020   26.1430 O.3       1 NAD350      0.0000 
      8 C3B        41.7950   35.4360   26.5140 C.3       1 NAD350      0.0000 
      9 O3B        40.6400   34.4850   26.3640 O.3       1 NAD350      0.0000 
     10 C2B        42.4210   35.7610   25.1860 C.3       1 NAD350      0.0000 
     11 O2B        42.3680   34.9080   24.1450 O.3       1 NAD350      0.0000 
     12 C1B        41.7730   37.1480   24.9140 C.3       1 NAD350      0.0000 
     13 N9A        42.6360   37.9800   24.1200 N.pl3     1 NAD350      0.0000 
     14 C8A        43.9600   38.3400   24.1300 C.2       1 NAD350      0.0000 
     15 N7A        44.3550   39.1600   23.1720 N.2       1 NAD350      0.0000 
     16 C5A        43.2530   39.3960   22.4420 C.ar      1 NAD350      0.0000 
     17 C6A        43.0190   40.2380   21.2150 C.ar      1 NAD350      0.0000 
     18 N6A        43.9450   40.9350   20.6170 N.pl3     1 NAD350      0.0000 
     19 N1A        41.7210   40.1820   20.8100 N.ar      1 NAD350      0.0000 
     20 C2A        40.6820   39.5160   21.3240 C.ar      1 NAD350      0.0000 
     21 N3A        40.8480   38.7050   22.4790 N.ar      1 NAD350      0.0000 
     22 C4A        42.1510   38.6850   22.9890 C.ar      1 NAD350      0.0000 
     23 O3         42.5190   37.4140   31.4870 O.3       1 NAD350      0.0000 
     24 PN         41.7210   38.2060   32.5490 P.3       1 NAD350      0.0000 
     25 O1N        42.1290   37.7820   33.8950 O.co2     1 NAD350      0.0000 
     26 O2N        40.2650   38.0370   32.2200 O.co2     1 NAD350      0.0000 
     27 O5D        42.1470   39.7600   32.5210 O.3       1 NAD350      0.0000 
     28 C5D        41.8380   40.4580   31.2440 C.3       1 NAD350      0.0000 
     29 C4D        41.9540   41.9390   31.5070 C.3       1 NAD350      0.0000 
     30 O4D        41.2240   42.2610   32.7640 O.3       1 NAD350      0.0000 
     31 C3D        43.3740   42.5220   31.8130 C.3       1 NAD350      0.0000 
     32 O3D        43.4640   43.8450   31.2490 O.3       1 NAD350      0.0000 
     33 C2D        43.5340   42.5860   33.3370 C.3       1 NAD350      0.0000 
     34 O2D        44.5050   43.4850   33.8290 O.3       1 NAD350      0.0000 
     35 C1D        42.0770   42.9540   33.7690 C.3       1 NAD350      0.0000 
     36 N1N        41.5710   42.5140   35.1310 N.pl3     1 NAD350      0.0000 
     37 C2N        41.9330   41.2950   35.7210 C.ar      1 NAD350      0.0000 
     38 C3N        41.4130   40.9960   36.9560 C.ar      1 NAD350      0.0000 
     39 C7N        41.7690   39.6820   37.6460 C.2       1 NAD350      0.0000 
     40 O7N        42.1390   39.5470   38.7980 O.2       1 NAD350      0.0000 
     41 N7N        41.6130   38.5570   36.7850 N.am      1 NAD350      0.0000 
     42 C4N        40.4960   41.8930   37.6920 C.ar      1 NAD350      0.0000 
     43 C5N        40.2020   43.0930   37.0000 C.ar      1 NAD350      0.0000 
     44 C6N        40.6780   43.4380   35.7930 C.ar      1 NAD350      0.0000 
     45 H          43.0100   37.2651   28.2437 H         1 NAD350      0.0000 
     46 H          41.5787   38.2136   28.6818 H         1 NAD350      0.0000 
     47 H          40.2210   36.7238   27.2582 H         1 NAD350      0.0000 
     48 H          42.5210   35.0329   27.1823 H         1 NAD350      0.0000 
     49 H          43.4889   36.0655   25.4531 H         1 NAD350      0.0000 
     50 H          40.8380   36.9846   24.4309 H         1 NAD350      0.0000 
     51 H          44.5863   37.9802   24.8496 H         1 NAD350      0.0000 
     52 H          44.8575   40.8953   21.0241 H         1 NAD350      0.0000 
     53 H          43.6573   41.4450   19.8064 H         1 NAD350      0.0000 
     54 H          39.7360   39.5669   20.9056 H         1 NAD350      0.0000 
     55 H          40.8320   40.2274   30.9252 H         1 NAD350      0.0000 
     56 H          42.5463   40.1721   30.4802 H         1 NAD350      0.0000 
     57 H          41.5222   42.5198   30.7203 H         1 NAD350      0.0000 
     58 H          44.0931   41.8562   31.4132 H         1 NAD350      0.0000 
     59 H          43.6710   41.5577   33.6734 H         1 NAD350      0.0000 
     60 H          41.9365   44.0109   33.6330 H         1 NAD350      0.0000 
     61 H          42.5625   40.6607   35.2380 H         1 NAD350      0.0000 
     62 H          41.3154   38.7555   35.8512 H         1 NAD350      0.0000 
     63 H          41.8142   37.6638   37.1872 H         1 NAD350      0.0000 
     64 H          40.1488   41.6546   38.5585 H         1 NAD350      0.0000 
     65 H          39.5389   43.7658   37.5081 H         1 NAD350      0.0000 
     66 H          40.4484   44.3047   35.3217 H         1 NAD350      0.0000 
     67 H          40.0509   34.9008   25.6712 H         1 NAD350      0.0000 
     68 H          41.4642   35.0489   23.7409 H         1 NAD350      0.0000 
     69 H          44.0837   44.3431   31.8555 H         1 NAD350      0.0000 
     70 H          45.2423   42.9051   34.1756 H         1 NAD350      0.0000 
@<TRIPOS>BOND
     1    2    1 ar   
     2    3    1 ar   
     3    4    1 1    
     4   23    1 1    
     5    5    4 1    
     6    6    5 1    
     7   45    5 1    
     8   46    5 1    
     9    7    6 1    
    10    8    6 1    
    11   47    6 1    
    12   12    7 1    
    13    9    8 1    
    14   10    8 1    
    15   48    8 1    
    16   67    9 1    
    17   11   10 1    
    18   12   10 1    
    19   49   10 1    
    20   68   11 1    
    21   13   12 1    
    22   50   12 1    
    23   14   13 1    
    24   22   13 1    
    25   15   14 2    
    26   51   14 1    
    27   16   15 1    
    28   17   16 ar   
    29   22   16 ar   
    30   18   17 1    
    31   19   17 ar   
    32   52   18 1    
    33   53   18 1    
    34   20   19 ar   
    35   21   20 ar   
    36   54   20 1    
    37   22   21 ar   
    38   24   23 1    
    39   25   24 ar   
    40   26   24 ar   
    41   27   24 1    
    42   28   27 1    
    43   29   28 1    
    44   55   28 1    
    45   56   28 1    
    46   30   29 1    
    47   31   29 1    
    48   57   29 1    
    49   35   30 1    
    50   32   31 1    
    51   33   31 1    
    52   58   31 1    
    53   69   32 1    
    54   34   33 1    
    55   35   33 1    
    56   59   33 1    
    57   70   34 1    
    58   36   35 1    
    59   60   35 1    
    60   37   36 ar   
    61   44   36 ar   
    62   38   37 ar   
    63   61   37 1    
    64   39   38 1    
    65   42   38 ar   
    66   40   39 2    
    67   41   39 am   
    68   62   41 1    
    69   63   41 1    
    70   43   42 ar   
    71   64   42 1    
    72   44   43 ar   
    73   65   43 1    
    74   66   44 1    
@<TRIPOS>SUBSTRUCTURE
     1 NAD350      1 GROUP   
@<TRIPOS>SET

