#    Name: 1ke6_LS2_1_INTS_M
#    Modification time : Tue Mar 25 09:51:16 2014

@<TRIPOS>MOLECULE
1ke6_LS2_1_INTS_M
   54     0     9     0     0
SMALL
NO_CHARGES


@<TRIPOS>ATOM
      1 O          25.8265   16.8640   13.4100 O.2       1 ALC1        0.0000 
      2 O          26.5500   15.5690   13.4080 O.2       7 ALL1        0.0000 
      3 O          25.1030   18.1590   13.4120 O.2       4 ALP1        0.0000 
      4 CA         28.2125   11.6205   16.7255 C.3       3 GLC5        0.0000 
      5 CA         29.2930   13.1430   15.6760 C.3       9 GLL5        0.0000 
      6 CA         27.1320   10.0980   17.7750 C.3       6 GLP5        0.0000 
      7 N          24.7695   15.7515   10.6080 N.am      2 SEC2        0.0000 
      8 N          25.2610   14.8730   11.5720 N.am      8 SEL2        0.0000 
      9 N          24.2780   16.6300    9.6440 N.am      5 SEP2        0.0000 
     10 CA         28.0830   10.5795   15.9195 C.3       3 GLC5        0.0000 
     11 CA         29.0340   11.0610   14.0640 C.3       9 GLL5        0.0000 
     12 O          25.3385   13.2120    9.5895 O.2       1 ALC1        0.0000 
     13 O          26.1900   12.2200   10.6240 O.2       7 ALL1        0.0000 
     14 O          24.4870   14.2040    8.5550 O.2       4 ALP1        0.0000 
     15 CA         24.0375   12.4025    7.5720 C.3       3 GLC5        0.0000 
     16 CA         24.6700   11.0850    9.1060 C.3       9 GLL5        0.0000 
     17 CA         23.4050   13.7200    6.0380 C.3       6 GLP5        0.0000 
     18 CA         28.6745   10.0780    8.6295 C.3       3 GLC5        0.0000 
     19 CA         26.8640    9.9290    9.8230 C.3       9 GLL5        0.0000 
     20 CA         30.4850   10.2270    7.4360 C.3       6 GLP5        0.0000 
     21 O          28.6215    7.2955    7.3585 O.2       1 ALC1        0.0000 
     22 O          27.4280    6.5770    6.7500 O.2       7 ALL1        0.0000 
     23 O          29.8150    8.0140    7.9670 O.2       4 ALP1        0.0000 
     24 CA         28.1800    6.1935    5.6075 C.3       3 GLC5        0.0000 
     25 CA         27.4910    5.3730    7.5610 C.3       9 GLL5        0.0000 
     26 CA         28.8690    7.0140    3.6540 C.3       6 GLP5        0.0000 
     27 CA         26.6777   12.0750   15.2767 C.3       3 GLC5        0.0000 
     28 CA         28.5820   12.6570   14.4330 C.3       9 GLL5        0.0000 
     29 CA         25.2370   11.0350   16.4550 C.3       6 GLP5        0.0000 
     30 CA         30.4448   14.1465   14.3387 C.3       3 GLC5        0.0000 
     31 CA         31.9520   15.3930   13.6230 C.3       6 GLP5        0.0000 
     32 CA         30.2910   15.1835   14.7052 C.3       3 GLC5        0.0000 
     33 CA         28.1730   15.4350   15.4190 C.3       9 GLL5        0.0000 
     34 CA         28.2425   17.0533   14.3077 C.3       3 GLC5        0.0000 
     35 CA         27.4450   14.9380   14.2280 C.3       9 GLL5        0.0000 
     36 CA         28.6760   18.9200   13.7920 C.3       6 GLP5        0.0000 
     37 CA         27.1583   16.4255   15.9724 C.3       3 GLC5        0.0000 
     38 CA         26.2790   17.8950   16.9370 C.3       6 GLP5        0.0000 
     39 CA         28.4044   14.6267   12.5386 C.3       3 GLC5        0.0000 
     40 CA         29.0270   15.2270   10.9140 C.3       6 GLP5        0.0000 
     41 CA         25.8125   14.6719   14.8114 C.3       3 GLC5        0.0000 
     42 CA         27.6550   13.5730   13.7640 C.3       9 GLL5        0.0000 
     43 CA         23.8930   14.9640   15.3290 C.3       6 GLP5        0.0000 
     44 CA         25.1965   10.1015   10.9977 C.3       3 GLC5        0.0000 
     45 CA         25.9420   11.1170    9.8670 C.3       9 GLL5        0.0000 
     46 CA         25.0870    9.1020   12.5090 C.3       6 GLP5        0.0000 
     47 CA         28.0090   11.9020    9.6475 C.3       3 GLC5        0.0000 
     48 CA         29.6150   13.2810    9.4500 C.3       6 GLP5        0.0000 
     49 CA         25.5265   11.1590    6.9287 C.3       3 GLC5        0.0000 
     50 CA         26.5810   11.8500    5.1070 C.3       6 GLP5        0.0000 
     51 CA         24.9045    9.1800   10.4563 C.3       3 GLC5        0.0000 
     52 CA         24.2740    9.8510    8.3950 C.3       9 GLL5        0.0000 
     53 CA         25.8663    9.2060   11.0077 C.3       3 GLC5        0.0000 
     54 CA         26.4270    8.6910    9.1900 C.3       9 GLL5        0.0000 
@<TRIPOS>BOND
@<TRIPOS>SUBSTRUCTURE
     1 ALC1        1 GROUP        1 X    ALC  0     ROOT ALC X 1
     2 SEC2        7 GROUP        1 X    SEC  0     **** SEC X 2
     3 GLC5        4 GROUP        1 X    GLC  0     **** GLC X 6
     4 ALP1        3 GROUP        1 Y    ALP  0     ROOT ALP Y 8
     5 SEP2        9 GROUP        1 Y    SEP  0     **** SEP Y 9
     6 GLP5        6 GROUP        1 Y    GLP  0     **** GLP Y 13
     7 ALL1        2 GROUP        1 Z    ALL  0     ROOT ALL Z 15
     8 SEL2        8 GROUP        1 Z    SEL  0     **** SEL Z 16
     9 GLL5        5 GROUP        1 Z    GLL  0     **** GLL Z 20
@<TRIPOS>SET

