#    Name: 1ke6_LS2_1_ligand
#    Modification time : Tue Mar 25 09:51:16 2014

@<TRIPOS>MOLECULE
1ke6_LS2_1_ligand
   42    45     1     0     0
SMALL
NO_CHARGES


@<TRIPOS>ATOM
      1 N1         26.5500   15.5690   13.4080 N.am      1 LS2299      0.0000 
      2 C2         26.0960   14.6940   12.4600 C.2       1 LS2299      0.0000 
      3 C3         26.7910   13.3850   12.6280 C.2       1 LS2299      0.0000 
      4 C4         28.5820   12.6570   14.4330 C.ar      1 LS2299      0.0000 
      5 C5         29.2930   13.1430   15.6760 C.ar      1 LS2299      0.0000 
      6 C6         29.0870   14.5130   16.1560 C.ar      1 LS2299      0.0000 
      7 C7         28.1730   15.4350   15.4190 C.ar      1 LS2299      0.0000 
      8 C8         27.4450   14.9380   14.2280 C.ar      1 LS2299      0.0000 
      9 C9         27.6550   13.5730   13.7640 C.ar      1 LS2299      0.0000 
     10 O11        25.2610   14.8730   11.5720 O.2       1 LS2299      0.0000 
     11 N12        26.5880   12.2050   11.8110 N.2       1 LS2299      0.0000 
     12 S13        29.0340   11.0610   14.0640 S.3       1 LS2299      0.0000 
     13 C14        30.0340   10.9520   15.4460 C.2       1 LS2299      0.0000 
     14 N15        30.0640   12.0930   16.1860 N.2       1 LS2299      0.0000 
     15 N19        26.1900   12.2200   10.6240 N.pl3     1 LS2299      0.0000 
     16 C21        25.9420   11.1170    9.8670 C.ar      1 LS2299      0.0000 
     17 C22        24.6700   11.0850    9.1060 C.ar      1 LS2299      0.0000 
     18 C23        24.2740    9.8510    8.3950 C.ar      1 LS2299      0.0000 
     19 C24        25.1700    8.6650    8.4120 C.ar      1 LS2299      0.0000 
     20 C25        26.4270    8.6910    9.1900 C.ar      1 LS2299      0.0000 
     21 C26        26.8640    9.9290    9.8230 C.ar      1 LS2299      0.0000 
     22 C29        24.8910    7.4670    7.5500 C.3       1 LS2299      0.0000 
     23 S34        26.0100    7.1890    6.1740 S.o2      1 LS2299      0.0000 
     24 O35        26.3310    8.4560    5.5640 O.2       1 LS2299      0.0000 
     25 O36        25.4880    6.1380    5.3390 O.2       1 LS2299      0.0000 
     26 N37        27.4280    6.5770    6.7500 N.pl3     1 LS2299      0.0000 
     27 C39        27.4910    5.3730    7.5610 C.3       1 LS2299      0.0000 
     28 H          26.2794   16.4940   13.4870 H         1 LS2299      0.0000 
     29 H          29.5538   14.8411   16.9766 H         1 LS2299      0.0000 
     30 H          28.0575   16.3701   15.7274 H         1 LS2299      0.0000 
     31 H          30.4508   10.1094   15.5353 H         1 LS2299      0.0000 
     32 H          26.0152   13.1712   10.1175 H         1 LS2299      0.0000 
     33 H          24.0868   11.8915    9.0752 H         1 LS2299      0.0000 
     34 H          23.4073    9.8105    7.9034 H         1 LS2299      0.0000 
     35 H          26.9709    7.8543    9.2765 H         1 LS2299      0.0000 
     36 H          27.7706   10.0092   10.2329 H         1 LS2299      0.0000 
     37 H          23.9174    7.5080    7.0498 H         1 LS2299      0.0000 
     38 H          24.9527    6.5170    8.0919 H         1 LS2299      0.0000 
     39 H          28.2311    7.1113    6.4882 H         1 LS2299      0.0000 
     40 H          28.4301    5.1499    7.8222 H         1 LS2299      0.0000 
     41 H          26.9660    5.4671    8.4069 H         1 LS2299      0.0000 
     42 H          27.1251    4.5788    7.0758 H         1 LS2299      0.0000 
@<TRIPOS>BOND
     1    2    1 am   
     2    8    1 1    
     3   28    1 1    
     4    3    2 1    
     5   10    2 2    
     6    9    3 1    
     7   11    3 2    
     8    5    4 ar   
     9    9    4 ar   
    10   12    4 1    
    11    6    5 ar   
    12   14    5 1    
    13    7    6 ar   
    14   29    6 1    
    15    8    7 ar   
    16   30    7 1    
    17    9    8 ar   
    18   15   11 1    
    19   13   12 1    
    20   14   13 2    
    21   31   13 1    
    22   16   15 1    
    23   32   15 1    
    24   17   16 ar   
    25   21   16 ar   
    26   18   17 ar   
    27   33   17 1    
    28   19   18 ar   
    29   34   18 1    
    30   20   19 ar   
    31   22   19 1    
    32   21   20 ar   
    33   35   20 1    
    34   36   21 1    
    35   23   22 1    
    36   37   22 1    
    37   38   22 1    
    38   24   23 2    
    39   25   23 2    
    40   26   23 1    
    41   27   26 1    
    42   39   26 1    
    43   40   27 1    
    44   41   27 1    
    45   42   27 1    
@<TRIPOS>SUBSTRUCTURE
     1 LS2299      1 GROUP   
@<TRIPOS>SET

