#    Name: 4m2v_BZ1_1_INTS_M
#    Modification time : Tue Apr  8 00:13:14 2014

@<TRIPOS>MOLECULE
4m2v_BZ1_1_INTS_M
   42     0    12     0     0
SMALL
NO_CHARGES


@<TRIPOS>ATOM
      1 CA          0.3610    9.9780   86.4360 C.3       4 GLC5        0.0000 
      2 CA          0.7240    9.4680   84.4920 C.3      12 GLL5        0.0000 
      3 CA         -0.0020   10.4880   88.3800 C.3       8 GLP5        0.0000 
      4 CA          4.3125    1.4305   81.7810 C.3       4 GLC5        0.0000 
      5 CA          2.3470    1.9880   81.3530 C.3      12 GLL5        0.0000 
      6 CA          6.2780    0.8730   82.2090 C.3       8 GLP5        0.0000 
      7 CA          3.7160    1.0945   80.1105 C.3       4 GLC5        0.0000 
      8 CA          5.0850    0.2010   78.8680 C.3       8 GLP5        0.0000 
      9 CA          2.8600    1.7775   83.8745 C.3       4 GLC5        0.0000 
     10 CA          2.1170    3.1300   82.2920 C.3      12 GLL5        0.0000 
     11 CA          3.6030    0.4250   85.4570 C.3       8 GLP5        0.0000 
     12 CA         -4.1155    3.6140   86.0185 C.3       4 GLC5        0.0000 
     13 CA         -2.3230    3.7370   86.4750 C.3      12 GLL5        0.0000 
     14 CA         -5.9080    3.4910   85.5620 C.3       8 GLP5        0.0000 
     15 O          -0.5085   -1.1985   87.6325 O.2       1 ALC1        0.0000 
     16 O          -1.3560   -0.3860   86.8720 O.2       9 ALL1        0.0000 
     17 O           0.3390   -2.0110   88.3930 O.2       5 ALP1        0.0000 
     18 Zn         -2.0435   -0.9645   86.4210 Zn        3 ZIC7        0.0000 
     19 Zn         -1.3560   -0.3860   86.8720 Zn       11 ZIL7        0.0000 
     20 Zn         -2.7310   -1.5430   85.9700 Zn        7 ZIP7        0.0000 
     21 N          -0.0620    0.7590   89.3545 N.am      2 SEC2        0.0000 
     22 N          -1.4030    1.1870   88.8390 N.am     10 SEL2        0.0000 
     23 N           1.2790    0.3310   89.8700 N.am      6 SEP2        0.0000 
     24 CA          1.2600    0.8610   85.3640 C.3       4 GLC5        0.0000 
     25 CA         -0.1670    2.4150   85.6700 C.3      12 GLL5        0.0000 
     26 CA          2.6870   -0.6930   85.0580 C.3       8 GLP5        0.0000 
     27 N          -3.1670    5.1765   82.9715 N.am      2 SEC2        0.0000 
     28 N          -2.5480    6.2810   83.8780 N.am     10 SEL2        0.0000 
     29 N          -3.7860    4.0720   82.0650 N.am      6 SEP2        0.0000 
     30 CA          1.6035    6.3935   86.7810 C.3       4 GLC5        0.0000 
     31 CA          1.1610    6.9930   84.8810 C.3      12 GLL5        0.0000 
     32 CA          2.0460    5.7940   88.6810 C.3       8 GLP5        0.0000 
     33 CA          3.2105    6.6150   85.7195 C.3       4 GLC5        0.0000 
     34 CA          5.2600    6.2370   86.5580 C.3       8 GLP5        0.0000 
     35 CA         -1.1025   12.4300   83.9795 C.3       4 GLC5        0.0000 
     36 CA          0.6640   11.8230   84.1200 C.3      12 GLL5        0.0000 
     37 CA         -2.8690   13.0370   83.8390 C.3       8 GLP5        0.0000 
     38 CA          0.4420   13.4500   85.1140 C.3       4 GLC5        0.0000 
     39 CA          0.2200   15.0770   86.1080 C.3       8 GLP5        0.0000 
     40 CA         -0.7161    4.0729   87.5789 C.3       4 GLC5        0.0000 
     41 CA         -1.2870    4.5570   85.4550 C.3      12 GLL5        0.0000 
     42 CA         -0.2690    4.9850   89.1710 C.3       8 GLP5        0.0000 
@<TRIPOS>BOND
@<TRIPOS>SUBSTRUCTURE
     1 ALC1       15 GROUP        1 X    ALC  0     ROOT ALC X 1
     2 SEC2       21 GROUP        1 X    SEC  0     **** SEC X 2
     3 ZIC7       18 GROUP        1 X    ZIC  0     **** ZIC X 5
     4 GLC5        1 GROUP        1 X    GLC  0     **** GLC X 6
     5 ALP1       17 GROUP        1 Y    ALP  0     ROOT ALP Y 8
     6 SEP2       23 GROUP        1 Y    SEP  0     **** SEP Y 9
     7 ZIP7       20 GROUP        1 Y    ZIP  0     **** ZIP Y 12
     8 GLP5        3 GROUP        1 Y    GLP  0     **** GLP Y 13
     9 ALL1       16 GROUP        1 Z    ALL  0     ROOT ALL Z 15
    10 SEL2       22 GROUP        1 Z    SEL  0     **** SEL Z 16
    11 ZIL7       19 GROUP        1 Z    ZIL  0     **** ZIL Z 19
    12 GLL5        2 GROUP        1 Z    GLL  0     **** GLL Z 20
@<TRIPOS>SET

