#    Name: 4m2v_BZ1_1_ligand
#    Modification time : Tue Apr  8 00:13:14 2014

@<TRIPOS>MOLECULE
4m2v_BZ1_1_ligand
   42    43     1     0     0
SMALL
NO_CHARGES


@<TRIPOS>ATOM
      1 C3          1.6400    8.3000   84.3460 C.3       1 BZ1302      0.0000 
      2 C9         -0.2140    3.8410   85.0740 C.2       1 BZ1302      0.0000 
      3 C10        -1.2870    4.5570   85.4550 C.2       1 BZ1302      0.0000 
      4 C11         0.9490    4.0960   84.1630 C.3       1 BZ1302      0.0000 
      5 C12         0.5350    5.3890   83.4140 C.3       1 BZ1302      0.0000 
      6 S1         -1.9470    0.9640   87.5100 S.o2      1 BZ1302      0.0000 
      7 C4          0.7240    9.4680   84.4920 C.3       1 BZ1302      0.0000 
      8 C5          2.3470    1.9880   81.3530 C.3       1 BZ1302      0.0000 
      9 C6          2.1170    3.1300   82.2920 C.3       1 BZ1302      0.0000 
     10 S2         -2.3230    3.7370   86.4750 S.3       1 BZ1302      0.0000 
     11 N2         -1.3560   -0.3860   86.8720 N.pl3     1 BZ1302      0.0000 
     12 O3         -1.4030    1.1870   88.8390 O.2       1 BZ1302      0.0000 
     13 O4         -3.4040    1.0910   87.4970 O.2       1 BZ1302      0.0000 
     14 C7         -1.4120    2.2920   86.5380 C.2       1 BZ1302      0.0000 
     15 C8         -0.1670    2.4150   85.6700 C.2       1 BZ1302      0.0000 
     16 S3         -1.5120    6.1680   84.9070 S.o2      1 BZ1302      0.0000 
     17 O2         -1.7720    7.0580   86.0420 O.2       1 BZ1302      0.0000 
     18 O5         -2.5480    6.2810   83.8780 O.2       1 BZ1302      0.0000 
     19 N3         -0.0200    6.4180   84.3100 N.pl3     1 BZ1302      0.0000 
     20 N1          1.0170    3.0070   83.2040 N.4       1 BZ1302      0.0000 
     21 C2          1.1610    6.9930   84.8810 C.3       1 BZ1302      0.0000 
     22 O1          1.2680   10.7170   84.6820 O.3       1 BZ1302      0.0000 
     23 C1          0.6640   11.8230   84.1200 C.3       1 BZ1302      0.0000 
     24 H           2.6235    8.5496   84.8292 H         1 BZ1302      0.0000 
     25 H           1.8941    8.1740   83.2585 H         1 BZ1302      0.0000 
     26 H           1.8096    4.2603   84.6907 H         1 BZ1302      0.0000 
     27 H          -0.1996    5.1070   82.6429 H         1 BZ1302      0.0000 
     28 H           1.4254    5.7695   82.8885 H         1 BZ1302      0.0000 
     29 H          -0.0075    9.2058   85.3335 H         1 BZ1302      0.0000 
     30 H           0.0315    9.4556   83.5797 H         1 BZ1302      0.0000 
     31 H           2.0054    4.0672   81.6724 H         1 BZ1302      0.0000 
     32 H           3.0762    3.3055   82.8612 H         1 BZ1302      0.0000 
     33 H          -0.6944   -0.8845   87.4321 H         1 BZ1302      0.0000 
     34 H           0.4517    1.8145   85.5295 H         1 BZ1302      0.0000 
     35 H           1.0301    7.1089   86.0037 H         1 BZ1302      0.0000 
     36 H           2.0229    6.2561   84.8091 H         1 BZ1302      0.0000 
     37 H           3.1284    2.1535   80.7513 H         1 BZ1302      0.0000 
     38 H           2.5296    1.1355   81.8428 H         1 BZ1302      0.0000 
     39 H           1.5543    1.8247   80.7657 H         1 BZ1302      0.0000 
     40 H           1.1605   12.6649   84.3314 H         1 BZ1302      0.0000 
     41 H           0.6156   11.7536   83.1236 H         1 BZ1302      0.0000 
     42 H          -0.2718   11.9436   84.4512 H         1 BZ1302      0.0000 
@<TRIPOS>BOND
     1    7    1 1    
     2   21    1 1    
     3   24    1 1    
     4   25    1 1    
     5    3    2 2    
     6    4    2 1    
     7   15    2 1    
     8   10    3 1    
     9   16    3 1    
    10    5    4 1    
    11   20    4 1    
    12   26    4 1    
    13   19    5 1    
    14   27    5 1    
    15   28    5 1    
    16   11    6 1    
    17   12    6 2    
    18   13    6 2    
    19   14    6 1    
    20   22    7 1    
    21   29    7 1    
    22   30    7 1    
    23    9    8 1    
    24   37    8 1    
    25   38    8 1    
    26   39    8 1    
    27   20    9 1    
    28   31    9 1    
    29   32    9 1    
    30   14   10 1    
    31   33   11 1    
    32   15   14 2    
    33   34   15 1    
    34   17   16 2    
    35   18   16 2    
    36   19   16 1    
    37   21   19 1    
    38   35   21 1    
    39   36   21 1    
    40   23   22 1    
    41   40   23 1    
    42   41   23 1    
    43   42   23 1    
@<TRIPOS>SUBSTRUCTURE
     1 BZ1302      1 GROUP   
@<TRIPOS>SET

