#    Name: 1h1r_6CP_2_INTS_M
#    Modification time : Tue Mar 25 04:20:37 2014

@<TRIPOS>MOLECULE
1h1r_6CP_2_INTS_M
   63     0     9     0     0
SMALL
NO_CHARGES


@<TRIPOS>ATOM
      1 CA         -5.5865  -18.0460  103.7225 C.3       3 GLC5        0.0000 
      2 CA         -3.8750  -17.6960  102.5890 C.3       9 GLL5        0.0000 
      3 CA         -7.2980  -18.3960  104.8560 C.3       6 GLP5        0.0000 
      4 CA         -2.7360  -17.8270  100.8710 C.3       3 GLC5        0.0000 
      5 CA         -1.5970  -17.9580   99.1530 C.3       6 GLP5        0.0000 
      6 CA         -2.1040  -16.9030  102.6115 C.3       3 GLC5        0.0000 
      7 CA         -0.3330  -16.1100  102.6340 C.3       6 GLP5        0.0000 
      8 CA         -4.7990  -15.9825  106.6150 C.3       3 GLC5        0.0000 
      9 CA         -2.9900  -17.2140  106.7160 C.3       9 GLL5        0.0000 
     10 CA         -6.6080  -14.7510  106.5140 C.3       6 GLP5        0.0000 
     11 CA         -4.0335  -15.1170  108.2670 C.3       3 GLC5        0.0000 
     12 CA         -2.4550  -16.6410  108.0800 C.3       9 GLL5        0.0000 
     13 CA         -5.6120  -13.5930  108.4540 C.3       6 GLP5        0.0000 
     14 CA         -3.4600  -16.6465  112.1580 C.3       3 GLC5        0.0000 
     15 CA         -2.1660  -17.1630  110.5250 C.3       9 GLL5        0.0000 
     16 CA         -4.7540  -16.1300  113.7910 C.3       6 GLP5        0.0000 
     17 CA          0.7135  -13.9800  108.9340 C.3       3 GLC5        0.0000 
     18 CA         -0.3190  -15.8550  109.3300 C.3       9 GLL5        0.0000 
     19 CA          1.7460  -12.1050  108.5380 C.3       6 GLP5        0.0000 
     20 CA         -1.2575  -19.0295  104.0340 C.3       3 GLC5        0.0000 
     21 CA         -3.1120  -19.8590  104.3910 C.3       9 GLL5        0.0000 
     22 CA          0.5970  -18.2000  103.6770 C.3       6 GLP5        0.0000 
     23 CA         -5.3125  -17.3605  104.6955 C.3       3 GLC5        0.0000 
     24 CA         -3.3270  -16.3250  104.5350 C.3       9 GLL5        0.0000 
     25 CA         -4.7980  -15.7315  100.5035 C.3       3 GLC5        0.0000 
     26 CA         -3.6120  -15.3280  102.3550 C.3       9 GLL5        0.0000 
     27 CA         -5.9840  -16.1350   98.6520 C.3       6 GLP5        0.0000 
     28 CA         -2.0800  -15.5280  100.7715 C.3       3 GLC5        0.0000 
     29 CA         -0.5480  -15.7280   99.1880 C.3       6 GLP5        0.0000 
     30 N          -3.9490  -17.0950  100.4480 N.am      2 SEC2        0.0000 
     31 N          -3.8820  -16.6590  101.8450 N.am      8 SEL2        0.0000 
     32 N          -4.0160  -17.5310   99.0510 N.am      5 SEP2        0.0000 
     33 O          -4.0070  -19.5115  101.2010 O.2       1 ALC1        0.0000 
     34 O          -4.0500  -18.9750  102.3060 O.2       7 ALL1        0.0000 
     35 O          -3.9640  -20.0480  100.0960 O.2       4 ALP1        0.0000 
     36 CA         -3.5960  -20.1785  106.7825 C.3       3 GLC5        0.0000 
     37 CA         -1.6930  -20.9210  106.4670 C.3       9 GLL5        0.0000 
     38 CA         -5.4990  -19.4360  107.0980 C.3       6 GLP5        0.0000 
     39 CA          0.1010  -21.0860  105.9730 C.3       3 GLC5        0.0000 
     40 CA          1.8950  -21.2510  105.4790 C.3       6 GLP5        0.0000 
     41 CA         -1.6410  -22.6700  107.0315 C.3       3 GLC5        0.0000 
     42 CA         -1.5890  -24.4190  107.5960 C.3       6 GLP5        0.0000 
     43 CA         -4.1224  -18.3744  107.6995 C.3       3 GLC5        0.0000 
     44 CA         -4.1973  -18.1487  110.6687 C.3       3 GLC5        0.0000 
     45 CA         -2.7690  -17.6980  109.2040 C.3       9 GLL5        0.0000 
     46 CA         -5.9270  -18.8670  111.4730 C.3       6 GLP5        0.0000 
     47 CA         -1.2417  -15.2837  111.4089 C.3       3 GLC5        0.0000 
     48 CA         -1.6090  -14.1550  112.8860 C.3       6 GLP5        0.0000 
     49 CA         -2.5095  -22.4618  103.1185 C.3       3 GLC5        0.0000 
     50 CA         -3.4250  -22.2390  104.8740 C.3       9 GLL5        0.0000 
     51 CA         -1.1340  -22.6490  101.8900 C.3       6 GLP5        0.0000 
     52 CA         -2.3537  -23.0215  106.3035 C.3       3 GLC5        0.0000 
     53 CA         -2.8120  -21.0090  105.1480 C.3       9 GLL5        0.0000 
     54 CA         -2.0480  -21.5415  103.3298 C.3       3 GLC5        0.0000 
     55 CA         -4.3071  -20.0888  105.8995 C.3       3 GLC5        0.0000 
     56 CA         -4.9765  -15.2477  105.3037 C.3       3 GLC5        0.0000 
     57 CA         -5.2268  -14.7375  102.8967 C.3       3 GLC5        0.0000 
     58 CA         -3.3630  -15.1640  103.6520 C.3       9 GLL5        0.0000 
     59 CA         -6.9660  -14.2290  102.7900 C.3       6 GLP5        0.0000 
     60 CA         -1.9058  -15.8231  102.9291 C.3       3 GLC5        0.0000 
     61 CA         -5.8165  -19.4623  104.0310 C.3       3 GLC5        0.0000 
     62 CA         -4.0340  -19.9110  103.3260 C.3       9 GLL5        0.0000 
     63 CA         -2.7345  -21.5888  102.5480 C.3       3 GLC5        0.0000 
@<TRIPOS>BOND
@<TRIPOS>SUBSTRUCTURE
     1 ALC1       33 GROUP        1 X    ALC  0     ROOT ALC X 1
     2 SEC2       30 GROUP        1 X    SEC  0     **** SEC X 2
     3 GLC5        1 GROUP        1 X    GLC  0     **** GLC X 6
     4 ALP1       35 GROUP        1 Y    ALP  0     ROOT ALP Y 8
     5 SEP2       32 GROUP        1 Y    SEP  0     **** SEP Y 9
     6 GLP5        3 GROUP        1 Y    GLP  0     **** GLP Y 13
     7 ALL1       34 GROUP        1 Z    ALL  0     ROOT ALL Z 15
     8 SEL2       31 GROUP        1 Z    SEL  0     **** SEL Z 16
     9 GLL5        2 GROUP        1 Z    GLL  0     **** GLL Z 20
@<TRIPOS>SET

