#    Name: 1h1r_6CP_2_ligand
#    Modification time : Tue Mar 25 04:20:37 2014

@<TRIPOS>MOLECULE
1h1r_6CP_2_ligand
   45    48     1     0     0
SMALL
NO_CHARGES


@<TRIPOS>ATOM
      1 C2         -3.8750  -17.6960  102.5890 C.ar      1 6CP1298     0.0000 
      2 C8         -3.2940  -13.2240  102.6400 C.2       1 6CP1298     0.0000 
      3 C10        -2.9900  -17.2140  106.7160 C.3       1 6CP1298     0.0000 
      4 C11        -2.4550  -16.6410  108.0800 C.3       1 6CP1298     0.0000 
      5 C12        -2.7690  -17.6980  109.2040 C.3       1 6CP1298     0.0000 
      6 C13        -2.1660  -17.1630  110.5250 C.3       1 6CP1298     0.0000 
      7 C14        -0.6940  -16.7770  110.5420 C.3       1 6CP1298     0.0000 
      8 C15        -0.3190  -15.8550  109.3300 C.3       1 6CP1298     0.0000 
      9 C16        -0.9290  -16.3960  108.0190 C.3       1 6CP1298     0.0000 
     10 C19        -4.3450  -22.3100  103.8200 C.ar      1 6CP1298     0.0000 
     11 C20        -3.4250  -22.2390  104.8740 C.ar      1 6CP1298     0.0000 
     12 C21        -2.8120  -21.0090  105.1480 C.ar      1 6CP1298     0.0000 
     13 C22        -3.1120  -19.8590  104.3910 C.ar      1 6CP1298     0.0000 
     14 N1         -3.5840  -17.4170  103.9990 N.ar      1 6CP1298     0.0000 
     15 C6         -3.3270  -16.3250  104.5350 C.ar      1 6CP1298     0.0000 
     16 O6         -3.0080  -16.0850  105.8070 O.3       1 6CP1298     0.0000 
     17 C5         -3.3630  -15.1640  103.6520 C.ar      1 6CP1298     0.0000 
     18 N7         -3.1350  -13.7530  103.8010 N.pl3     1 6CP1298     0.0000 
     19 N9         -3.5740  -14.1440  101.7780 N.2       1 6CP1298     0.0000 
     20 C4         -3.6120  -15.3280  102.3550 C.ar      1 6CP1298     0.0000 
     21 N3         -3.8820  -16.6590  101.8450 N.ar      1 6CP1298     0.0000 
     22 N2         -4.0500  -18.9750  102.3060 N.pl3     1 6CP1298     0.0000 
     23 C17        -4.0340  -19.9110  103.3260 C.ar      1 6CP1298     0.0000 
     24 C18        -4.6360  -21.1460  103.0860 C.ar      1 6CP1298     0.0000 
     25 CL1        -1.6930  -20.9210  106.4670 Cl        1 6CP1298     0.0000 
     26 H          -3.2140  -12.2520  102.4332 H         1 6CP1298     0.0000 
     27 H          -3.9697  -17.6075  106.8972 H         1 6CP1298     0.0000 
     28 H          -2.3094  -17.9795  106.4023 H         1 6CP1298     0.0000 
     29 H          -2.9652  -15.7462  108.3051 H         1 6CP1298     0.0000 
     30 H          -2.3052  -18.6233  108.9433 H         1 6CP1298     0.0000 
     31 H          -3.8279  -17.7905  109.3011 H         1 6CP1298     0.0000 
     32 H          -2.3470  -17.9316  111.3204 H         1 6CP1298     0.0000 
     33 H          -2.7749  -16.2787  110.8463 H         1 6CP1298     0.0000 
     34 H          -0.0745  -17.6717  110.4911 H         1 6CP1298     0.0000 
     35 H          -0.4612  -16.2398  111.4607 H         1 6CP1298     0.0000 
     36 H           0.7596  -15.8242  109.2415 H         1 6CP1298     0.0000 
     37 H          -0.7004  -14.8603  109.5230 H         1 6CP1298     0.0000 
     38 H          -0.7185  -15.6821  107.2087 H         1 6CP1298     0.0000 
     39 H          -0.4301  -17.3416  107.7593 H         1 6CP1298     0.0000 
     40 H          -4.7981  -23.1908  103.5864 H         1 6CP1298     0.0000 
     41 H          -3.2068  -23.0611  105.4278 H         1 6CP1298     0.0000 
     42 H          -2.6511  -18.9675  104.6189 H         1 6CP1298     0.0000 
     43 H          -2.9113  -13.3673  104.6446 H         1 6CP1298     0.0000 
     44 H          -4.2009  -19.3052  101.3326 H         1 6CP1298     0.0000 
     45 H          -5.3468  -21.2157  102.3153 H         1 6CP1298     0.0000 
@<TRIPOS>BOND
     1   14    1 ar   
     2   21    1 ar   
     3   22    1 1    
     4   18    2 1    
     5   19    2 2    
     6   26    2 1    
     7    4    3 1    
     8   16    3 1    
     9   27    3 1    
    10   28    3 1    
    11    5    4 1    
    12    9    4 1    
    13   29    4 1    
    14    6    5 1    
    15   30    5 1    
    16   31    5 1    
    17    7    6 1    
    18   32    6 1    
    19   33    6 1    
    20    8    7 1    
    21   34    7 1    
    22   35    7 1    
    23    9    8 1    
    24   36    8 1    
    25   37    8 1    
    26   38    9 1    
    27   39    9 1    
    28   11   10 ar   
    29   24   10 ar   
    30   40   10 1    
    31   12   11 ar   
    32   41   11 1    
    33   13   12 ar   
    34   25   12 1    
    35   23   13 ar   
    36   42   13 1    
    37   15   14 ar   
    38   16   15 1    
    39   17   15 ar   
    40   18   17 1    
    41   20   17 ar   
    42   43   18 1    
    43   20   19 1    
    44   21   20 ar   
    45   23   22 1    
    46   44   22 1    
    47   24   23 ar   
    48   45   24 1    
@<TRIPOS>SUBSTRUCTURE
     1 6CP1298     1 GROUP   
@<TRIPOS>SET

