#    Name: 1ep4_S11_1_INTS_M
#    Modification time : Tue Mar 25 00:08:27 2014

@<TRIPOS>MOLECULE
1ep4_S11_1_INTS_M
   93     0     9     0     0
SMALL
NO_CHARGES


@<TRIPOS>ATOM
      1 CA          1.7110  -40.4100   25.4170 C.3       3 GLC5        0.0000 
      2 CA          0.7930  -42.3280   26.0990 C.3       9 GLL5        0.0000 
      3 CA          2.6290  -38.4920   24.7350 C.3       6 GLP5        0.0000 
      4 CA         -0.1570  -44.3705   27.2190 C.3       3 GLC5        0.0000 
      5 CA          0.4650  -42.4810   27.8470 C.3       9 GLL5        0.0000 
      6 CA         -0.7790  -46.2600   26.5910 C.3       6 GLP5        0.0000 
      7 CA          0.4545  -43.4370   29.2980 C.3       3 GLC5        0.0000 
      8 CA          0.4440  -44.3930   30.7490 C.3       6 GLP5        0.0000 
      9 CA         -1.0345  -41.9815   28.9965 C.3       3 GLC5        0.0000 
     10 CA         -2.5340  -41.4820   30.1460 C.3       6 GLP5        0.0000 
     11 CA          3.4315  -39.9580   33.9290 C.3       3 GLC5        0.0000 
     12 CA          1.8140  -39.9320   32.4450 C.3       9 GLL5        0.0000 
     13 CA          5.0490  -39.9840   35.4130 C.3       6 GLP5        0.0000 
     14 CA          1.2185  -41.7140   32.7145 C.3       3 GLC5        0.0000 
     15 CA          0.6230  -43.4960   32.9840 C.3       6 GLP5        0.0000 
     16 CA         -0.2300  -39.7375   32.0830 C.3       3 GLC5        0.0000 
     17 CA         -2.2740  -39.5430   31.7210 C.3       6 GLP5        0.0000 
     18 CA          2.9415  -38.4910   32.5950 C.3       3 GLC5        0.0000 
     19 CA          4.0690  -37.0500   32.7450 C.3       6 GLP5        0.0000 
     20 CA          5.4755  -39.7350   29.3295 C.3       3 GLC5        0.0000 
     21 CA          4.6400  -38.7960   27.9210 C.3       9 GLL5        0.0000 
     22 CA          6.3110  -40.6740   30.7380 C.3       6 GLP5        0.0000 
     23 CA          5.3745  -37.3740   28.9545 C.3       3 GLC5        0.0000 
     24 CA          6.1090  -35.9520   29.9880 C.3       6 GLP5        0.0000 
     25 CA          2.5660  -39.5200   26.3505 C.3       3 GLC5        0.0000 
     26 CA          2.5030  -40.5480   27.9660 C.3       9 GLL5        0.0000 
     27 CA          3.9095  -46.0665   23.9675 C.3       3 GLC5        0.0000 
     28 CA          2.4400  -45.4000   25.2820 C.3       9 GLL5        0.0000 
     29 CA          5.3790  -46.7330   22.6530 C.3       6 GLP5        0.0000 
     30 CA          2.5605  -47.3710   26.1025 C.3       3 GLC5        0.0000 
     31 CA          2.6810  -49.3420   26.9230 C.3       6 GLP5        0.0000 
     32 CA          1.8410  -46.9910   24.4095 C.3       3 GLC5        0.0000 
     33 CA          1.2420  -48.5820   23.5370 C.3       6 GLP5        0.0000 
     34 CA          4.4295  -41.6330   24.7380 C.3       3 GLC5        0.0000 
     35 CA          4.1900  -43.5390   25.3660 C.3       9 GLL5        0.0000 
     36 CA          4.6690  -39.7270   24.1100 C.3       6 GLP5        0.0000 
     37 CA          5.2670  -44.5680   23.9165 C.3       3 GLC5        0.0000 
     38 CA          6.3440  -45.5970   22.4670 C.3       6 GLP5        0.0000 
     39 CA          0.8280  -39.5660   25.2085 C.3       3 GLC5        0.0000 
     40 CA         -0.9730  -40.6400   25.6820 C.3       9 GLL5        0.0000 
     41 CA         -1.5510  -38.9860   26.9860 C.3       3 GLC5        0.0000 
     42 CA         -2.1290  -37.3320   28.2900 C.3       6 GLP5        0.0000 
     43 CA         -1.6225  -39.0975   24.5870 C.3       3 GLC5        0.0000 
     44 CA         -2.2720  -37.5550   23.4920 C.3       6 GLP5        0.0000 
     45 CA         -2.6830  -39.0880   27.5905 C.3       3 GLC5        0.0000 
     46 CA         -3.2370  -40.8440   26.8910 C.3       9 GLL5        0.0000 
     47 CA         -5.7395  -42.1170   28.3350 C.3       3 GLC5        0.0000 
     48 CA         -4.4860  -41.4840   27.0990 C.3       9 GLL5        0.0000 
     49 CA         -6.9930  -42.7500   29.5710 C.3       6 GLP5        0.0000 
     50 CA         -5.5110  -39.6070   26.8445 C.3       3 GLC5        0.0000 
     51 CA         -6.5360  -37.7300   26.5900 C.3       6 GLP5        0.0000 
     52 CA         -5.6215  -40.9810   25.5250 C.3       3 GLC5        0.0000 
     53 CA         -6.7570  -40.4780   23.9510 C.3       6 GLP5        0.0000 
     54 CA         -5.3600  -41.8070   24.6990 C.3       3 GLC5        0.0000 
     55 CA         -3.9630  -43.1360   25.4470 C.3       9 GLL5        0.0000 
     56 CA          1.6625  -39.9095   22.5695 C.3       3 GLC5        0.0000 
     57 CA          0.1470  -41.0120   22.7970 C.3       9 GLL5        0.0000 
     58 CA          3.1780  -38.8070   22.3420 C.3       6 GLP5        0.0000 
     59 CA         -0.2475  -41.5045   20.6640 C.3       3 GLC5        0.0000 
     60 CA         -0.6420  -41.9970   18.5310 C.3       6 GLP5        0.0000 
     61 CA         -0.2155  -39.1940   22.3055 C.3       3 GLC5        0.0000 
     62 CA         -0.5780  -37.3760   21.8140 C.3       6 GLP5        0.0000 
     63 O          -4.1720  -41.0260   21.6920 O.2       1 ALC1        0.0000 
     64 O          -2.9520  -41.8620   21.3620 O.2       7 ALL1        0.0000 
     65 O          -5.3920  -40.1900   22.0220 O.2       4 ALP1        0.0000 
     66 N          -1.0735  -43.7480   20.4845 N.am      2 SEC2        0.0000 
     67 N          -1.1650  -43.2040   21.7170 N.am      8 SEL2        0.0000 
     68 N          -0.9820  -44.2920   19.2520 N.am      5 SEP2        0.0000 
     69 CA          0.2482  -44.4600   26.1750 C.3       3 GLC5        0.0000 
     70 CA          1.7580  -42.9920   25.4190 C.3       9 GLL5        0.0000 
     71 CA          1.9022  -43.2287   29.4093 C.3       3 GLC5        0.0000 
     72 CA          1.4730  -41.2680   28.6400 C.3       9 GLL5        0.0000 
     73 CA          2.4410  -45.3020   29.4940 C.3       6 GLP5        0.0000 
     74 CA          0.8322  -39.2287   28.9723 C.3       3 GLC5        0.0000 
     75 CA          0.3010  -37.3020   28.6200 C.3       6 GLP5        0.0000 
     76 CA         -0.3053  -40.0695   31.0460 C.3       3 GLC5        0.0000 
     77 CA          1.2540  -41.0430   30.0090 C.3       9 GLL5        0.0000 
     78 CA          2.1690  -37.9550   31.3858 C.3       3 GLC5        0.0000 
     79 CA          2.0730  -40.1490   30.7330 C.3       9 GLL5        0.0000 
     80 CA          1.7520  -36.1200   32.3690 C.3       6 GLP5        0.0000 
     81 CA          1.4435  -38.5460   29.5113 C.3       3 GLC5        0.0000 
     82 CA          3.0990  -39.4310   30.0720 C.3       9 GLL5        0.0000 
     83 CA          3.3075  -38.8560   26.5220 C.3       3 GLC5        0.0000 
     84 CA          3.3320  -39.6440   28.6970 C.3       9 GLL5        0.0000 
     85 CA          1.6093  -38.6990   28.4757 C.3       3 GLC5        0.0000 
     86 CA          0.9198  -45.4808   26.0795 C.3       3 GLC5        0.0000 
     87 CA          2.7970  -44.0030   25.8540 C.3       9 GLL5        0.0000 
     88 CA          4.8398  -43.7880   27.0880 C.3       3 GLC5        0.0000 
     89 CA          6.1860  -43.8050   28.5660 C.3       6 GLP5        0.0000 
     90 CA          2.5297  -45.0018   27.5310 C.3       3 GLC5        0.0000 
     91 CA         -2.5297  -44.3805   24.8095 C.3       3 GLC5        0.0000 
     92 CA         -2.7020  -42.5340   25.2030 C.3       9 GLL5        0.0000 
     93 CA         -1.7270  -45.9260   24.2940 C.3       6 GLP5        0.0000 
@<TRIPOS>BOND
@<TRIPOS>SUBSTRUCTURE
     1 ALC1       63 GROUP        1 X    ALC  0     ROOT ALC X 1
     2 SEC2       66 GROUP        1 X    SEC  0     **** SEC X 2
     3 GLC5        1 GROUP        1 X    GLC  0     **** GLC X 6
     4 ALP1       65 GROUP        1 Y    ALP  0     ROOT ALP Y 8
     5 SEP2       68 GROUP        1 Y    SEP  0     **** SEP Y 9
     6 GLP5        3 GROUP        1 Y    GLP  0     **** GLP Y 13
     7 ALL1       64 GROUP        1 Z    ALL  0     ROOT ALL Z 15
     8 SEL2       67 GROUP        1 Z    SEL  0     **** SEL Z 16
     9 GLL5        2 GROUP        1 Z    GLL  0     **** GLL Z 20
@<TRIPOS>SET

