#    Name: 1ep4_S11_1_ligand
#    Modification time : Tue Mar 25 00:08:27 2014

@<TRIPOS>MOLECULE
1ep4_S11_1_ligand
   49    51     1     0     0
SMALL
NO_CHARGES


@<TRIPOS>ATOM
      1 N1          1.5610  -42.5080   24.0890 N.2       1 S11999      0.0000 
      2 C2          1.7580  -42.9920   25.4190 C.2       1 S11999      0.0000 
      3 C3          0.7930  -42.3280   26.0990 C.2       1 S11999      0.0000 
      4 N4          0.1070  -41.5550   25.2750 N.pl3     1 S11999      0.0000 
      5 C5          0.6040  -41.6920   24.0690 C.2       1 S11999      0.0000 
      6 C6          1.4730  -41.2680   28.6400 C.ar      1 S11999      0.0000 
      7 S1          0.4650  -42.4810   27.8470 S.3       1 S11999      0.0000 
      8 C7          1.2540  -41.0430   30.0090 C.ar      1 S11999      0.0000 
      9 C8          2.0730  -40.1490   30.7330 C.ar      1 S11999      0.0000 
     10 CL1         1.8140  -39.9320   32.4450 Cl        1 S11999      0.0000 
     11 C9          3.0990  -39.4310   30.0720 C.ar      1 S11999      0.0000 
     12 C10         3.3320  -39.6440   28.6970 C.ar      1 S11999      0.0000 
     13 CL2         4.6400  -38.7960   27.9210 Cl        1 S11999      0.0000 
     14 C11         2.5030  -40.5480   27.9660 C.ar      1 S11999      0.0000 
     15 C12         2.7970  -44.0030   25.8540 C.3       1 S11999      0.0000 
     16 C13         2.4400  -45.4000   25.2820 C.3       1 S11999      0.0000 
     17 C14         4.1900  -43.5390   25.3660 C.3       1 S11999      0.0000 
     18 C15        -0.9730  -40.6400   25.6820 C.3       1 S11999      0.0000 
     19 C16        -2.3230  -41.3670   25.9320 C.ar      1 S11999      0.0000 
     20 C21        -3.2370  -40.8440   26.8910 C.ar      1 S11999      0.0000 
     21 C20        -4.4860  -41.4840   27.0990 C.ar      1 S11999      0.0000 
     22 N19        -4.8150  -42.5990   26.3790 N.ar      1 S11999      0.0000 
     23 C18        -3.9630  -43.1360   25.4470 C.ar      1 S11999      0.0000 
     24 C17        -2.7020  -42.5340   25.2030 C.ar      1 S11999      0.0000 
     25 CA          0.1470  -41.0120   22.7970 C.3       1 S11999      0.0000 
     26 O22        -1.2790  -41.1440   22.6940 O.3       1 S11999      0.0000 
     27 C23        -1.7470  -42.1440   21.9010 C.2       1 S11999      0.0000 
     28 N24        -2.9520  -41.8620   21.3620 N.am      1 S11999      0.0000 
     29 O25        -1.1650  -43.2040   21.7170 O.2       1 S11999      0.0000 
     30 H           0.4906  -41.5325   30.4919 H         1 S11999      0.0000 
     31 H           3.6671  -38.7618   30.5909 H         1 S11999      0.0000 
     32 H           2.6470  -40.6771   26.9699 H         1 S11999      0.0000 
     33 H           2.8095  -44.0616   26.9245 H         1 S11999      0.0000 
     34 H          -1.1468  -39.8737   24.9096 H         1 S11999      0.0000 
     35 H          -0.7054  -40.1088   26.6095 H         1 S11999      0.0000 
     36 H          -2.9925  -40.0133   27.4244 H         1 S11999      0.0000 
     37 H          -5.1299  -41.0906   27.7984 H         1 S11999      0.0000 
     38 H          -4.2202  -43.9764   24.9134 H         1 S11999      0.0000 
     39 H          -2.0693  -42.9284   24.5139 H         1 S11999      0.0000 
     40 H           0.6543  -41.4843   21.9533 H         1 S11999      0.0000 
     41 H           0.4495  -39.9637   22.8397 H         1 S11999      0.0000 
     42 H          -3.3448  -40.9744   21.6026 H         1 S11999      0.0000 
     43 H          -3.3448  -42.5657   20.7700 H         1 S11999      0.0000 
     44 H           2.4087  -45.3951   24.2825 H         1 S11999      0.0000 
     45 H           3.1085  -46.0933   25.5510 H         1 S11999      0.0000 
     46 H           1.5463  -45.7149   25.6017 H         1 S11999      0.0000 
     47 H           4.9093  -44.1811   25.6312 H         1 S11999      0.0000 
     48 H           4.2254  -43.4542   24.3702 H         1 S11999      0.0000 
     49 H           4.4384  -42.6476   25.7451 H         1 S11999      0.0000 
@<TRIPOS>BOND
     1    2    1 1    
     2    5    1 2    
     3    3    2 2    
     4   15    2 1    
     5    4    3 1    
     6    7    3 1    
     7    5    4 1    
     8   18    4 1    
     9   25    5 1    
    10    7    6 1    
    11    8    6 ar   
    12   14    6 ar   
    13    9    8 ar   
    14   30    8 1    
    15   10    9 1    
    16   11    9 ar   
    17   12   11 ar   
    18   31   11 1    
    19   13   12 1    
    20   14   12 ar   
    21   32   14 1    
    22   16   15 1    
    23   17   15 1    
    24   33   15 1    
    25   44   16 1    
    26   45   16 1    
    27   46   16 1    
    28   47   17 1    
    29   48   17 1    
    30   49   17 1    
    31   19   18 1    
    32   34   18 1    
    33   35   18 1    
    34   20   19 ar   
    35   24   19 ar   
    36   21   20 ar   
    37   36   20 1    
    38   22   21 ar   
    39   37   21 1    
    40   23   22 ar   
    41   24   23 ar   
    42   38   23 1    
    43   39   24 1    
    44   26   25 1    
    45   40   25 1    
    46   41   25 1    
    47   27   26 1    
    48   28   27 am   
    49   29   27 2    
    50   42   28 1    
    51   43   28 1    
@<TRIPOS>SUBSTRUCTURE
     1 S11999      1 GROUP   
@<TRIPOS>SET

