#    Name: 4f32_N32_2_INTS_M
#    Modification time : Mon Mar 24 18:54:05 2014

@<TRIPOS>MOLECULE
4f32_N32_2_INTS_M
   50     0     9     0     0
SMALL
NO_CHARGES


@<TRIPOS>ATOM
      1 N           8.5810    3.5430  -48.0135 N.am      2 SEC2        0.0000 
      2 N           7.8510    4.6660  -47.3460 N.am      8 SEL2        0.0000 
      3 N           9.3110    2.4200  -48.6810 N.am      5 SEP2        0.0000 
      4 N           4.8180    2.7230  -47.6210 N.am      2 SEC2        0.0000 
      5 N           4.4800    2.5560  -46.3110 N.am      8 SEL2        0.0000 
      6 N           5.1560    2.8900  -48.9310 N.am      5 SEP2        0.0000 
      7 O           4.3430    3.2560  -42.8515 O.2       1 ALC1        0.0000 
      8 O           3.9440    2.8210  -44.1100 O.2       7 ALL1        0.0000 
      9 O           4.7420    3.6910  -41.5930 O.2       4 ALP1        0.0000 
     10 CA          6.8135    2.7265  -43.0870 C.3       3 GLC5        0.0000 
     11 CA          6.0940    3.5860  -44.9530 C.3       9 GLL5        0.0000 
     12 CA          7.5330    1.8670  -41.2210 C.3       6 GLP5        0.0000 
     13 CA          7.8930    2.7440  -45.6285 C.3       3 GLC5        0.0000 
     14 CA          9.6920    1.9020  -46.3040 C.3       6 GLP5        0.0000 
     15 CA          5.5730    4.6565  -47.3390 C.3       3 GLC5        0.0000 
     16 CA          5.9600    5.0500  -45.3620 C.3       9 GLL5        0.0000 
     17 CA          5.1860    4.2630  -49.3160 C.3       6 GLP5        0.0000 
     18 CA          5.4455    8.3285  -46.3315 C.3       3 GLC5        0.0000 
     19 CA          6.9740    7.2880  -45.8070 C.3       9 GLL5        0.0000 
     20 CA          3.9170    9.3690  -46.8560 C.3       6 GLP5        0.0000 
     21 CA          8.6065    9.7685  -44.4015 C.3       3 GLC5        0.0000 
     22 CA          9.2730    7.8670  -43.5240 C.3       9 GLL5        0.0000 
     23 CA          7.9400   11.6700  -45.2790 C.3       6 GLP5        0.0000 
     24 N          -1.8000    3.3985  -47.5845 N.am      2 SEC2        0.0000 
     25 N          -0.3350    3.6210  -46.9800 N.am      8 SEL2        0.0000 
     26 N          -3.2650    3.1760  -48.1890 N.am      5 SEP2        0.0000 
     27 N          -1.7205    0.6980  -46.9865 N.am      2 SEC2        0.0000 
     28 N          -1.6530    1.9870  -46.4250 N.am      8 SEL2        0.0000 
     29 N          -1.7880   -0.5910  -47.5480 N.am      5 SEP2        0.0000 
     30 N          -2.4590    2.5815  -47.3070 N.am      2 SEC2        0.0000 
     31 CA          0.9440    3.5600  -43.7060 C.3       3 GLC5        0.0000 
     32 CA          0.4510    2.0800  -45.2890 C.3       9 GLL5        0.0000 
     33 CA          1.4370    5.0400  -42.1230 C.3       6 GLP5        0.0000 
     34 CA          2.0495    3.6205  -43.1955 C.3       3 GLC5        0.0000 
     35 CA          2.6620    2.2010  -44.2680 C.3       9 GLL5        0.0000 
     36 CA          0.9475    2.2550  -42.4600 C.3       3 GLC5        0.0000 
     37 CA          1.0530    0.3900  -43.6420 C.3       9 GLL5        0.0000 
     38 CA          0.8420    4.1200  -41.2780 C.3       6 GLP5        0.0000 
     39 CA         -0.4000   -0.2695  -46.3250 C.3       3 GLC5        0.0000 
     40 CA          0.1520    0.9440  -44.5420 C.3       9 GLL5        0.0000 
     41 CA         -0.9520   -1.4830  -48.1080 C.3       6 GLP5        0.0000 
     42 CA         10.4857    4.1985  -45.9070 C.3       3 GLC5        0.0000 
     43 CA          9.6390    5.6240  -46.1800 C.3       9 GLL5        0.0000 
     44 CA         11.0840    2.5490  -46.2160 C.3       6 GLP5        0.0000 
     45 CA          8.2770    3.6467  -41.0807 C.3       3 GLC5        0.0000 
     46 CA          8.9890    5.8030  -41.4810 C.3       9 GLL5        0.0000 
     47 CA          0.0367   -1.3080  -44.4295 C.3       3 GLC5        0.0000 
     48 CA         -0.5290   -3.2830  -44.7670 C.3       6 GLP5        0.0000 
     49 CA         -0.8157    0.2730  -43.1440 C.3       3 GLC5        0.0000 
     50 CA         -2.2340   -0.1210  -42.1960 C.3       6 GLP5        0.0000 
@<TRIPOS>BOND
@<TRIPOS>SUBSTRUCTURE
     1 ALC1        7 GROUP        1 X    ALC  0     ROOT ALC X 1
     2 SEC2        1 GROUP        1 X    SEC  0     **** SEC X 2
     3 GLC5       10 GROUP        1 X    GLC  0     **** GLC X 6
     4 ALP1        9 GROUP        1 Y    ALP  0     ROOT ALP Y 8
     5 SEP2        3 GROUP        1 Y    SEP  0     **** SEP Y 9
     6 GLP5       12 GROUP        1 Y    GLP  0     **** GLP Y 13
     7 ALL1        8 GROUP        1 Z    ALL  0     ROOT ALL Z 15
     8 SEL2        2 GROUP        1 Z    SEL  0     **** SEL Z 16
     9 GLL5       11 GROUP        1 Z    GLL  0     **** GLL Z 20
@<TRIPOS>SET

