#    Name: 4f32_N32_2_ligand
#    Modification time : Mon Mar 24 18:54:05 2014

@<TRIPOS>MOLECULE
4f32_N32_2_ligand
   55    58     1     0     0
SMALL
NO_CHARGES


@<TRIPOS>ATOM
      1 C1          7.9200    6.8390  -41.6800 C.3       1 N32500      0.0000 
      2 O19         7.8510    4.6660  -47.3460 O.2       1 N32500      0.0000 
      3 O20         4.4800    2.5560  -46.3110 O.2       1 N32500      0.0000 
      4 N28         3.9440    2.8210  -44.1100 N.am      1 N32500      0.0000 
      5 C11         4.7530    2.9210  -45.1640 C.2       1 N32500      0.0000 
      6 C2          6.0940    3.5860  -44.9530 C.3       1 N32500      0.0000 
      7 C3          5.9600    5.0500  -45.3620 C.3       1 N32500      0.0000 
      8 C4          7.2620    5.8590  -45.3270 C.3       1 N32500      0.0000 
      9 C5          8.2170    5.3380  -46.3610 C.2       1 N32500      0.0000 
     10 C6          9.6390    5.6240  -46.1800 C.2       1 N32500      0.0000 
     11 C7         10.1360    6.0720  -45.0160 C.2       1 N32500      0.0000 
     12 C8          9.3120    6.3790  -43.8090 C.3       1 N32500      0.0000 
     13 C9          7.9010    5.7700  -43.9260 C.3       1 N32500      0.0000 
     14 C10         7.0330    6.3250  -42.8050 C.3       1 N32500      0.0000 
     15 C14         9.9500    5.6500  -42.6210 C.3       1 N32500      0.0000 
     16 C15         8.9890    5.8030  -41.4810 C.2       1 N32500      0.0000 
     17 C17         9.0530    5.0500  -40.4000 C.2       1 N32500      0.0000 
     18 C18         6.9740    7.2880  -45.8070 C.3       1 N32500      0.0000 
     19 C28         9.2730    7.8670  -43.5240 C.3       1 N32500      0.0000 
     20 C29         8.5820    8.0950  -42.1680 C.3       1 N32500      0.0000 
     21 O30         3.2040    0.5160  -42.5870 O.2       1 N32500      0.0000 
     22 O31         1.9260    3.8370  -45.8200 O.2       1 N32500      0.0000 
     23 O32        -0.3350    3.6210  -46.9800 O.co2     1 N32500      0.0000 
     24 O33        -1.6530    1.9870  -46.4250 O.co2     1 N32500      0.0000 
     25 C21        -0.5910    2.6170  -46.2680 C.2       1 N32500      0.0000 
     26 C22         0.4510    2.0800  -45.2890 C.2       1 N32500      0.0000 
     27 C23         1.6700    2.7130  -45.1120 C.2       1 N32500      0.0000 
     28 C24         2.6620    2.2010  -44.2680 C.3       1 N32500      0.0000 
     29 C25         2.3200    0.9970  -43.4830 C.2       1 N32500      0.0000 
     30 C26         1.0530    0.3900  -43.6420 C.3       1 N32500      0.0000 
     31 C27         0.1520    0.9440  -44.5420 C.2       1 N32500      0.0000 
     32 H           7.3743    6.9952  -40.8224 H         1 N32500      0.0000 
     33 H           4.1938    3.1695  -43.1772 H         1 N32500      0.0000 
     34 H           6.8406    3.1104  -45.5689 H         1 N32500      0.0000 
     35 H           6.3718    3.5302  -43.9125 H         1 N32500      0.0000 
     36 H           5.2207    5.5413  -44.6997 H         1 N32500      0.0000 
     37 H           5.5405    5.0995  -46.3857 H         1 N32500      0.0000 
     38 H          10.2448    5.4588  -47.0107 H         1 N32500      0.0000 
     39 H          11.1677    6.2372  -44.8849 H         1 N32500      0.0000 
     40 H           8.0297    4.6707  -43.6956 H         1 N32500      0.0000 
     41 H           6.4270    7.1392  -43.1876 H         1 N32500      0.0000 
     42 H           6.3879    5.5397  -42.4260 H         1 N32500      0.0000 
     43 H          10.8866    6.1144  -42.3867 H         1 N32500      0.0000 
     44 H          10.0743    4.6155  -42.8703 H         1 N32500      0.0000 
     45 H           8.7112    8.3749  -44.2946 H         1 N32500      0.0000 
     46 H          10.2787    8.2593  -43.4764 H         1 N32500      0.0000 
     47 H           9.3322    8.4268  -41.4475 H         1 N32500      0.0000 
     48 H           7.8403    8.8877  -42.2852 H         1 N32500      0.0000 
     49 H           3.1625    1.3640  -45.3192 H         1 N32500      0.0000 
     50 H           0.5567    0.3046  -42.6061 H         1 N32500      0.0000 
     51 H           1.2105   -0.7230  -43.8932 H         1 N32500      0.0000 
     52 H          -0.7825    0.4939  -44.6636 H         1 N32500      0.0000 
     53 H           7.7980    7.8546  -45.8020 H         1 N32500      0.0000 
     54 H           6.6150    7.3010  -46.7402 H         1 N32500      0.0000 
     55 H           6.3000    7.7458  -45.2272 H         1 N32500      0.0000 
@<TRIPOS>BOND
     1   14    1 1    
     2   16    1 1    
     3   20    1 1    
     4   32    1 1    
     5    9    2 2    
     6    5    3 2    
     7    5    4 am   
     8   28    4 1    
     9   33    4 1    
    10    6    5 1    
    11    7    6 1    
    12   34    6 1    
    13   35    6 1    
    14    8    7 1    
    15   36    7 1    
    16   37    7 1    
    17    9    8 1    
    18   13    8 1    
    19   18    8 1    
    20   10    9 1    
    21   11   10 2    
    22   38   10 1    
    23   12   11 1    
    24   39   11 1    
    25   13   12 1    
    26   15   12 1    
    27   19   12 1    
    28   14   13 1    
    29   40   13 1    
    30   41   14 1    
    31   42   14 1    
    32   16   15 1    
    33   43   15 1    
    34   44   15 1    
    35   17   16 2    
    36   53   18 1    
    37   54   18 1    
    38   55   18 1    
    39   20   19 1    
    40   45   19 1    
    41   46   19 1    
    42   47   20 1    
    43   48   20 1    
    44   29   21 2    
    45   27   22 2    
    46   25   23 ar   
    47   25   24 ar   
    48   26   25 1    
    49   27   26 1    
    50   31   26 2    
    51   28   27 1    
    52   29   28 1    
    53   49   28 1    
    54   30   29 1    
    55   31   30 1    
    56   50   30 1    
    57   51   30 1    
    58   52   31 1    
@<TRIPOS>SUBSTRUCTURE
     1 N32500      1 GROUP   
@<TRIPOS>SET

