#    Name: 3p79_P79_1_INTS_M
#    Modification time : Tue Mar 25 06:01:36 2014

@<TRIPOS>MOLECULE
3p79_P79_1_INTS_M
  104     0     9     0     0
SMALL
NO_CHARGES


@<TRIPOS>ATOM
      1 CA         50.4900   28.1425  -20.7105 C.3       3 GLC5        0.0000 
      2 CA         50.0690   28.0860  -18.8210 C.3       9 GLL5        0.0000 
      3 CA         50.9110   28.1990  -22.6000 C.3       6 GLP5        0.0000 
      4 CA         49.1795   29.5195  -20.1860 C.3       3 GLC5        0.0000 
      5 CA         48.2900   30.9530  -21.5510 C.3       6 GLP5        0.0000 
      6 CA         50.3380   26.6430  -15.7405 C.3       3 GLC5        0.0000 
      7 CA         50.3350   28.7380  -15.2270 C.3       9 GLL5        0.0000 
      8 CA         50.3410   24.5480  -16.2540 C.3       6 GLP5        0.0000 
      9 CA         49.4135   30.0710  -16.1240 C.3       3 GLC5        0.0000 
     10 CA         48.4920   31.4040  -17.0210 C.3       6 GLP5        0.0000 
     11 O          54.4515   30.1035  -17.6655 O.2       1 ALC1        0.0000 
     12 O          53.6810   30.4520  -18.7150 O.2       7 ALL1        0.0000 
     13 O          55.2220   29.7550  -16.6160 O.2       4 ALP1        0.0000 
     14 N          50.2845   31.1230  -19.4865 N.am      2 SEC2        0.0000 
     15 N          51.6030   30.5120  -19.5990 N.am      8 SEL2        0.0000 
     16 N          48.9660   31.7340  -19.3740 N.am      5 SEP2        0.0000 
     17 CA         52.4205   34.0415  -18.7220 C.3       3 GLC5        0.0000 
     18 CA         53.7150   32.6250  -19.7900 C.3       9 GLL5        0.0000 
     19 CA         51.1260   35.4580  -17.6540 C.3       6 GLP5        0.0000 
     20 CA         57.0610   29.8745  -19.3000 C.3       3 GLC5        0.0000 
     21 CA         55.3920   30.9050  -20.1820 C.3       9 GLL5        0.0000 
     22 CA         58.7300   28.8440  -18.4180 C.3       6 GLP5        0.0000 
     23 O          53.5890   29.5475  -17.1175 O.2       1 ALC1        0.0000 
     24 O          51.9560   29.3400  -17.6190 O.2       7 ALL1        0.0000 
     25 CA         45.2115   24.9090  -18.4070 C.3       3 GLC5        0.0000 
     26 CA         46.6790   26.5090  -17.8650 C.3       9 GLL5        0.0000 
     27 CA         43.7440   23.3090  -18.9490 C.3       6 GLP5        0.0000 
     28 CA         46.1245   24.7250  -16.8965 C.3       3 GLC5        0.0000 
     29 CA         45.5700   22.9410  -15.9280 C.3       6 GLP5        0.0000 
     30 CA         44.9400   27.0175  -16.7040 C.3       3 GLC5        0.0000 
     31 CA         43.2010   27.5260  -15.5430 C.3       6 GLP5        0.0000 
     32 CA         48.9400   23.9985  -18.6915 C.3       3 GLC5        0.0000 
     33 CA         48.1170   25.5840  -19.8090 C.3       9 GLL5        0.0000 
     34 CA         49.7630   22.4130  -17.5740 C.3       6 GLP5        0.0000 
     35 CA         49.0220   24.2120  -20.6680 C.3       3 GLC5        0.0000 
     36 CA         49.9270   22.8400  -21.5270 C.3       6 GLP5        0.0000 
     37 CA         47.9840   25.4785  -21.6980 C.3       3 GLC5        0.0000 
     38 CA         47.8510   25.3730  -23.5870 C.3       6 GLP5        0.0000 
     39 CA         46.1395   25.4415  -20.6420 C.3       3 GLC5        0.0000 
     40 CA         44.1620   25.2990  -21.4750 C.3       6 GLP5        0.0000 
     41 CA         47.4720   26.5640  -21.7175 C.3       3 GLC5        0.0000 
     42 CA         47.0930   27.7550  -19.8480 C.3       9 GLL5        0.0000 
     43 CA         45.6275   26.5270  -20.6615 C.3       3 GLC5        0.0000 
     44 CA         45.6835   28.6410  -20.8815 C.3       3 GLC5        0.0000 
     45 CA         44.2740   29.5270  -21.9150 C.3       6 GLP5        0.0000 
     46 CA         47.6915   29.3540  -20.6995 C.3       3 GLC5        0.0000 
     47 CA         59.2585   31.0030  -23.8460 C.3       3 GLC5        0.0000 
     48 CA         57.8590   32.1780  -22.6400 C.3       9 GLL5        0.0000 
     49 CA         60.6580   29.8280  -25.0520 C.3       6 GLP5        0.0000 
     50 CA         54.6830   27.8495  -10.0500 C.3       3 GLC5        0.0000 
     51 CA         53.4400   27.8550  -11.8260 C.3       9 GLL5        0.0000 
     52 CA         55.9260   27.8440   -8.2740 C.3       6 GLP5        0.0000 
     53 CA         53.7225   25.7390  -11.3185 C.3       3 GLC5        0.0000 
     54 CA         54.0050   23.6230  -10.8110 C.3       6 GLP5        0.0000 
     55 CA         54.6920   27.3005  -13.1795 C.3       3 GLC5        0.0000 
     56 CA         55.9440   26.7460  -14.5330 C.3       6 GLP5        0.0000 
     57 CA         52.0105   25.5825  -11.4845 C.3       3 GLC5        0.0000 
     58 CA         52.4840   26.9810  -12.6420 C.3       9 GLL5        0.0000 
     59 CA         51.5370   24.1840  -10.3270 C.3       6 GLP5        0.0000 
     60 CA         53.9215   26.1520  -13.6165 C.3       3 GLC5        0.0000 
     61 CA         55.3590   25.3230  -14.5910 C.3       6 GLP5        0.0000 
     62 N          51.8840   26.4390   -8.7785 N.am      2 SEC2        0.0000 
     63 N          51.8230   27.3800   -9.7600 N.am      8 SEL2        0.0000 
     64 N          51.9450   25.4980   -7.7970 N.am      5 SEP2        0.0000 
     65 CA         50.3738   26.4552  -17.2650 C.3       3 GLC5        0.0000 
     66 CA         50.7440   28.6390  -17.7310 C.3       9 GLL5        0.0000 
     67 CA         51.9123   27.5012  -19.2615 C.3       3 GLC5        0.0000 
     68 CA         53.4180   26.6400  -20.2470 C.3       6 GLP5        0.0000 
     69 CA         49.4492   29.8832  -17.6485 C.3       3 GLC5        0.0000 
     70 CA         48.7798   25.5925  -17.3253 C.3       3 GLC5        0.0000 
     71 CA         47.7580   26.7650  -18.9280 C.3       9 GLL5        0.0000 
     72 CA         55.7095   32.6325  -18.7507 C.3       3 GLC5        0.0000 
     73 CA         54.2170   31.3570  -19.5510 C.3       9 GLL5        0.0000 
     74 CA         57.4530   33.2740  -17.8310 C.3       6 GLP5        0.0000 
     75 CA         55.2067   29.1810  -19.6762 C.3       3 GLC5        0.0000 
     76 CA         55.6090   27.2310  -19.4860 C.3       6 GLP5        0.0000 
     77 CA         53.5405   31.0385  -21.2702 C.3       3 GLC5        0.0000 
     78 CA         53.1150   30.0860  -22.8700 C.3       6 GLP5        0.0000 
     79 CA         52.4473   33.3263  -21.4925 C.3       3 GLC5        0.0000 
     80 CA         50.8470   33.5830  -22.7610 C.3       6 GLP5        0.0000 
     81 CA         56.2030   33.2785  -19.4108 C.3       3 GLC5        0.0000 
     82 CA         54.3800   33.5140  -20.6580 C.3       9 GLL5        0.0000 
     83 CA         54.0340   31.6845  -21.9303 C.3       3 GLC5        0.0000 
     84 CA         55.5260   33.0520  -21.3230 C.3       9 GLL5        0.0000 
     85 CA         56.5785   32.3058  -19.2365 C.3       3 GLC5        0.0000 
     86 CA         56.0160   31.7700  -21.1020 C.3       9 GLL5        0.0000 
     87 CA         57.3380   35.7417  -22.4667 C.3       3 GLC5        0.0000 
     88 CA         56.1760   33.9380  -22.2210 C.3       9 GLL5        0.0000 
     89 CA         57.9150   37.7750  -22.3860 C.3       6 GLP5        0.0000 
     90 CA         57.1635   34.5847  -24.2993 C.3       3 GLC5        0.0000 
     91 CA         57.5660   35.4610  -26.0510 C.3       6 GLP5        0.0000 
     92 CA         57.9920   33.6972  -21.1017 C.3       3 GLC5        0.0000 
     93 CA         57.3460   33.4790  -22.8740 C.3       9 GLL5        0.0000 
     94 CA         59.2230   33.6860  -19.6560 C.3       6 GLP5        0.0000 
     95 CA         56.3060   32.6088  -24.1382 C.3       3 GLC5        0.0000 
     96 CA         55.8510   31.5090  -25.7290 C.3       6 GLP5        0.0000 
     97 CA         59.6052   33.5618  -23.2675 C.3       3 GLC5        0.0000 
     98 CA         61.6080   34.2950  -23.7780 C.3       6 GLP5        0.0000 
     99 CA         58.3765   32.7152  -20.9172 C.3       3 GLC5        0.0000 
    100 CA         58.7330   30.4047  -21.3897 C.3       3 GLC5        0.0000 
    101 CA         59.9360   29.0650  -20.6010 C.3       6 GLP5        0.0000 
    102 CA         56.6905   31.6268  -23.9537 C.3       3 GLC5        0.0000 
    103 CA         57.2010   31.3110  -21.7170 C.3       9 GLL5        0.0000 
    104 CA         54.7837   30.7051  -22.0248 C.3       3 GLC5        0.0000 
@<TRIPOS>BOND
@<TRIPOS>SUBSTRUCTURE
     1 ALC1       11 GROUP        1 X    ALC  0     ROOT ALC X 1
     2 SEC2       14 GROUP        1 X    SEC  0     **** SEC X 2
     3 GLC5        1 GROUP        1 X    GLC  0     **** GLC X 6
     4 ALP1       13 GROUP        1 Y    ALP  0     ROOT ALP Y 8
     5 SEP2       16 GROUP        1 Y    SEP  0     **** SEP Y 9
     6 GLP5        3 GROUP        1 Y    GLP  0     **** GLP Y 13
     7 ALL1       12 GROUP        1 Z    ALL  0     ROOT ALL Z 15
     8 SEL2       15 GROUP        1 Z    SEL  0     **** SEL Z 16
     9 GLL5        2 GROUP        1 Z    GLL  0     **** GLL Z 20
@<TRIPOS>SET

