#    Name: 3p79_P79_1_ligand
#    Modification time : Tue Mar 25 06:01:36 2014

@<TRIPOS>MOLECULE
3p79_P79_1_ligand
   63    66     1     0     0
SMALL
NO_CHARGES


@<TRIPOS>ATOM
      1 C1         50.0690   28.0860  -18.8210 C.2       1 P79362      0.0000 
      2 C2         48.9430   27.4700  -18.2700 C.2       1 P79362      0.0000 
      3 N3         50.0190   28.3060  -16.6150 N.pl3     1 P79362      0.0000 
      4 N4         48.9000   27.6260  -16.9330 N.2       1 P79362      0.0000 
      5 C5         47.7580   26.7650  -18.9280 C.3       1 P79362      0.0000 
      6 C6         50.7440   28.6390  -17.7310 C.2       1 P79362      0.0000 
      7 C7         50.3350   28.7380  -15.2270 C.3       1 P79362      0.0000 
      8 C8         51.4980   28.0270  -14.6290 C.2       1 P79362      0.0000 
      9 N9         51.5530   27.8910  -13.2960 N.am      1 P79362      0.0000 
     10 O10        52.3420   27.5490  -15.3620 O.2       1 P79362      0.0000 
     11 C11        52.4240   30.0970  -18.6410 C.2       1 P79362      0.0000 
     12 N12        53.6810   30.4520  -18.7150 N.am      1 P79362      0.0000 
     13 O13        51.6030   30.5120  -19.5990 O.2       1 P79362      0.0000 
     14 C14        54.2170   31.3570  -19.5510 C.ar      1 P79362      0.0000 
     15 C15        53.7150   32.6250  -19.7900 C.ar      1 P79362      0.0000 
     16 C16        54.3800   33.5140  -20.6580 C.ar      1 P79362      0.0000 
     17 C17        55.5260   33.0520  -21.3230 C.ar      1 P79362      0.0000 
     18 C18        56.0160   31.7700  -21.1020 C.ar      1 P79362      0.0000 
     19 C19        55.3920   30.9050  -20.1820 C.ar      1 P79362      0.0000 
     20 N20        51.9560   29.3400  -17.6190 N.am      1 P79362      0.0000 
     21 C21        46.6790   26.5090  -17.8650 C.3       1 P79362      0.0000 
     22 C22        48.1170   25.5840  -19.8090 C.3       1 P79362      0.0000 
     23 C23        47.0930   27.7550  -19.8480 C.3       1 P79362      0.0000 
     24 C24        56.1760   33.9380  -22.2210 C.ar      1 P79362      0.0000 
     25 C25        57.3460   33.4790  -22.8740 C.ar      1 P79362      0.0000 
     26 C26        57.8590   32.1780  -22.6400 C.ar      1 P79362      0.0000 
     27 C27        57.2010   31.3110  -21.7170 C.ar      1 P79362      0.0000 
     28 C28        50.5720   28.5020  -12.4090 C.3       1 P79362      0.0000 
     29 C29        51.2870   29.4620  -11.4450 C.3       1 P79362      0.0000 
     30 S30        52.5080   28.6220  -10.6030 S.o2      1 P79362      0.0000 
     31 C31        53.4400   27.8550  -11.8260 C.3       1 P79362      0.0000 
     32 C32        52.4840   26.9810  -12.6420 C.3       1 P79362      0.0000 
     33 O33        51.8230   27.3800   -9.7600 O.2       1 P79362      0.0000 
     34 O34        53.4810   29.8180   -9.9210 O.2       1 P79362      0.0000 
     35 H          50.3134   28.1199  -19.7116 H         1 P79362      0.0000 
     36 H          49.4433   28.5846  -14.5841 H         1 P79362      0.0000 
     37 H          50.5316   29.8303  -15.2196 H         1 P79362      0.0000 
     38 H          54.3836   29.9664  -18.0262 H         1 P79362      0.0000 
     39 H          52.8430   32.9334  -19.3316 H         1 P79362      0.0000 
     40 H          54.0400   34.4540  -20.7953 H         1 P79362      0.0000 
     41 H          55.7729   29.9952  -19.9826 H         1 P79362      0.0000 
     42 H          52.4870   29.2629  -16.7284 H         1 P79362      0.0000 
     43 H          55.8168   34.8609  -22.3873 H         1 P79362      0.0000 
     44 H          57.8342   34.1018  -23.5318 H         1 P79362      0.0000 
     45 H          58.6929   31.8599  -23.1263 H         1 P79362      0.0000 
     46 H          57.5763   30.4005  -21.5152 H         1 P79362      0.0000 
     47 H          50.0542   27.7499  -11.8142 H         1 P79362      0.0000 
     48 H          49.8340   29.0747  -12.9702 H         1 P79362      0.0000 
     49 H          50.6301   29.8310  -10.6914 H         1 P79362      0.0000 
     50 H          51.7919   30.2438  -11.9641 H         1 P79362      0.0000 
     51 H          54.1584   27.2856  -11.3030 H         1 P79362      0.0000 
     52 H          53.8460   28.6462  -12.3943 H         1 P79362      0.0000 
     53 H          53.0618   26.4231  -13.3617 H         1 P79362      0.0000 
     54 H          51.9737   26.3118  -11.9676 H         1 P79362      0.0000 
     55 H          47.0186   25.9314  -17.1227 H         1 P79362      0.0000 
     56 H          46.3569   27.3600  -17.4503 H         1 P79362      0.0000 
     57 H          45.8789   26.0499  -18.2510 H         1 P79362      0.0000 
     58 H          48.7143   25.8525  -20.5648 H         1 P79362      0.0000 
     59 H          48.5950   24.8704  -19.2969 H         1 P79362      0.0000 
     60 H          47.3055   25.1615  -20.2126 H         1 P79362      0.0000 
     61 H          47.7174   28.0789  -20.5588 H         1 P79362      0.0000 
     62 H          46.3016   27.3571  -20.3121 H         1 P79362      0.0000 
     63 H          46.7681   28.5612  -19.3536 H         1 P79362      0.0000 
@<TRIPOS>BOND
     1    2    1 1    
     2    6    1 2    
     3   35    1 1    
     4    4    2 2    
     5    5    2 1    
     6    4    3 1    
     7    6    3 1    
     8    7    3 1    
     9   21    5 1    
    10   22    5 1    
    11   23    5 1    
    12   20    6 1    
    13    8    7 1    
    14   36    7 1    
    15   37    7 1    
    16    9    8 am   
    17   10    8 2    
    18   28    9 1    
    19   32    9 1    
    20   12   11 am   
    21   13   11 2    
    22   20   11 am   
    23   14   12 1    
    24   38   12 1    
    25   15   14 ar   
    26   19   14 ar   
    27   16   15 ar   
    28   39   15 1    
    29   17   16 ar   
    30   40   16 1    
    31   18   17 ar   
    32   24   17 ar   
    33   19   18 ar   
    34   27   18 ar   
    35   41   19 1    
    36   42   20 1    
    37   55   21 1    
    38   56   21 1    
    39   57   21 1    
    40   58   22 1    
    41   59   22 1    
    42   60   22 1    
    43   61   23 1    
    44   62   23 1    
    45   63   23 1    
    46   25   24 ar   
    47   43   24 1    
    48   26   25 ar   
    49   44   25 1    
    50   27   26 ar   
    51   45   26 1    
    52   46   27 1    
    53   29   28 1    
    54   47   28 1    
    55   48   28 1    
    56   30   29 1    
    57   49   29 1    
    58   50   29 1    
    59   31   30 1    
    60   33   30 2    
    61   34   30 2    
    62   32   31 1    
    63   51   31 1    
    64   52   31 1    
    65   53   32 1    
    66   54   32 1    
@<TRIPOS>SUBSTRUCTURE
     1 P79362      1 GROUP   
@<TRIPOS>SET

