#    Name: 3q60_ATP_1_INTS_M
#    Modification time : Tue Mar 25 08:55:59 2014

@<TRIPOS>MOLECULE
3q60_ATP_1_INTS_M
   74     0    15     0     0
SMALL
NO_CHARGES


@<TRIPOS>ATOM
      1 NZ         -7.1705    9.2720  -22.8720 N.4       3 LYC4        0.0000 
      2 NZ         -7.8470    8.8460  -21.4680 N.4      13 LYL4        0.0000 
      3 NZ         -6.4940    9.6980  -24.2760 N.4       8 LYP4        0.0000 
      4 NZ         -8.2575    9.6165  -23.4320 N.4       3 LYC4        0.0000 
      5 NZ        -10.0210    9.5350  -22.5880 N.4      13 LYL4        0.0000 
      6 Zn         -9.8785    9.5250  -19.2155 Zn        4 ZIC7        0.0000 
      7 Zn        -10.1090    9.4290  -20.2190 Zn       14 ZIL7        0.0000 
      8 Zn         -9.6480    9.6210  -18.2120 Zn        9 ZIP7        0.0000 
      9 N          -6.1245   13.0370  -20.1660 N.am      2 SEC2        0.0000 
     10 N          -7.5500   13.0080  -20.1740 N.am     12 SEL2        0.0000 
     11 N          -4.6990   13.0660  -20.1580 N.am      7 SEP2        0.0000 
     12 N          -7.9295   14.2995  -19.9325 N.am      2 SEC2        0.0000 
     13 N          -8.3090   15.5910  -19.6910 N.am      7 SEP2        0.0000 
     14 Zn         -8.8985   10.3170  -18.5230 Zn        4 ZIC7        0.0000 
     15 Zn         -8.1490   11.0130  -18.8340 Zn       14 ZIL7        0.0000 
     16 N          -6.9115   11.4405  -18.3750 N.am      2 SEC2        0.0000 
     17 N          -8.1490   11.0130  -18.8340 N.am     12 SEL2        0.0000 
     18 N          -5.6740   11.8680  -17.9160 N.am      7 SEP2        0.0000 
     19 Zn        -10.3045   10.3730  -18.1415 Zn        4 ZIC7        0.0000 
     20 Zn        -10.9610   11.1250  -18.0710 Zn       14 ZIL7        0.0000 
     21 NZ        -11.8895   13.2560  -21.1985 N.4       3 LYC4        0.0000 
     22 NZ        -12.3920   12.2390  -19.9180 N.4      13 LYL4        0.0000 
     23 NZ        -11.3870   14.2730  -22.4790 N.4       8 LYP4        0.0000 
     24 Zn        -12.8735   11.7005  -20.5820 Zn        4 ZIC7        0.0000 
     25 Zn        -12.3920   12.2390  -19.9180 Zn       14 ZIL7        0.0000 
     26 Zn        -13.3550   11.1620  -21.2460 Zn        9 ZIP7        0.0000 
     27 N          -9.1190   14.1260  -19.7625 N.am      2 SEC2        0.0000 
     28 N          -9.9290   12.6610  -19.8340 N.am     12 SEL2        0.0000 
     29 N         -10.6580   13.4670  -21.1565 N.am      2 SEC2        0.0000 
     30 N         -11.3870   14.2730  -22.4790 N.am      7 SEP2        0.0000 
     31 CA        -12.1950   10.6740  -15.6245 C.3       5 GLC5        0.0000 
     32 CA        -12.0230   12.7430  -15.3820 C.3      15 GLL5        0.0000 
     33 CA        -12.3670    8.6050  -15.8670 C.3      10 GLP5        0.0000 
     34 O         -13.0520   11.8780  -13.0235 O.2       1 ALC1        0.0000 
     35 O         -12.0060   12.6470  -13.9140 O.2      11 ALL1        0.0000 
     36 O         -14.0980   11.1090  -12.1330 O.2       6 ALP1        0.0000 
     37 CA        -14.8870   12.2830  -14.4345 C.3       5 GLC5        0.0000 
     38 CA        -13.4530   13.0300  -15.8840 C.3      15 GLL5        0.0000 
     39 CA        -16.3210   11.5360  -12.9850 C.3      10 GLP5        0.0000 
     40 O         -14.5285   11.1800  -16.1060 O.2       1 ALC1        0.0000 
     41 O         -14.4520   12.2350  -15.2470 O.2      11 ALL1        0.0000 
     42 O         -14.6050   10.1250  -16.9650 O.2       6 ALP1        0.0000 
     43 CA        -13.0060   15.3660  -13.9675 C.3       5 GLC5        0.0000 
     44 CA        -13.5780   14.5250  -15.6480 C.3      15 GLL5        0.0000 
     45 CA        -12.4340   16.2070  -12.2870 C.3      10 GLP5        0.0000 
     46 CA        -12.7420   16.1270  -16.7070 C.3       5 GLC5        0.0000 
     47 CA        -11.9060   17.7290  -17.7660 C.3      10 GLP5        0.0000 
     48 CA        -17.3830   18.8145  -17.2950 C.3       5 GLC5        0.0000 
     49 CA        -17.5680   16.9680  -17.1160 C.3      15 GLL5        0.0000 
     50 CA        -17.1980   20.6610  -17.4740 C.3      10 GLP5        0.0000 
     51 CA        -17.9935   17.9225  -19.0795 C.3       5 GLC5        0.0000 
     52 CA        -18.4190   18.8770  -21.0430 C.3      10 GLP5        0.0000 
     53 CA        -18.9945   16.1740  -15.6020 C.3       5 GLC5        0.0000 
     54 CA        -20.4210   15.3800  -14.0880 C.3      10 GLP5        0.0000 
     55 O         -19.5440   18.0640  -18.1725 O.2       1 ALC1        0.0000 
     56 O         -18.2880   17.2880  -18.1710 O.2      11 ALL1        0.0000 
     57 O         -20.8000   18.8400  -18.1740 O.2       6 ALP1        0.0000 
     58 N         -19.3335   17.5150  -15.3175 N.am      2 SEC2        0.0000 
     59 N         -17.8980   17.3220  -15.8540 N.am     12 SEL2        0.0000 
     60 N         -20.7690   17.7080  -14.7810 N.am      7 SEP2        0.0000 
     61 CA        -18.7910   16.1685  -14.4350 C.3       5 GLC5        0.0000 
     62 CA        -17.1610   16.9570  -14.7820 C.3      15 GLL5        0.0000 
     63 CA         -8.9895   13.6653  -16.5113 C.3       5 GLC5        0.0000 
     64 CA        -11.2910   14.0300  -15.7640 C.3      15 GLL5        0.0000 
     65 CA         -7.0630   13.3090  -16.6110 C.3      10 GLP5        0.0000 
     66 CA        -11.4110   15.8752  -17.0888 C.3       5 GLC5        0.0000 
     67 CA        -10.5410   14.0130  -17.0590 C.3      15 GLL5        0.0000 
     68 CA        -11.3635   14.7833  -14.2565 C.3       5 GLC5        0.0000 
     69 CA        -11.0700   16.1800  -12.9400 C.3      10 GLP5        0.0000 
     70 CA        -15.5168   13.3133  -16.0245 C.3       5 GLC5        0.0000 
     71 CA        -17.5180   12.8490  -16.2830 C.3      10 GLP5        0.0000 
     72 CA        -14.8178   17.6382  -16.6973 C.3       5 GLC5        0.0000 
     73 CA        -15.6380   15.8210  -16.1190 C.3      15 GLL5        0.0000 
     74 CA        -13.6320   19.2820  -16.6840 C.3      10 GLP5        0.0000 
@<TRIPOS>BOND
@<TRIPOS>SUBSTRUCTURE
     1 ALC1       34 GROUP        1 X    ALC  0     ROOT ALC X 1
     2 SEC2        9 GROUP        1 X    SEC  0     **** SEC X 2
     3 LYC4        1 GROUP        1 X    LYC  0     **** LYC X 4
     4 ZIC7        6 GROUP        1 X    ZIC  0     **** ZIC X 5
     5 GLC5       31 GROUP        1 X    GLC  0     **** GLC X 6
     6 ALP1       36 GROUP        1 Y    ALP  0     ROOT ALP Y 8
     7 SEP2       11 GROUP        1 Y    SEP  0     **** SEP Y 9
     8 LYP4        3 GROUP        1 Y    LYP  0     **** LYP Y 11
     9 ZIP7        8 GROUP        1 Y    ZIP  0     **** ZIP Y 12
    10 GLP5       33 GROUP        1 Y    GLP  0     **** GLP Y 13
    11 ALL1       35 GROUP        1 Z    ALL  0     ROOT ALL Z 15
    12 SEL2       10 GROUP        1 Z    SEL  0     **** SEL Z 16
    13 LYL4        2 GROUP        1 Z    LYL  0     **** LYL Z 18
    14 ZIL7        7 GROUP        1 Z    ZIL  0     **** ZIL Z 19
    15 GLL5       32 GROUP        1 Z    GLL  0     **** GLL Z 20
@<TRIPOS>SET

