#    Name: 3q60_ATP_1_ligand
#    Modification time : Tue Mar 25 08:55:59 2014

@<TRIPOS>MOLECULE
3q60_ATP_1_ligand
   43    45     1     0     0
SMALL
NO_CHARGES


@<TRIPOS>ATOM
      1 PG         -9.1310    9.6650  -21.4100 P.3       1 ATP600      0.0000 
      2 O1G        -7.8470    8.8460  -21.4680 O.co2     1 ATP600      0.0000 
      3 O2G       -10.0210    9.5350  -22.5880 O.co2     1 ATP600      0.0000 
      4 O3G       -10.1090    9.4290  -20.2190 O.co2     1 ATP600      0.0000 
      5 PB         -8.5140   11.8800  -19.9900 P.3       1 ATP600      0.0000 
      6 O1B        -7.5500   13.0080  -20.1740 O.co2     1 ATP600      0.0000 
      7 O2B        -8.1490   11.0130  -18.8340 O.co2     1 ATP600      0.0000 
      8 O3B        -8.6620   11.1570  -21.3800 O.3       1 ATP600      0.0000 
      9 PA        -11.2710   12.3140  -18.9610 P.3       1 ATP600      0.0000 
     10 O1A       -10.9610   11.1250  -18.0710 O.co2     1 ATP600      0.0000 
     11 O2A       -12.3920   12.2390  -19.9180 O.co2     1 ATP600      0.0000 
     12 O3A        -9.9290   12.6610  -19.8340 O.3       1 ATP600      0.0000 
     13 O5'       -11.4300   13.7060  -18.1700 O.3       1 ATP600      0.0000 
     14 C5'       -10.5410   14.0130  -17.0590 C.3       1 ATP600      0.0000 
     15 C4'       -11.2910   14.0300  -15.7640 C.3       1 ATP600      0.0000 
     16 O4'       -12.2840   15.0450  -15.9240 O.3       1 ATP600      0.0000 
     17 C3'       -12.0230   12.7430  -15.3820 C.3       1 ATP600      0.0000 
     18 O3'       -12.0060   12.6470  -13.9140 O.3       1 ATP600      0.0000 
     19 C2'       -13.4530   13.0300  -15.8840 C.3       1 ATP600      0.0000 
     20 O2'       -14.4520   12.2350  -15.2470 O.3       1 ATP600      0.0000 
     21 C1'       -13.5780   14.5250  -15.6480 C.3       1 ATP600      0.0000 
     22 N9        -14.5700   15.1200  -16.5570 N.pl3     1 ATP600      0.0000 
     23 C8        -14.6550   14.9560  -17.9130 C.2       1 ATP600      0.0000 
     24 N7        -15.7510   15.5990  -18.3820 N.2       1 ATP600      0.0000 
     25 C5        -16.3690   16.1680  -17.3020 C.ar      1 ATP600      0.0000 
     26 C6        -17.5680   16.9680  -17.1160 C.ar      1 ATP600      0.0000 
     27 N6        -18.2880   17.2880  -18.1710 N.pl3     1 ATP600      0.0000 
     28 N1        -17.8980   17.3220  -15.8540 N.ar      1 ATP600      0.0000 
     29 C2        -17.1610   16.9570  -14.7820 C.ar      1 ATP600      0.0000 
     30 N3        -16.0130   16.2440  -14.8550 N.ar      1 ATP600      0.0000 
     31 C4        -15.6380   15.8210  -16.1190 C.ar      1 ATP600      0.0000 
     32 H         -10.0647   14.9942  -17.2067 H         1 ATP600      0.0000 
     33 H          -9.7350   13.2663  -16.9930 H         1 ATP600      0.0000 
     34 H         -10.6254   14.3084  -14.9635 H         1 ATP600      0.0000 
     35 H         -11.6207   11.9469  -15.8730 H         1 ATP600      0.0000 
     36 H         -13.4198   12.8860  -16.9647 H         1 ATP600      0.0000 
     37 H         -13.8458   14.6801  -14.6288 H         1 ATP600      0.0000 
     38 H         -14.0227   14.4543  -18.4492 H         1 ATP600      0.0000 
     39 H         -17.9436   16.9660  -19.0529 H         1 ATP600      0.0000 
     40 H         -19.1136   17.8238  -17.9942 H         1 ATP600      0.0000 
     41 H         -17.5064   17.2501  -13.8126 H         1 ATP600      0.0000 
     42 H         -12.9676   12.5786  -13.6481 H         1 ATP600      0.0000 
     43 H         -14.2304   11.2923  -15.4966 H         1 ATP600      0.0000 
@<TRIPOS>BOND
     1    2    1 ar   
     2    3    1 ar   
     3    4    1 ar   
     4    8    1 1    
     5    6    5 ar   
     6    7    5 ar   
     7    8    5 1    
     8   12    5 1    
     9   10    9 ar   
    10   11    9 ar   
    11   12    9 1    
    12   13    9 1    
    13   14   13 1    
    14   15   14 1    
    15   32   14 1    
    16   33   14 1    
    17   16   15 1    
    18   17   15 1    
    19   34   15 1    
    20   21   16 1    
    21   18   17 1    
    22   19   17 1    
    23   35   17 1    
    24   42   18 1    
    25   20   19 1    
    26   21   19 1    
    27   36   19 1    
    28   43   20 1    
    29   22   21 1    
    30   37   21 1    
    31   23   22 1    
    32   31   22 1    
    33   24   23 2    
    34   38   23 1    
    35   25   24 1    
    36   26   25 ar   
    37   31   25 ar   
    38   27   26 1    
    39   28   26 ar   
    40   39   27 1    
    41   40   27 1    
    42   29   28 ar   
    43   30   29 ar   
    44   41   29 1    
    45   31   30 ar   
@<TRIPOS>SUBSTRUCTURE
     1 ATP600      1 GROUP   
@<TRIPOS>SET

