#    Name: 3g8e_IS1_1_INTS_M
#    Modification time : Tue Mar 25 07:21:30 2014

@<TRIPOS>MOLECULE
3g8e_IS1_1_INTS_M
   76     0     9     0     0
SMALL
NO_CHARGES


@<TRIPOS>ATOM
      1 CA         45.9815   -4.6880   -8.7965 C.3       3 GLC5        0.0000 
      2 CA         44.4400   -3.4380   -9.4100 C.3       9 GLL5        0.0000 
      3 CA         47.5230   -5.9380   -8.1830 C.3       6 GLP5        0.0000 
      4 CA         42.5815   -2.1875  -11.2365 C.3       3 GLC5        0.0000 
      5 CA         43.4610   -2.4200  -13.2200 C.3       9 GLL5        0.0000 
      6 CA         41.7020   -1.9550   -9.2530 C.3       6 GLP5        0.0000 
      7 CA         39.7190   -3.5405  -15.8770 C.3       3 GLC5        0.0000 
      8 CA         41.5910   -4.6250  -15.7990 C.3       9 GLL5        0.0000 
      9 CA         37.8470   -2.4560  -15.9550 C.3       6 GLP5        0.0000 
     10 CA         38.7275   -4.2805  -15.5955 C.3       3 GLC5        0.0000 
     11 CA         39.6080   -6.1050  -15.2360 C.3       9 GLL5        0.0000 
     12 CA         39.5380   -9.4395  -16.2520 C.3       3 GLC5        0.0000 
     13 CA         39.5820   -7.3920  -16.0590 C.3       9 GLL5        0.0000 
     14 CA         39.4940  -11.4870  -16.4450 C.3       6 GLP5        0.0000 
     15 CA         40.5445   -8.9130  -14.9515 C.3       3 GLC5        0.0000 
     16 CA         41.5070  -10.4340  -13.8440 C.3       6 GLP5        0.0000 
     17 N          37.1520  -10.0955  -13.7560 N.am      2 SEC2        0.0000 
     18 N          37.9360   -8.5840  -14.1450 N.am      8 SEL2        0.0000 
     19 N          36.3680  -11.6070  -13.3670 N.am      5 SEP2        0.0000 
     20 CA         35.5100   -7.1985  -14.5760 C.3       3 GLC5        0.0000 
     21 CA         36.1280   -8.5150  -15.5180 C.3       9 GLL5        0.0000 
     22 CA         34.8920   -5.8820  -13.6340 C.3       6 GLP5        0.0000 
     23 CA         35.9050   -9.8495  -17.1490 C.3       3 GLC5        0.0000 
     24 CA         35.6820  -11.1840  -18.7800 C.3       6 GLP5        0.0000 
     25 CA         35.2615   -7.9520  -13.5675 C.3       3 GLC5        0.0000 
     26 CA         35.3510   -9.1820  -14.5880 C.3       9 GLL5        0.0000 
     27 CA         35.1720   -6.7220  -12.5470 C.3       6 GLP5        0.0000 
     28 CA         36.5160   -9.9225  -12.8350 C.3       3 GLC5        0.0000 
     29 CA         37.6810  -10.6630  -11.0820 C.3       6 GLP5        0.0000 
     30 CA         35.5765  -10.6660  -16.1895 C.3       3 GLC5        0.0000 
     31 CA         35.8020  -12.1500  -17.7910 C.3       6 GLP5        0.0000 
     32 CA         33.5100   -7.3515  -17.5695 C.3       3 GLC5        0.0000 
     33 CA         33.4480   -9.0140  -16.1010 C.3       9 GLL5        0.0000 
     34 CA         33.5720   -5.6890  -19.0380 C.3       6 GLP5        0.0000 
     35 CA         31.8245   -9.3460  -18.3050 C.3       3 GLC5        0.0000 
     36 CA         32.0950   -9.1830  -16.3740 C.3       9 GLL5        0.0000 
     37 CA         31.5540   -9.5090  -20.2360 C.3       6 GLP5        0.0000 
     38 CA         29.5790   -7.3720  -12.7230 C.3       3 GLC5        0.0000 
     39 CA         28.1080   -8.7500  -11.7390 C.3       9 GLL5        0.0000 
     40 CA         31.0500   -5.9940  -13.7070 C.3       6 GLP5        0.0000 
     41 CA         28.1165   -6.7055  -11.5245 C.3       3 GLC5        0.0000 
     42 CA         28.1250   -4.6610  -11.3100 C.3       6 GLP5        0.0000 
     43 N          25.9160   -9.1195  -11.3195 N.am      2 SEC2        0.0000 
     44 N          27.4220   -8.8430  -10.4830 N.am      8 SEL2        0.0000 
     45 N          24.4100   -9.3960  -12.1560 N.am      5 SEP2        0.0000 
     46 O          32.5245   -8.5025  -10.2055 O.2       1 ALC1        0.0000 
     47 O          32.7460   -9.4970  -11.4470 O.2       7 ALL1        0.0000 
     48 O          32.3030   -7.5080   -8.9640 O.2       4 ALP1        0.0000 
     49 CA         42.8995   -4.4398   -9.9165 C.3       3 GLC5        0.0000 
     50 CA         44.6400   -3.5970  -10.7760 C.3       9 GLL5        0.0000 
     51 CA         41.2590   -5.3620   -9.7400 C.3       6 GLP5        0.0000 
     52 CA         43.1210   -2.7363   -9.6730 C.3       3 GLC5        0.0000 
     53 CA         44.2045   -2.9893   -7.0422 C.3       3 GLC5        0.0000 
     54 CA         43.5980   -3.0080   -5.0310 C.3       6 GLP5        0.0000 
     55 CA         44.7512   -0.4455   -8.1950 C.3       3 GLC5        0.0000 
     56 CA         45.1820   -2.5030   -8.6970 C.3       9 GLL5        0.0000 
     57 CA         43.8490    1.2260   -7.3600 C.3       6 GLP5        0.0000 
     58 CA         43.6778   -2.0360   -9.1415 C.3       3 GLC5        0.0000 
     59 CA         46.1250   -1.7310   -9.3630 C.3       9 GLL5        0.0000 
     60 CA         47.4059   -2.9073   -9.1685 C.3       3 GLC5        0.0000 
     61 CA         48.8220   -3.8090   -8.4580 C.3       6 GLP5        0.0000 
     62 CA         45.6040   -4.8486  -10.9450 C.3       3 GLC5        0.0000 
     63 CA         45.5840   -2.8250  -11.4410 C.3       9 GLL5        0.0000 
     64 CA         46.1460   -6.5260  -11.1230 C.3       6 GLP5        0.0000 
     65 CA         43.0035   -4.8792  -17.1856 C.3       3 GLC5        0.0000 
     66 CA         42.8080   -4.0970  -15.0380 C.3       9 GLL5        0.0000 
     67 CA         43.5500   -5.5490  -18.7140 C.3       6 GLP5        0.0000 
     68 CA         39.8740   -6.7078  -13.1133 C.3       3 GLC5        0.0000 
     69 CA         41.0340   -5.7060  -14.8710 C.3       9 GLL5        0.0000 
     70 CA         39.4270   -7.5100  -11.1730 C.3       6 GLP5        0.0000 
     71 CA         41.2897   -7.1629  -16.6441 C.3       3 GLC5        0.0000 
     72 CA         42.6280   -7.6770  -17.7320 C.3       6 GLP5        0.0000 
     73 CA         31.3690   -7.7293  -14.7970 C.3       3 GLC5        0.0000 
     74 CA         31.8026   -8.5117  -11.9509 C.3       3 GLC5        0.0000 
     75 CA         31.0100  -10.3370  -12.9910 C.3       9 GLL5        0.0000 
     76 CA         32.7960   -7.0140  -12.2380 C.3       6 GLP5        0.0000 
@<TRIPOS>BOND
@<TRIPOS>SUBSTRUCTURE
     1 ALC1       46 GROUP        1 X    ALC  0     ROOT ALC X 1
     2 SEC2       17 GROUP        1 X    SEC  0     **** SEC X 2
     3 GLC5        1 GROUP        1 X    GLC  0     **** GLC X 6
     4 ALP1       48 GROUP        1 Y    ALP  0     ROOT ALP Y 8
     5 SEP2       19 GROUP        1 Y    SEP  0     **** SEP Y 9
     6 GLP5        3 GROUP        1 Y    GLP  0     **** GLP Y 13
     7 ALL1       47 GROUP        1 Z    ALL  0     ROOT ALL Z 15
     8 SEL2       18 GROUP        1 Z    SEL  0     **** SEL Z 16
     9 GLL5        2 GROUP        1 Z    GLL  0     **** GLL Z 20
@<TRIPOS>SET

