#    Name: 3g8e_IS1_1_ligand
#    Modification time : Tue Mar 25 07:21:30 2014

@<TRIPOS>MOLECULE
3g8e_IS1_1_ligand
   76    79     1     0     0
SMALL
NO_CHARGES


@<TRIPOS>ATOM
      1 CAM        44.6400   -3.5970  -10.7760 C.ar      1 IS1501      0.0000 
      2 CAI        44.4400   -3.4380   -9.4100 C.ar      1 IS1501      0.0000 
      3 CAH        45.1820   -2.5030   -8.6970 C.ar      1 IS1501      0.0000 
      4 CAJ        46.1250   -1.7310   -9.3630 C.ar      1 IS1501      0.0000 
      5 CAN        46.3260   -1.8940  -10.7280 C.ar      1 IS1501      0.0000 
      6 CBE        45.5840   -2.8250  -11.4410 C.ar      1 IS1501      0.0000 
      7 CBC        45.7900   -2.9590  -12.9520 C.2       1 IS1501      0.0000 
      8 OAB        46.9000   -3.2330  -13.3990 O.2       1 IS1501      0.0000 
      9 NBK        44.7810   -2.7740  -13.7920 N.am      1 IS1501      0.0000 
     10 CAY        45.0280   -2.8730  -15.2500 C.3       1 IS1501      0.0000 
     11 CAW        43.8380   -3.4910  -15.9930 C.3       1 IS1501      0.0000 
     12 CAX        43.4610   -2.4200  -13.2200 C.3       1 IS1501      0.0000 
     13 CAV        42.3230   -3.0650  -14.0070 C.3       1 IS1501      0.0000 
     14 CBF        42.8080   -4.0970  -15.0380 C.3       1 IS1501      0.0000 
     15 CAU        41.5910   -4.6250  -15.7990 C.3       1 IS1501      0.0000 
     16 CAS        41.0340   -5.7060  -14.8710 C.3       1 IS1501      0.0000 
     17 CAR        39.6080   -6.1050  -15.2360 C.3       1 IS1501      0.0000 
     18 CAT        39.5820   -7.3920  -16.0590 C.3       1 IS1501      0.0000 
     19 NAZ        38.1660   -7.7270  -16.2270 N.am      1 IS1501      0.0000 
     20 CBB        37.4670   -8.2690  -15.2300 C.2       1 IS1501      0.0000 
     21 OAA        37.9360   -8.5840  -14.1450 O.2       1 IS1501      0.0000 
     22 CAF        36.1280   -8.5150  -15.5180 C.2       1 IS1501      0.0000 
     23 CAG        35.3510   -9.1820  -14.5880 C.2       1 IS1501      0.0000 
     24 CBD        34.0150   -9.4190  -14.8960 C.ar      1 IS1501      0.0000 
     25 CAP        33.2120   -9.9920  -13.9310 C.ar      1 IS1501      0.0000 
     26 CAL        33.4480   -9.0140  -16.1010 C.ar      1 IS1501      0.0000 
     27 CAK        32.0950   -9.1830  -16.3740 C.ar      1 IS1501      0.0000 
     28 CAO        31.2810   -9.7460  -15.4000 C.ar      1 IS1501      0.0000 
     29 NBL        31.8480  -10.1240  -14.1860 N.pl3     1 IS1501      0.0000 
     30 C1'        31.0100  -10.3370  -12.9910 C.3       1 IS1501      0.0000 
     31 O4'        29.6040  -10.0600  -13.0730 O.3       1 IS1501      0.0000 
     32 C4'        29.1930   -9.8840  -11.8200 C.3       1 IS1501      0.0000 
     33 C5'        28.1080   -8.7500  -11.7390 C.3       1 IS1501      0.0000 
     34 O5'        27.4220   -8.8430  -10.4830 O.3       1 IS1501      0.0000 
     35 C3'        30.4280  -10.1450  -10.9090 C.3       1 IS1501      0.0000 
     36 O3'        30.5370  -11.1930   -9.9940 O.3       1 IS1501      0.0000 
     37 C2'        31.3710   -9.4110  -11.8460 C.3       1 IS1501      0.0000 
     38 O2'        32.7460   -9.4970  -11.4470 O.3       1 IS1501      0.0000 
     39 H          44.0849   -4.2914  -11.2981 H         1 IS1501      0.0000 
     40 H          43.7389   -4.0153   -8.9232 H         1 IS1501      0.0000 
     41 H          45.0341   -2.3852   -7.6905 H         1 IS1501      0.0000 
     42 H          46.6782   -1.0341   -8.8426 H         1 IS1501      0.0000 
     43 H          47.0315   -1.3189  -11.2140 H         1 IS1501      0.0000 
     44 H          45.9147   -3.4910  -15.4453 H         1 IS1501      0.0000 
     45 H          45.2187   -1.8774  -15.6728 H         1 IS1501      0.0000 
     46 H          44.2047   -4.2711  -16.6673 H         1 IS1501      0.0000 
     47 H          43.3549   -2.7177  -16.5982 H         1 IS1501      0.0000 
     48 H          43.3202   -1.3328  -13.2330 H         1 IS1501      0.0000 
     49 H          43.3962   -2.7543  -12.1778 H         1 IS1501      0.0000 
     50 H          41.7569   -2.2826  -14.5298 H         1 IS1501      0.0000 
     51 H          41.6360   -3.5602  -13.3079 H         1 IS1501      0.0000 
     52 H          43.2590   -4.9203  -14.5042 H         1 IS1501      0.0000 
     53 H          41.9003   -5.0610  -16.7125 H         1 IS1501      0.0000 
     54 H          40.8782   -3.8516  -15.9171 H         1 IS1501      0.0000 
     55 H          41.0517   -5.3354  -13.8404 H         1 IS1501      0.0000 
     56 H          41.6798   -6.5891  -14.9238 H         1 IS1501      0.0000 
     57 H          39.1456   -5.3017  -15.8126 H         1 IS1501      0.0000 
     58 H          39.0301   -6.2527  -14.3218 H         1 IS1501      0.0000 
     59 H          40.1026   -8.1596  -15.5151 H         1 IS1501      0.0000 
     60 H          40.0537   -7.2046  -17.0069 H         1 IS1501      0.0000 
     61 H          37.7561   -7.5181  -17.1529 H         1 IS1501      0.0000 
     62 H          35.7270   -8.2051  -16.4069 H         1 IS1501      0.0000 
     63 H          35.7421   -9.4923  -13.7021 H         1 IS1501      0.0000 
     64 H          33.6032  -10.3150  -13.0453 H         1 IS1501      0.0000 
     65 H          34.0574   -8.5700  -16.8212 H         1 IS1501      0.0000 
     66 H          31.7081   -8.8981  -17.2741 H         1 IS1501      0.0000 
     67 H          30.2838   -9.8811  -15.5696 H         1 IS1501      0.0000 
     68 H          31.1443  -11.3492  -12.5871 H         1 IS1501      0.0000 
     69 H          28.5307  -10.8837  -11.6211 H         1 IS1501      0.0000 
     70 H          27.4403   -8.8909  -12.5876 H         1 IS1501      0.0000 
     71 H          28.6322   -7.8027  -11.8560 H         1 IS1501      0.0000 
     72 H          30.1751   -9.0983  -10.1801 H         1 IS1501      0.0000 
     73 H          30.9736   -8.4833  -12.0407 H         1 IS1501      0.0000 
     74 H          27.9627   -9.4853   -9.9398 H         1 IS1501      0.0000 
     75 H          31.4851  -11.5024  -10.0668 H         1 IS1501      0.0000 
     76 H          32.8258   -8.8850  -10.6602 H         1 IS1501      0.0000 
@<TRIPOS>BOND
     1    2    1 ar   
     2    6    1 ar   
     3   39    1 1    
     4    3    2 ar   
     5   40    2 1    
     6    4    3 ar   
     7   41    3 1    
     8    5    4 ar   
     9   42    4 1    
    10    6    5 ar   
    11   43    5 1    
    12    7    6 1    
    13    8    7 2    
    14    9    7 am   
    15   10    9 1    
    16   12    9 1    
    17   11   10 1    
    18   44   10 1    
    19   45   10 1    
    20   14   11 1    
    21   46   11 1    
    22   47   11 1    
    23   13   12 1    
    24   48   12 1    
    25   49   12 1    
    26   14   13 1    
    27   50   13 1    
    28   51   13 1    
    29   15   14 1    
    30   52   14 1    
    31   16   15 1    
    32   53   15 1    
    33   54   15 1    
    34   17   16 1    
    35   55   16 1    
    36   56   16 1    
    37   18   17 1    
    38   57   17 1    
    39   58   17 1    
    40   19   18 1    
    41   59   18 1    
    42   60   18 1    
    43   20   19 am   
    44   61   19 1    
    45   21   20 2    
    46   22   20 1    
    47   23   22 2    
    48   62   22 1    
    49   24   23 1    
    50   63   23 1    
    51   25   24 ar   
    52   26   24 ar   
    53   29   25 ar   
    54   64   25 1    
    55   27   26 ar   
    56   65   26 1    
    57   28   27 ar   
    58   66   27 1    
    59   29   28 ar   
    60   67   28 1    
    61   30   29 1    
    62   31   30 1    
    63   37   30 1    
    64   68   30 1    
    65   32   31 1    
    66   33   32 1    
    67   35   32 1    
    68   69   32 1    
    69   34   33 1    
    70   70   33 1    
    71   71   33 1    
    72   74   34 1    
    73   36   35 1    
    74   37   35 1    
    75   72   35 1    
    76   75   36 1    
    77   38   37 1    
    78   73   37 1    
    79   76   38 1    
@<TRIPOS>SUBSTRUCTURE
     1 IS1501      1 GROUP   
@<TRIPOS>SET

