#    Name: 7prc_CET_1_INTS_M
#    Modification time : Tue Mar 25 13:57:59 2014

@<TRIPOS>MOLECULE
7prc_CET_1_INTS_M
   56     0     9     0     0
SMALL
NO_CHARGES


@<TRIPOS>ATOM
      1 CA        131.4205   68.7430    1.0075 C.3       3 GLC5        0.0000 
      2 CA        131.1710   69.7820   -0.4740 C.3       9 GLL5        0.0000 
      3 CA        131.6700   67.7040    2.4890 C.3       6 GLP5        0.0000 
      4 CA        131.3175   70.8760    1.1960 C.3       3 GLC5        0.0000 
      5 CA        131.4640   71.9700    2.8660 C.3       6 GLP5        0.0000 
      6 CA        133.0365   69.4405   -0.8885 C.3       3 GLC5        0.0000 
      7 CA        134.9020   69.0990   -1.3030 C.3       6 GLP5        0.0000 
      8 CA        133.4340   68.2270   -4.4750 C.3       3 GLC5        0.0000 
      9 CA        131.4810   68.5820   -4.1020 C.3       9 GLL5        0.0000 
     10 CA        135.3870   67.8720   -4.8480 C.3       6 GLP5        0.0000 
     11 CA        132.3220   68.9355   -5.9850 C.3       3 GLC5        0.0000 
     12 CA        133.1630   69.2890   -7.8680 C.3       6 GLP5        0.0000 
     13 CA        130.1455   69.9855   -4.7735 C.3       3 GLC5        0.0000 
     14 CA        128.8100   71.3890   -5.4450 C.3       6 GLP5        0.0000 
     15 N         131.5440   70.0365   -6.1020 N.am      2 SEC2        0.0000 
     16 N         132.0340   69.6060   -4.7680 N.am      8 SEL2        0.0000 
     17 N         131.0540   70.4670   -7.4360 N.am      5 SEP2        0.0000 
     18 CA        133.8435   69.2735   -4.4385 C.3       3 GLC5        0.0000 
     19 CA        132.3000   70.6750   -4.0290 C.3       9 GLL5        0.0000 
     20 CA        132.7315   69.9820   -5.9485 C.3       3 GLC5        0.0000 
     21 CA        130.5550   71.0320   -4.7370 C.3       3 GLC5        0.0000 
     22 O         132.0565   67.0725   -5.9855 O.2       1 ALC1        0.0000 
     23 O         131.1740   67.4980   -4.8070 O.2       7 ALL1        0.0000 
     24 O         132.9390   66.6470   -7.1640 O.2       4 ALP1        0.0000 
     25 CA        131.3275   65.6880   -1.1415 C.3       3 GLC5        0.0000 
     26 CA        131.4040   65.6450   -3.2890 C.3       9 GLL5        0.0000 
     27 CA        131.2510   65.7310    1.0060 C.3       6 GLP5        0.0000 
     28 CA        128.4705   68.9390   -5.7525 C.3       3 GLC5        0.0000 
     29 CA        128.3000   67.2250   -4.7240 C.3       9 GLL5        0.0000 
     30 CA        128.6410   70.6530   -6.7810 C.3       6 GLP5        0.0000 
     31 CA        126.5680   68.0105   -3.8595 C.3       3 GLC5        0.0000 
     32 CA        124.8360   68.7960   -2.9950 C.3       6 GLP5        0.0000 
     33 CA        130.0905   66.0920   -7.3410 C.3       3 GLC5        0.0000 
     34 CA        130.3090   65.3050   -5.4500 C.3       9 GLL5        0.0000 
     35 CA        129.8720   66.8790   -9.2320 C.3       6 GLP5        0.0000 
     36 O         133.5665   71.5000   -5.7940 O.2       1 ALC1        0.0000 
     37 O         132.8510   71.7500   -4.6160 O.2       7 ALL1        0.0000 
     38 O         134.2820   71.2500   -6.9720 O.2       4 ALP1        0.0000 
     39 CA        134.4700   72.9675   -2.2845 C.3       3 GLC5        0.0000 
     40 CA        133.1950   72.9960   -3.9250 C.3       9 GLL5        0.0000 
     41 CA        135.7450   72.9390   -0.6440 C.3       6 GLP5        0.0000 
     42 CA        135.5195   74.4665   -4.3575 C.3       3 GLC5        0.0000 
     43 CA        133.6730   74.0740   -4.8530 C.3       9 GLL5        0.0000 
     44 CA        137.3660   74.8590   -3.8620 C.3       6 GLP5        0.0000 
     45 CA        132.3920   75.6855   -4.8145 C.3       3 GLC5        0.0000 
     46 CA        131.1110   77.2970   -4.7760 C.3       6 GLP5        0.0000 
     47 CA        129.5712   70.3777   -1.4792 C.3       3 GLC5        0.0000 
     48 CA        131.5200   69.7050   -2.1990 C.3       9 GLL5        0.0000 
     49 CA        127.7970   71.0120   -1.6220 C.3       6 GLP5        0.0000 
     50 CA        132.8317   66.3537   -3.2532 C.3       3 GLC5        0.0000 
     51 CA        130.5390   66.2900   -4.2840 C.3       9 GLL5        0.0000 
     52 CA        134.6920   66.7400   -2.7200 C.3       6 GLP5        0.0000 
     53 CA        132.0911   64.6236   -4.9831 C.3       3 GLC5        0.0000 
     54 CA        133.5420   63.6110   -5.3480 C.3       6 GLP5        0.0000 
     55 CA        132.2705   74.0535   -5.8910 C.3       3 GLC5        0.0000 
     56 CA        131.1070   74.5720   -7.3930 C.3       6 GLP5        0.0000 
@<TRIPOS>BOND
@<TRIPOS>SUBSTRUCTURE
     1 ALC1       22 GROUP        1 X    ALC  0     ROOT ALC X 1
     2 SEC2       15 GROUP        1 X    SEC  0     **** SEC X 2
     3 GLC5        1 GROUP        1 X    GLC  0     **** GLC X 6
     4 ALP1       24 GROUP        1 Y    ALP  0     ROOT ALP Y 8
     5 SEP2       17 GROUP        1 Y    SEP  0     **** SEP Y 9
     6 GLP5        3 GROUP        1 Y    GLP  0     **** GLP Y 13
     7 ALL1       23 GROUP        1 Z    ALL  0     ROOT ALL Z 15
     8 SEL2       16 GROUP        1 Z    SEL  0     **** SEL Z 16
     9 GLL5        2 GROUP        1 Z    GLL  0     **** GLL Z 20
@<TRIPOS>SET

