#    Name: 7prc_CET_1_ligand
#    Modification time : Tue Mar 25 13:57:59 2014

@<TRIPOS>MOLECULE
7prc_CET_1_ligand
   32    32     1     0     0
SMALL
NO_CHARGES


@<TRIPOS>ATOM
      1 N1        132.0550   70.7860   -2.6830 N.ar      1 CET502      0.0000 
      2 C2        131.5200   69.7050   -2.1990 C.ar      1 CET502      0.0000 
      3 CL2       131.1710   69.7820   -0.4740 Cl        1 CET502      0.0000 
      4 N3        131.2010   68.5720   -2.7680 N.ar      1 CET502      0.0000 
      5 C4        131.4810   68.5820   -4.1020 C.ar      1 CET502      0.0000 
      6 N5        132.0340   69.6060   -4.7680 N.ar      1 CET502      0.0000 
      7 C6        132.3000   70.6750   -4.0290 C.ar      1 CET502      0.0000 
      8 N7        131.1740   67.4980   -4.8070 N.pl3     1 CET502      0.0000 
      9 C8        130.5390   66.2900   -4.2840 C.3       1 CET502      0.0000 
     10 C9        131.4040   65.6450   -3.2890 C.1       1 CET502      0.0000 
     11 N9        132.0690   65.0980   -2.4640 N.1       1 CET502      0.0000 
     12 C10       129.2150   66.6890   -3.6510 C.3       1 CET502      0.0000 
     13 C11       128.3000   67.2250   -4.7240 C.3       1 CET502      0.0000 
     14 C12       130.3090   65.3050   -5.4500 C.3       1 CET502      0.0000 
     15 N13       132.8510   71.7500   -4.6160 N.pl3     1 CET502      0.0000 
     16 C14       133.1950   72.9960   -3.9250 C.3       1 CET502      0.0000 
     17 C15       133.6730   74.0740   -4.8530 C.3       1 CET502      0.0000 
     18 H         131.3900   67.4555   -5.8536 H         1 CET502      0.0000 
     19 H         129.3914   67.4537   -2.9033 H         1 CET502      0.0000 
     20 H         128.7646   65.8203   -3.1848 H         1 CET502      0.0000 
     21 H         133.0718   71.7453   -5.6521 H         1 CET502      0.0000 
     22 H         133.9825   72.8053   -3.1680 H         1 CET502      0.0000 
     23 H         132.3160   73.3747   -3.3650 H         1 CET502      0.0000 
     24 H         128.6878   68.0286   -5.1754 H         1 CET502      0.0000 
     25 H         128.1243   66.5451   -5.4360 H         1 CET502      0.0000 
     26 H         127.4121   67.4971   -4.3531 H         1 CET502      0.0000 
     27 H         131.1671   65.0506   -5.8960 H         1 CET502      0.0000 
     28 H         129.8769   64.4578   -5.1408 H         1 CET502      0.0000 
     29 H         129.7169   65.6956   -6.1549 H         1 CET502      0.0000 
     30 H         133.9054   74.9124   -4.3599 H         1 CET502      0.0000 
     31 H         134.4900   73.7945   -5.3573 H         1 CET502      0.0000 
     32 H         132.9785   74.3155   -5.5307 H         1 CET502      0.0000 
@<TRIPOS>BOND
     1    2    1 ar   
     2    7    1 ar   
     3    3    2 1    
     4    4    2 ar   
     5    5    4 ar   
     6    6    5 ar   
     7    8    5 1    
     8    7    6 ar   
     9   15    7 1    
    10    9    8 1    
    11   18    8 1    
    12   10    9 1    
    13   12    9 1    
    14   14    9 1    
    15   11   10 3    
    16   13   12 1    
    17   19   12 1    
    18   20   12 1    
    19   24   13 1    
    20   25   13 1    
    21   26   13 1    
    22   27   14 1    
    23   28   14 1    
    24   29   14 1    
    25   16   15 1    
    26   21   15 1    
    27   17   16 1    
    28   22   16 1    
    29   23   16 1    
    30   30   17 1    
    31   31   17 1    
    32   32   17 1    
@<TRIPOS>SUBSTRUCTURE
     1 CET502      1 GROUP   
@<TRIPOS>SET

