#    Name: 3dmf_SAM_1_INTS_M
#    Modification time : Mon Mar 24 23:46:38 2014

@<TRIPOS>MOLECULE
3dmf_SAM_1_INTS_M
   72     0     9     0     0
SMALL
NO_CHARGES


@<TRIPOS>ATOM
      1 O          25.0065   59.3360   21.1810 O.2       1 ALC1        0.0000 
      2 O          24.1720   58.7360   22.1480 O.2       7 ALL1        0.0000 
      3 O          25.8410   59.9360   20.2140 O.2       4 ALP1        0.0000 
      4 O          22.9505   59.4525   22.2595 O.2       1 ALC1        0.0000 
      5 O          21.7290   60.1690   22.3710 O.2       4 ALP1        0.0000 
      6 N          23.6635   55.8645   24.7425 N.am      2 SEC2        0.0000 
      7 N          23.7130   56.7000   23.7680 N.am      8 SEL2        0.0000 
      8 N          23.6140   55.0290   25.7170 N.am      5 SEP2        0.0000 
      9 CA         26.5980   56.7210   23.3100 C.3       3 GLC5        0.0000 
     10 CA         26.0990   56.4750   21.3730 C.3       9 GLL5        0.0000 
     11 CA         27.0970   56.9670   25.2470 C.3       6 GLP5        0.0000 
     12 CA         26.5585   54.0595   20.0845 C.3       3 GLC5        0.0000 
     13 CA         27.2940   55.5660   20.3460 C.3       9 GLL5        0.0000 
     14 CA         25.8230   52.5530   19.8230 C.3       6 GLP5        0.0000 
     15 CA         27.3980   53.2390   22.0085 C.3       3 GLC5        0.0000 
     16 CA         28.3210   54.7750   21.6150 C.3       9 GLL5        0.0000 
     17 CA         26.4750   51.7030   22.4020 C.3       6 GLP5        0.0000 
     18 CA         27.7090   55.8710   23.4310 C.3       3 GLC5        0.0000 
     19 CA         30.3265   55.1825   21.0180 C.3       3 GLC5        0.0000 
     20 CA         32.3320   55.5900   20.4210 C.3       6 GLP5        0.0000 
     21 CA         29.5365   53.1305   22.4480 C.3       3 GLC5        0.0000 
     22 CA         30.7520   51.4860   23.2810 C.3       6 GLP5        0.0000 
     23 CA         30.3785   57.4390   20.0450 C.3       3 GLC5        0.0000 
     24 CA         28.4460   56.8540   19.7960 C.3       9 GLL5        0.0000 
     25 CA         32.3110   58.0240   20.2940 C.3       6 GLP5        0.0000 
     26 CA         27.6395   59.5650   18.8985 C.3       3 GLC5        0.0000 
     27 CA         27.9020   57.6920   18.6340 C.3       9 GLL5        0.0000 
     28 CA         27.3770   61.4380   19.1630 C.3       6 GLP5        0.0000 
     29 CA         26.4545   54.9475   17.9195 C.3       3 GLC5        0.0000 
     30 CA         27.4210   56.8890   17.4100 C.3       9 GLL5        0.0000 
     31 CA         25.4880   53.0060   18.4290 C.3       6 GLP5        0.0000 
     32 O          25.8375   58.4440   16.6605 O.2       1 ALC1        0.0000 
     33 O          26.1010   57.2400   17.1050 O.2       7 ALL1        0.0000 
     34 O          25.5740   59.6480   16.2160 O.2       4 ALP1        0.0000 
     35 O          27.2360   58.2580   14.6185 O.2       1 ALC1        0.0000 
     36 O          27.9580   57.2510   14.9830 O.2       7 ALL1        0.0000 
     37 O          26.5140   59.2650   14.2540 O.2       4 ALP1        0.0000 
     38 CA         28.0820   60.0775   17.9995 C.3       3 GLC5        0.0000 
     39 CA         28.7870   58.7170   16.8360 C.3       9 GLL5        0.0000 
     40 CA         31.8465   63.8565   13.8345 C.3       3 GLC5        0.0000 
     41 CA         31.9210   61.9810   15.0700 C.3       9 GLL5        0.0000 
     42 CA         31.7720   65.7320   12.5990 C.3       6 GLP5        0.0000 
     43 CA         33.0095   63.5745   15.8475 C.3       3 GLC5        0.0000 
     44 CA         34.0980   65.1680   16.6250 C.3       6 GLP5        0.0000 
     45 O          33.6295   63.3565   13.7420 O.2       1 ALC1        0.0000 
     46 O          33.0800   62.2250   14.4500 O.2       7 ALL1        0.0000 
     47 O          34.1790   64.4880   13.0340 O.2       4 ALP1        0.0000 
     48 N          31.4500   64.4165   15.1865 N.am      2 SEC2        0.0000 
     49 N          31.0920   63.0390   15.3630 N.am      8 SEL2        0.0000 
     50 N          31.8080   65.7940   15.0100 N.am      5 SEP2        0.0000 
     51 CA         28.6175   62.1630   17.5500 C.3       3 GLC5        0.0000 
     52 CA         29.8580   62.8880   15.9370 C.3       9 GLL5        0.0000 
     53 CA         28.0020   62.8930   15.4225 C.3       3 GLC5        0.0000 
     54 CA         26.1460   62.8980   14.9080 C.3       6 GLP5        0.0000 
     55 CA         29.9465   62.1930   14.1830 C.3       3 GLC5        0.0000 
     56 CA         30.0350   61.4980   12.4290 C.3       6 GLP5        0.0000 
     57 CA         30.8675   64.6425   16.1490 C.3       3 GLC5        0.0000 
     58 CA         31.8770   66.3970   16.3610 C.3       6 GLP5        0.0000 
     59 N          28.6240   61.8460   14.8355 N.am      2 SEC2        0.0000 
     60 N          29.3790   61.6260   16.2640 N.am      8 SEL2        0.0000 
     61 N          27.8690   62.0660   13.4070 N.am      5 SEP2        0.0000 
     62 CA         28.7995   61.0045   17.5855 C.3       3 GLC5        0.0000 
     63 CA         30.2220   60.5710   16.0080 C.3       9 GLL5        0.0000 
     64 CA         23.5287   57.6947   19.3362 C.3       3 GLC5        0.0000 
     65 CA         24.7840   56.8000   20.6480 C.3       9 GLL5        0.0000 
     66 CA         22.8080   58.2640   17.5840 C.3       6 GLP5        0.0000 
     67 CA         25.2642   54.8243   20.9678 C.3       3 GLC5        0.0000 
     68 CA         25.0870   53.0110   20.9250 C.3       6 GLP5        0.0000 
     69 CA         30.4983   61.2276   14.0279 C.3       3 GLC5        0.0000 
     70 CA         31.4810   60.7060   15.4210 C.3       9 GLL5        0.0000 
     71 CA         32.6642   60.8706   16.6139 C.3       3 GLC5        0.0000 
     72 CA         34.3670   60.7840   17.6010 C.3       6 GLP5        0.0000 
@<TRIPOS>BOND
@<TRIPOS>SUBSTRUCTURE
     1 ALC1        1 GROUP        1 X    ALC  0     ROOT ALC X 1
     2 SEC2        6 GROUP        1 X    SEC  0     **** SEC X 2
     3 GLC5        9 GROUP        1 X    GLC  0     **** GLC X 6
     4 ALP1        3 GROUP        1 Y    ALP  0     ROOT ALP Y 8
     5 SEP2        8 GROUP        1 Y    SEP  0     **** SEP Y 9
     6 GLP5       11 GROUP        1 Y    GLP  0     **** GLP Y 13
     7 ALL1        2 GROUP        1 Z    ALL  0     ROOT ALL Z 15
     8 SEL2        7 GROUP        1 Z    SEL  0     **** SEL Z 16
     9 GLL5       10 GROUP        1 Z    GLL  0     **** GLL Z 20
@<TRIPOS>SET

