#    Name: 3dmf_SAM_1_ligand
#    Modification time : Mon Mar 24 23:46:38 2014

@<TRIPOS>MOLECULE
3dmf_SAM_1_ligand
   50    52     1     0     0
SMALL
NO_CHARGES


@<TRIPOS>ATOM
      1 N          24.1720   58.7360   22.1480 N.4       1 SAM388      0.0000 
      2 CA         23.7150   57.4510   21.5290 C.3       1 SAM388      0.0000 
      3 C          23.3390   56.4590   22.6250 C.2       1 SAM388      0.0000 
      4 O          23.7130   56.7000   23.7680 O.co2     1 SAM388      0.0000 
      5 OXT        22.7060   55.4530   22.3410 O.co2     1 SAM388      0.0000 
      6 CB         24.7840   56.8000   20.6480 C.3       1 SAM388      0.0000 
      7 CG         26.0990   56.4750   21.3730 C.3       1 SAM388      0.0000 
      8 SD         27.2940   55.5660   20.3460 S.3       1 SAM388      0.0000 
      9 CE         28.3210   54.7750   21.6150 C.3       1 SAM388      0.0000 
     10 C5'        28.4460   56.8540   19.7960 C.3       1 SAM388      0.0000 
     11 C4'        27.9020   57.6920   18.6340 C.3       1 SAM388      0.0000 
     12 O4'        28.9760   58.5450   18.2270 O.3       1 SAM388      0.0000 
     13 C3'        27.4210   56.8890   17.4100 C.3       1 SAM388      0.0000 
     14 O3'        26.1010   57.2400   17.1050 O.3       1 SAM388      0.0000 
     15 C2'        28.4190   57.3310   16.3350 C.3       1 SAM388      0.0000 
     16 O2'        27.9580   57.2510   14.9830 O.3       1 SAM388      0.0000 
     17 C1'        28.7870   58.7170   16.8360 C.3       1 SAM388      0.0000 
     18 N9         30.0200   59.2420   16.2290 N.pl3     1 SAM388      0.0000 
     19 C8         31.1310   58.5600   15.7840 C.2       1 SAM388      0.0000 
     20 N7         32.0270   59.4690   15.2990 N.2       1 SAM388      0.0000 
     21 C5         31.4810   60.7060   15.4210 C.ar      1 SAM388      0.0000 
     22 C6         31.9210   61.9810   15.0700 C.ar      1 SAM388      0.0000 
     23 N6         33.0800   62.2250   14.4500 N.pl3     1 SAM388      0.0000 
     24 N1         31.0920   63.0390   15.3630 N.ar      1 SAM388      0.0000 
     25 C2         29.8580   62.8880   15.9370 C.ar      1 SAM388      0.0000 
     26 N3         29.3790   61.6260   16.2640 N.ar      1 SAM388      0.0000 
     27 C4         30.2220   60.5710   16.0080 C.ar      1 SAM388      0.0000 
     28 H          22.8343   57.6246   20.9262 H         1 SAM388      0.0000 
     29 H          25.0045   57.4699   19.7987 H         1 SAM388      0.0000 
     30 H          24.3761   55.8676   20.2202 H         1 SAM388      0.0000 
     31 H          25.9703   55.8154   22.2128 H         1 SAM388      0.0000 
     32 H          26.6576   57.3501   21.6542 H         1 SAM388      0.0000 
     33 H          29.3208   56.2863   19.5389 H         1 SAM388      0.0000 
     34 H          28.6026   57.4220   20.6941 H         1 SAM388      0.0000 
     35 H          27.0806   58.2914   19.0019 H         1 SAM388      0.0000 
     36 H          27.5848   55.8684   17.6186 H         1 SAM388      0.0000 
     37 H          29.3190   56.7087   16.5089 H         1 SAM388      0.0000 
     38 H          27.9567   59.3691   16.6482 H         1 SAM388      0.0000 
     39 H          31.2481   57.6111   15.8129 H         1 SAM388      0.0000 
     40 H          33.2906   63.1865   14.2734 H         1 SAM388      0.0000 
     41 H          33.6323   61.4241   14.2184 H         1 SAM388      0.0000 
     42 H          29.2690   63.7183   16.1328 H         1 SAM388      0.0000 
     43 H          24.8418   59.2071   21.5741 H         1 SAM388      0.0000 
     44 H          23.4120   59.3698   22.2920 H         1 SAM388      0.0000 
     45 H          24.6021   58.5870   23.0384 H         1 SAM388      0.0000 
     46 H          28.9313   54.0867   21.2229 H         1 SAM388      0.0000 
     47 H          28.8963   55.4382   22.0937 H         1 SAM388      0.0000 
     48 H          27.7662   54.3143   22.3078 H         1 SAM388      0.0000 
     49 H          26.1562   58.1754   16.7559 H         1 SAM388      0.0000 
     50 H          27.1018   57.7676   14.9707 H         1 SAM388      0.0000 
@<TRIPOS>BOND
     1    2    1 1    
     2   43    1 1    
     3   44    1 1    
     4   45    1 1    
     5    3    2 1    
     6    6    2 1    
     7   28    2 1    
     8    4    3 ar   
     9    5    3 ar   
    10    7    6 1    
    11   29    6 1    
    12   30    6 1    
    13    8    7 1    
    14   31    7 1    
    15   32    7 1    
    16    9    8 1    
    17   10    8 1    
    18   46    9 1    
    19   47    9 1    
    20   48    9 1    
    21   11   10 1    
    22   33   10 1    
    23   34   10 1    
    24   12   11 1    
    25   13   11 1    
    26   35   11 1    
    27   17   12 1    
    28   14   13 1    
    29   15   13 1    
    30   36   13 1    
    31   49   14 1    
    32   16   15 1    
    33   17   15 1    
    34   37   15 1    
    35   50   16 1    
    36   18   17 1    
    37   38   17 1    
    38   19   18 1    
    39   27   18 1    
    40   20   19 2    
    41   39   19 1    
    42   21   20 1    
    43   22   21 ar   
    44   27   21 ar   
    45   23   22 1    
    46   24   22 ar   
    47   40   23 1    
    48   41   23 1    
    49   25   24 ar   
    50   26   25 ar   
    51   42   25 1    
    52   27   26 ar   
@<TRIPOS>SUBSTRUCTURE
     1 SAM388      1 GROUP   
@<TRIPOS>SET

