#    Name: 4icy_FAD_1_INTS_M
#    Modification time : Tue Mar 25 03:42:43 2014

@<TRIPOS>MOLECULE
4icy_FAD_1_INTS_M
  119     0     9     0     0
SMALL
NO_CHARGES


@<TRIPOS>ATOM
      1 CA         27.3900   29.8030   13.6190 C.3       3 GLC5        0.0000 
      2 CA         26.0340   31.0090   14.1420 C.3       9 GLL5        0.0000 
      3 CA         28.7460   28.5970   13.0960 C.3       6 GLP5        0.0000 
      4 CA         26.1320   33.8425   14.4570 C.3       3 GLC5        0.0000 
      5 CA         25.3570   32.2790   13.6680 C.3       9 GLL5        0.0000 
      6 CA         26.9070   35.4060   15.2460 C.3       6 GLP5        0.0000 
      7 O          23.1700   33.8910   13.5270 O.2       1 ALC1        0.0000 
      8 O          23.0630   32.5310   13.2790 O.2       7 ALL1        0.0000 
      9 O          23.2770   35.2510   13.7750 O.2       4 ALP1        0.0000 
     10 O          23.2155   34.5390   11.2035 O.2       1 ALC1        0.0000 
     11 O          23.5650   33.3350   10.7180 O.2       7 ALL1        0.0000 
     12 O          22.8660   35.7430   11.6890 O.2       4 ALP1        0.0000 
     13 CA         26.2585   34.5855   13.5720 C.3       3 GLC5        0.0000 
     14 CA         25.6100   33.7650   11.8980 C.3       9 GLL5        0.0000 
     15 CA         24.8730   34.8330   10.0640 C.3       3 GLC5        0.0000 
     16 CA         24.1360   35.9010    8.2300 C.3       6 GLP5        0.0000 
     17 CA         27.5265   33.0580   12.6255 C.3       3 GLC5        0.0000 
     18 CA         29.4430   32.3510   13.3530 C.3       6 GLP5        0.0000 
     19 CA         26.4725   35.1510    8.3615 C.3       3 GLC5        0.0000 
     20 CA         28.1010   35.1970    9.5870 C.3       9 GLL5        0.0000 
     21 CA         24.8440   35.1050    7.1360 C.3       6 GLP5        0.0000 
     22 CA         28.1095   37.3740    7.5145 C.3       3 GLC5        0.0000 
     23 CA         28.7430   36.4310    9.0910 C.3       9 GLL5        0.0000 
     24 CA         27.4760   38.3170    5.9380 C.3       6 GLP5        0.0000 
     25 CA         30.1565   38.0365    9.3000 C.3       3 GLC5        0.0000 
     26 CA         31.5700   39.6420    9.5090 C.3       6 GLP5        0.0000 
     27 O          30.4950   37.3580    7.3995 O.2       1 ALC1        0.0000 
     28 O          29.7130   36.3940    8.1330 O.2       7 ALL1        0.0000 
     29 O          31.2770   38.3220    6.6660 O.2       4 ALP1        0.0000 
     30 O          30.6600   35.2075    7.5445 O.2       1 ALC1        0.0000 
     31 O          31.6070   34.0210    6.9560 O.2       4 ALP1        0.0000 
     32 N          28.8790   38.7740    8.9635 N.am      2 SEC2        0.0000 
     33 N          28.3340   37.6000    9.6440 N.am      8 SEL2        0.0000 
     34 N          29.4240   39.9480    8.2830 N.am      5 SEP2        0.0000 
     35 CA         28.8485   37.4120   11.5710 C.3       3 GLC5        0.0000 
     36 CA         27.3750   37.6560   10.5930 C.3       9 GLL5        0.0000 
     37 CA         30.3220   37.1680   12.5490 C.3       6 GLP5        0.0000 
     38 CA         25.8020   38.1940   11.6925 C.3       3 GLC5        0.0000 
     39 CA         24.2290   38.7320   12.7920 C.3       6 GLP5        0.0000 
     40 CA         25.8465   37.5320    9.3325 C.3       3 GLC5        0.0000 
     41 CA         24.3180   37.4080    8.0720 C.3       6 GLP5        0.0000 
     42 CA         27.2455   38.9555    9.0820 C.3       3 GLC5        0.0000 
     43 CA         27.1160   40.2550    7.5710 C.3       6 GLP5        0.0000 
     44 N          25.3390   37.3515   10.7645 N.am      2 SEC2        0.0000 
     45 N          26.7540   36.5670   11.0840 N.am      8 SEL2        0.0000 
     46 N          23.9240   38.1360   10.4450 N.am      5 SEP2        0.0000 
     47 CA         25.6000   35.6190    9.4280 C.3       3 GLC5        0.0000 
     48 CA         27.0640   35.3370   10.6260 C.3       9 GLL5        0.0000 
     49 N          24.2360   21.5385   20.3170 N.am      2 SEC2        0.0000 
     50 N          23.2590   20.5820   19.8420 N.am      8 SEL2        0.0000 
     51 N          25.2130   22.4950   20.7920 N.am      5 SEP2        0.0000 
     52 N          24.3305   21.7075   22.8215 N.am      2 SEC2        0.0000 
     53 N          23.4500   20.6540   22.0920 N.am      8 SEL2        0.0000 
     54 N          25.2110   22.7610   23.5510 N.am      5 SEP2        0.0000 
     55 CA         19.7170   19.7705   17.6945 C.3       3 GLC5        0.0000 
     56 CA         21.1940   18.9410   16.5900 C.3       9 GLL5        0.0000 
     57 CA         18.2400   20.6000   18.7990 C.3       6 GLP5        0.0000 
     58 CA         18.8220   17.8430   11.5830 C.3       3 GLC5        0.0000 
     59 CA         20.0100   18.0600   13.0760 C.3       9 GLL5        0.0000 
     60 CA         17.6340   17.6260   10.0900 C.3       6 GLP5        0.0000 
     61 CA         20.2385   16.8240   11.6715 C.3       3 GLC5        0.0000 
     62 CA         20.4670   15.5880   10.2670 C.3       6 GLP5        0.0000 
     63 CA         22.8340   18.8060   10.7465 C.3       3 GLC5        0.0000 
     64 CA         22.2350   20.0330   12.5150 C.3       9 GLL5        0.0000 
     65 CA         23.4330   17.5790    8.9780 C.3       6 GLP5        0.0000 
     66 CA         25.4940   21.1950   18.6285 C.3       3 GLC5        0.0000 
     67 CA         24.1160   21.5240   17.2030 C.3       9 GLL5        0.0000 
     68 CA         26.8720   20.8660   20.0540 C.3       6 GLP5        0.0000 
     69 CA         23.3375   23.3520   19.4125 C.3       3 GLC5        0.0000 
     70 CA         23.4610   22.9180   17.4380 C.3       9 GLL5        0.0000 
     71 CA         23.2140   23.7860   21.3870 C.3       6 GLP5        0.0000 
     72 N          21.8120   23.5060   15.2770 N.am      2 SEC2        0.0000 
     73 N          22.4100   23.1130   16.4940 N.am      8 SEL2        0.0000 
     74 N          21.2140   23.8990   14.0600 N.am      5 SEP2        0.0000 
     75 O          21.5215   23.5605   17.3830 O.2       1 ALC1        0.0000 
     76 O          22.4100   23.1130   16.4940 O.2       7 ALL1        0.0000 
     77 O          20.6330   24.0080   18.2720 O.2       4 ALP1        0.0000 
     78 N          23.2435   25.4905   15.3115 N.am      2 SEC2        0.0000 
     79 N          23.6750   25.4880   17.0070 N.am      8 SEL2        0.0000 
     80 N          22.8120   25.4930   13.6160 N.am      5 SEP2        0.0000 
     81 N          22.3575   25.8295   17.3950 N.am      2 SEC2        0.0000 
     82 N          21.0400   26.1710   17.7830 N.am      5 SEP2        0.0000 
     83 O          27.4325   23.3690   17.1305 O.2       1 ALC1        0.0000 
     84 O          26.2200   23.0770   17.7690 O.2       7 ALL1        0.0000 
     85 O          28.6450   23.6610   16.4920 O.2       4 ALP1        0.0000 
     86 CA         27.9160   25.4645   16.4620 C.3       3 GLC5        0.0000 
     87 CA         26.3410   25.5820   17.9160 C.3       9 GLL5        0.0000 
     88 CA         29.4910   25.3470   15.0080 C.3       6 GLP5        0.0000 
     89 CA         27.3175   25.9310   19.4755 C.3       3 GLC5        0.0000 
     90 CA         28.2940   26.2800   21.0350 C.3       6 GLP5        0.0000 
     91 N          25.9580   29.9255   19.6095 N.am      2 SEC2        0.0000 
     92 N          26.0140   29.4430   18.1530 N.am      8 SEL2        0.0000 
     93 N          25.9020   30.4080   21.0660 N.am      5 SEP2        0.0000 
     94 N          29.2845   27.1725   17.4220 N.am      2 SEC2        0.0000 
     95 N          28.1270   28.0890   17.7450 N.am      8 SEL2        0.0000 
     96 N          30.4420   26.2560   17.0990 N.am      5 SEP2        0.0000 
     97 CA         27.5693   31.9975   13.6290 C.3       3 GLC5        0.0000 
     98 CA         28.7862   34.3210   11.2248 C.3       3 GLC5        0.0000 
     99 CA         29.9900   33.3750   12.3430 C.3       6 GLP5        0.0000 
    100 CA         29.0325   36.3717   11.2657 C.3       3 GLC5        0.0000 
    101 CA         20.5565   20.9572   15.6623 C.3       3 GLC5        0.0000 
    102 CA         22.3040   19.9260   16.3230 C.3       9 GLL5        0.0000 
    103 CA         19.3640   22.4810   14.8680 C.3       6 GLP5        0.0000 
    104 CA         22.4036   17.5904   15.1286 C.3       3 GLC5        0.0000 
    105 CA         20.7910   18.6840   14.2220 C.3       9 GLL5        0.0000 
    106 CA         23.9930   16.5130   15.1130 C.3       6 GLP5        0.0000 
    107 CA         19.2510   19.9892   14.1656 C.3       3 GLC5        0.0000 
    108 CA         20.4810   18.3620   15.5430 C.3       9 GLL5        0.0000 
    109 CA         18.1790   21.6870   14.3520 C.3       6 GLP5        0.0000 
    110 CA         23.2750   18.3667   13.4895 C.3       3 GLC5        0.0000 
    111 CA         21.8890   19.6600   13.9430 C.3       9 GLL5        0.0000 
    112 CA         24.4880   16.8870   13.7500 C.3       6 GLP5        0.0000 
    113 CA         21.3090   21.4356   13.9110 C.3       3 GLC5        0.0000 
    114 CA         20.2870   22.8270   13.7090 C.3       6 GLP5        0.0000 
    115 CA         23.2225   18.2985   15.3865 C.3       3 GLC5        0.0000 
    116 CA         22.6000   20.2420   14.9970 C.3       9 GLL5        0.0000 
    117 CA         25.1980   24.3365   19.5265 C.3       3 GLC5        0.0000 
    118 CA         24.2320   24.2770   17.5980 C.3       9 GLL5        0.0000 
    119 CA         24.7450   23.7330   21.3820 C.3       6 GLP5        0.0000 
@<TRIPOS>BOND
@<TRIPOS>SUBSTRUCTURE
     1 ALC1        7 GROUP        1 X    ALC  0     ROOT ALC X 1
     2 SEC2       32 GROUP        1 X    SEC  0     **** SEC X 2
     3 GLC5        1 GROUP        1 X    GLC  0     **** GLC X 6
     4 ALP1        9 GROUP        1 Y    ALP  0     ROOT ALP Y 8
     5 SEP2       34 GROUP        1 Y    SEP  0     **** SEP Y 9
     6 GLP5        3 GROUP        1 Y    GLP  0     **** GLP Y 13
     7 ALL1        8 GROUP        1 Z    ALL  0     ROOT ALL Z 15
     8 SEL2       33 GROUP        1 Z    SEL  0     **** SEL Z 16
     9 GLL5        2 GROUP        1 Z    GLL  0     **** GLL Z 20
@<TRIPOS>SET

