#    Name: 4icy_FAD_1_ligand
#    Modification time : Tue Mar 25 03:42:43 2014

@<TRIPOS>MOLECULE
4icy_FAD_1_ligand
   84    89     1     0     0
SMALL
NO_CHARGES


@<TRIPOS>ATOM
      1 PA         25.1790   28.7060   15.0450 P.3       1 FAD501      0.0000 
      2 O1A        23.9770   28.2200   15.7620 O.co2     1 FAD501      0.0000 
      3 O2A        25.4990   28.1450   13.6640 O.co2     1 FAD501      0.0000 
      4 O5B        25.0270   30.2930   14.8480 O.3       1 FAD501      0.0000 
      5 C5B        26.0340   31.0090   14.1420 C.3       1 FAD501      0.0000 
      6 C4B        25.3570   32.2790   13.6680 C.3       1 FAD501      0.0000 
      7 O4B        26.2780   33.1150   12.9820 O.3       1 FAD501      0.0000 
      8 C3B        24.2440   31.9940   12.6880 C.3       1 FAD501      0.0000 
      9 O3B        23.0630   32.5310   13.2790 O.3       1 FAD501      0.0000 
     10 C2B        24.6490   32.7230   11.4060 C.3       1 FAD501      0.0000 
     11 O2B        23.5650   33.3350   10.7180 O.3       1 FAD501      0.0000 
     12 C1B        25.6100   33.7650   11.8980 C.3       1 FAD501      0.0000 
     13 N9A        26.6300   34.1060   10.8870 N.pl3     1 FAD501      0.0000 
     14 C8A        27.3170   33.2340   10.1300 C.2       1 FAD501      0.0000 
     15 N7A        28.2140   33.8820    9.3380 N.2       1 FAD501      0.0000 
     16 C5A        28.1010   35.1970    9.5870 C.ar      1 FAD501      0.0000 
     17 C6A        28.7430   36.4310    9.0910 C.ar      1 FAD501      0.0000 
     18 N6A        29.7130   36.3940    8.1330 N.pl3     1 FAD501      0.0000 
     19 N1A        28.3340   37.6000    9.6440 N.ar      1 FAD501      0.0000 
     20 C2A        27.3750   37.6560   10.5930 C.ar      1 FAD501      0.0000 
     21 N3A        26.7540   36.5670   11.0840 N.ar      1 FAD501      0.0000 
     22 C4A        27.0640   35.3370   10.6260 C.ar      1 FAD501      0.0000 
     23 N1         23.2590   20.5820   19.8420 N.2       1 FAD501      0.0000 
     24 C2         22.8660   20.1890   21.0930 C.2       1 FAD501      0.0000 
     25 O2         23.4500   20.6540   22.0920 O.2       1 FAD501      0.0000 
     26 N3         21.8680   19.3180   21.3170 N.am      1 FAD501      0.0000 
     27 C4         21.1760   18.7620   20.3010 C.2       1 FAD501      0.0000 
     28 O4         20.2490   17.9450   20.5280 O.2       1 FAD501      0.0000 
     29 C4X        21.5340   19.1290   18.9020 C.2       1 FAD501      0.0000 
     30 N5         20.8630   18.5960   17.8590 N.2       1 FAD501      0.0000 
     31 C5X        21.1940   18.9410   16.5900 C.ar      1 FAD501      0.0000 
     32 C6         20.4810   18.3620   15.5430 C.ar      1 FAD501      0.0000 
     33 C7         20.7910   18.6840   14.2220 C.ar      1 FAD501      0.0000 
     34 C7M        20.0100   18.0600   13.0760 C.3       1 FAD501      0.0000 
     35 C8         21.8890   19.6600   13.9430 C.ar      1 FAD501      0.0000 
     36 C8M        22.2350   20.0330   12.5150 C.3       1 FAD501      0.0000 
     37 C9         22.6000   20.2420   14.9970 C.ar      1 FAD501      0.0000 
     38 C9A        22.3040   19.9260   16.3230 C.ar      1 FAD501      0.0000 
     39 N10        23.0360   20.5100   17.4090 N.pl3     1 FAD501      0.0000 
     40 C10        22.6500   20.1090   18.7190 C.2       1 FAD501      0.0000 
     41 C1'        24.1160   21.5240   17.2030 C.3       1 FAD501      0.0000 
     42 C2'        23.4610   22.9180   17.4380 C.3       1 FAD501      0.0000 
     43 O2'        22.4100   23.1130   16.4940 O.3       1 FAD501      0.0000 
     44 C3'        24.2320   24.2770   17.5980 C.3       1 FAD501      0.0000 
     45 O3'        23.6750   25.4880   17.0070 O.3       1 FAD501      0.0000 
     46 C4'        25.6900   24.3190   17.2540 C.3       1 FAD501      0.0000 
     47 O4'        26.2200   23.0770   17.7690 O.3       1 FAD501      0.0000 
     48 C5'        26.3410   25.5820   17.9160 C.3       1 FAD501      0.0000 
     49 O5'        25.7530   26.8970   17.6750 O.3       1 FAD501      0.0000 
     50 P          26.6470   28.2720   17.4680 P.3       1 FAD501      0.0000 
     51 O1P        26.0140   29.4430   18.1530 O.co2     1 FAD501      0.0000 
     52 O2P        28.1270   28.0890   17.7450 O.co2     1 FAD501      0.0000 
     53 O3P        26.5510   28.5260   15.8860 O.3       1 FAD501      0.0000 
     54 H          26.3879   30.4684   13.2772 H         1 FAD501      0.0000 
     55 H          26.8623   31.2816   14.7784 H         1 FAD501      0.0000 
     56 H          24.9341   32.7940   14.5160 H         1 FAD501      0.0000 
     57 H          24.2022   30.9617   12.5160 H         1 FAD501      0.0000 
     58 H          25.2025   32.0317   10.7994 H         1 FAD501      0.0000 
     59 H          25.0848   34.6113   12.2295 H         1 FAD501      0.0000 
     60 H          27.1956   32.2614   10.1399 H         1 FAD501      0.0000 
     61 H          29.9577   35.4873    7.7893 H         1 FAD501      0.0000 
     62 H          30.0943   37.2768    7.8585 H         1 FAD501      0.0000 
     63 H          27.0965   38.6123   10.9718 H         1 FAD501      0.0000 
     64 H          21.6181   19.0617   22.3076 H         1 FAD501      0.0000 
     65 H          19.7241   17.6955   15.7437 H         1 FAD501      0.0000 
     66 H          23.3551   20.9156   14.7892 H         1 FAD501      0.0000 
     67 H          24.4862   21.4897   16.1986 H         1 FAD501      0.0000 
     68 H          24.9026   21.3955   17.9184 H         1 FAD501      0.0000 
     69 H          22.8899   22.8017   18.4583 H         1 FAD501      0.0000 
     70 H          24.2250   24.4889   18.7503 H         1 FAD501      0.0000 
     71 H          25.7952   24.3866   16.2003 H         1 FAD501      0.0000 
     72 H          27.4282   25.5754   17.6070 H         1 FAD501      0.0000 
     73 H          26.3860   25.3693   19.0252 H         1 FAD501      0.0000 
     74 H          20.3386   18.3774   12.1864 H         1 FAD501      0.0000 
     75 H          20.0828   17.0627   13.0766 H         1 FAD501      0.0000 
     76 H          19.0364   18.2828   13.1254 H         1 FAD501      0.0000 
     77 H          22.9868   20.6911   12.4748 H         1 FAD501      0.0000 
     78 H          22.5146   19.2356   11.9802 H         1 FAD501      0.0000 
     79 H          21.4579   20.4464   12.0404 H         1 FAD501      0.0000 
     80 H          23.2522   33.5061   13.3951 H         1 FAD501      0.0000 
     81 H          23.4303   34.2133   11.1768 H         1 FAD501      0.0000 
     82 H          21.6425   23.4644   17.0302 H         1 FAD501      0.0000 
     83 H          24.0627   26.2388   17.5418 H         1 FAD501      0.0000 
     84 H          27.1525   23.0256   17.4114 H         1 FAD501      0.0000 
@<TRIPOS>BOND
     1    2    1 ar   
     2    3    1 ar   
     3    4    1 1    
     4   53    1 1    
     5    5    4 1    
     6    6    5 1    
     7   54    5 1    
     8   55    5 1    
     9    7    6 1    
    10    8    6 1    
    11   56    6 1    
    12   12    7 1    
    13    9    8 1    
    14   10    8 1    
    15   57    8 1    
    16   80    9 1    
    17   11   10 1    
    18   12   10 1    
    19   58   10 1    
    20   81   11 1    
    21   13   12 1    
    22   59   12 1    
    23   14   13 1    
    24   22   13 1    
    25   15   14 2    
    26   60   14 1    
    27   16   15 1    
    28   17   16 ar   
    29   22   16 ar   
    30   18   17 1    
    31   19   17 ar   
    32   61   18 1    
    33   62   18 1    
    34   20   19 ar   
    35   21   20 ar   
    36   63   20 1    
    37   22   21 ar   
    38   24   23 1    
    39   40   23 2    
    40   25   24 2    
    41   26   24 am   
    42   27   26 am   
    43   64   26 1    
    44   28   27 2    
    45   29   27 1    
    46   30   29 2    
    47   40   29 1    
    48   31   30 1    
    49   32   31 ar   
    50   38   31 ar   
    51   33   32 ar   
    52   65   32 1    
    53   34   33 1    
    54   35   33 ar   
    55   74   34 1    
    56   75   34 1    
    57   76   34 1    
    58   36   35 1    
    59   37   35 ar   
    60   77   36 1    
    61   78   36 1    
    62   79   36 1    
    63   38   37 ar   
    64   66   37 1    
    65   39   38 1    
    66   40   39 1    
    67   41   39 1    
    68   42   41 1    
    69   67   41 1    
    70   68   41 1    
    71   43   42 1    
    72   44   42 1    
    73   69   42 1    
    74   82   43 1    
    75   45   44 1    
    76   46   44 1    
    77   70   44 1    
    78   83   45 1    
    79   47   46 1    
    80   48   46 1    
    81   71   46 1    
    82   84   47 1    
    83   49   48 1    
    84   72   48 1    
    85   73   48 1    
    86   50   49 1    
    87   51   50 ar   
    88   52   50 ar   
    89   53   50 1    
@<TRIPOS>SUBSTRUCTURE
     1 FAD501      1 GROUP   
@<TRIPOS>SET

