#    Name: 4dxd_9PC_1_INTS_M
#    Modification time : Tue Mar 25 10:18:58 2014

@<TRIPOS>MOLECULE
4dxd_9PC_1_INTS_M
   77     0     9     0     0
SMALL
NO_CHARGES


@<TRIPOS>ATOM
      1 CA        -10.6265   37.0985   14.3415 C.3       3 GLC5        0.0000 
      2 CA        -10.8750   37.4870   16.5310 C.3       9 GLL5        0.0000 
      3 CA        -10.3780   36.7100   12.1520 C.3       6 GLP5        0.0000 
      4 CA        -11.8210   38.4130   15.2510 C.3       3 GLC5        0.0000 
      5 CA        -12.7670   39.3390   13.9710 C.3       6 GLP5        0.0000 
      6 O         -19.5635   46.1940   19.0460 O.2       1 ALC1        0.0000 
      7 O         -18.1270   45.6960   18.9560 O.2       7 ALL1        0.0000 
      8 O         -21.0000   46.6920   19.1360 O.2       4 ALP1        0.0000 
      9 O         -17.9385   44.9225   17.7525 O.2       1 ALC1        0.0000 
     10 O         -17.7500   44.1490   16.5490 O.2       4 ALP1        0.0000 
     11 CA        -15.8685   42.2875   20.3670 C.3       3 GLC5        0.0000 
     12 CA        -16.4020   43.3010   19.0800 C.3       9 GLL5        0.0000 
     13 CA        -15.3350   41.2740   21.6540 C.3       6 GLP5        0.0000 
     14 CA        -17.8995   42.4575   19.5955 C.3       3 GLC5        0.0000 
     15 CA        -19.3970   41.6140   20.1110 C.3       6 GLP5        0.0000 
     16 N         -17.2865   48.2540   20.6485 N.am      2 SEC2        0.0000 
     17 N         -17.1430   46.5390   20.7700 N.am      8 SEL2        0.0000 
     18 N         -17.4300   49.9690   20.5270 N.am      5 SEP2        0.0000 
     19 N         -18.2990   46.0455   21.5565 N.am      2 SEC2        0.0000 
     20 N         -19.4550   45.5520   22.3430 N.am      5 SEP2        0.0000 
     21 CA        -16.4750   48.8085   19.2360 C.3       3 GLC5        0.0000 
     22 CA        -14.9530   47.7850   19.2820 C.3       9 GLL5        0.0000 
     23 CA        -17.9970   49.8320   19.1900 C.3       6 GLP5        0.0000 
     24 CA        -10.9590   41.1795   18.2150 C.3       3 GLC5        0.0000 
     25 CA        -12.7250   42.0000   17.6900 C.3       9 GLL5        0.0000 
     26 CA         -9.1930   40.3590   18.7400 C.3       6 GLP5        0.0000 
     27 CA        -13.0785   42.4155   19.7640 C.3       3 GLC5        0.0000 
     28 CA        -13.4320   42.8310   21.8380 C.3       6 GLP5        0.0000 
     29 CA        -14.4490   40.3720   20.1400 C.3       3 GLC5        0.0000 
     30 CA        -13.5630   39.4700   18.6260 C.3       9 GLL5        0.0000 
     31 CA        -15.5405   39.0030   19.4245 C.3       3 GLC5        0.0000 
     32 CA        -17.5180   38.5360   20.2230 C.3       6 GLP5        0.0000 
     33 CA        -13.5425   36.9600   19.5785 C.3       3 GLC5        0.0000 
     34 CA        -12.6600   38.1850   17.9940 C.3       9 GLL5        0.0000 
     35 CA        -14.4250   35.7350   21.1630 C.3       6 GLP5        0.0000 
     36 CA        -11.6680   34.8215   19.3280 C.3       3 GLC5        0.0000 
     37 CA        -12.1970   35.8860   17.7610 C.3       9 GLL5        0.0000 
     38 CA        -11.1390   33.7570   20.8950 C.3       6 GLP5        0.0000 
     39 CA        -13.4320   35.2810   18.9150 C.3       3 GLC5        0.0000 
     40 CA        -14.6670   34.6760   20.0690 C.3       6 GLP5        0.0000 
     41 CA         -8.3430   35.3265   15.6005 C.3       3 GLC5        0.0000 
     42 CA        -10.1730   34.8830   16.1490 C.3       9 GLL5        0.0000 
     43 CA         -6.5130   35.7700   15.0520 C.3       6 GLP5        0.0000 
     44 CA         -9.1280   35.1190   17.7065 C.3       3 GLC5        0.0000 
     45 CA         -8.0830   35.3550   19.2640 C.3       6 GLP5        0.0000 
     46 CA        -10.7500   33.1615   17.0545 C.3       3 GLC5        0.0000 
     47 CA        -11.3270   31.4400   17.9600 C.3       6 GLP5        0.0000 
     48 CA        -11.1490   33.8040   14.8820 C.3       3 GLC5        0.0000 
     49 CA        -12.1250   32.7250   13.6150 C.3       6 GLP5        0.0000 
     50 CA        -10.2755   35.7965   14.1505 C.3       3 GLC5        0.0000 
     51 CA        -12.7950   37.3508   16.0222 C.3       3 GLC5        0.0000 
     52 CA        -11.1610   36.1750   16.8720 C.3       9 GLL5        0.0000 
     53 CA        -13.9110   38.6710   14.7280 C.3       6 GLP5        0.0000 
     54 CA        -10.2230   39.1763   17.7810 C.3       3 GLC5        0.0000 
     55 CA        -11.6310   38.5000   17.1130 C.3       9 GLL5        0.0000 
     56 CA        -14.2547   44.5860   20.3635 C.3       3 GLC5        0.0000 
     57 CA        -15.4390   44.2120   18.8750 C.3       9 GLL5        0.0000 
     58 CA        -12.9460   44.2920   21.6950 C.3       6 GLP5        0.0000 
     59 CA        -15.7918   45.9985   17.6365 C.3       3 GLC5        0.0000 
     60 CA        -16.0200   47.1170   16.2410 C.3       6 GLP5        0.0000 
     61 CA        -13.5020   45.3005   20.2148 C.3       3 GLC5        0.0000 
     62 CA        -14.6860   46.4970   18.9940 C.3       9 GLL5        0.0000 
     63 CA        -11.2520   45.1222   18.7550 C.3       3 GLC5        0.0000 
     64 CA        -13.4300   46.1210   18.4750 C.3       9 GLL5        0.0000 
     65 CA         -9.1920   44.7930   19.1980 C.3       6 GLP5        0.0000 
     66 CA        -13.3230   44.2955   19.9735 C.3       3 GLC5        0.0000 
     67 CA        -13.1940   44.7820   18.1490 C.3       9 GLL5        0.0000 
     68 CA        -16.0796   42.8181   17.4731 C.3       3 GLC5        0.0000 
     69 CA        -14.2060   43.8160   18.3550 C.3       9 GLL5        0.0000 
     70 CA        -17.0960   41.8500   16.2800 C.3       6 GLP5        0.0000 
     71 CA        -14.8600   45.7080   17.2465 C.3       3 GLC5        0.0000 
     72 CA        -13.4262   48.3075   19.5826 C.3       3 GLC5        0.0000 
     73 CA        -12.3470   49.5680   20.1570 C.3       6 GLP5        0.0000 
     74 CA        -15.2628   47.0820   17.6246 C.3       3 GLC5        0.0000 
     75 CA        -11.1523   39.5933   18.5250 C.3       3 GLC5        0.0000 
     76 CA         -9.8453   35.8568   18.2476 C.3       3 GLC5        0.0000 
     77 CA        -13.1411   38.6674   16.2197 C.3       3 GLC5        0.0000 
@<TRIPOS>BOND
@<TRIPOS>SUBSTRUCTURE
     1 ALC1        6 GROUP        1 X    ALC  0     ROOT ALC X 1
     2 SEC2       16 GROUP        1 X    SEC  0     **** SEC X 2
     3 GLC5        1 GROUP        1 X    GLC  0     **** GLC X 6
     4 ALP1        8 GROUP        1 Y    ALP  0     ROOT ALP Y 8
     5 SEP2       18 GROUP        1 Y    SEP  0     **** SEP Y 9
     6 GLP5        3 GROUP        1 Y    GLP  0     **** GLP Y 13
     7 ALL1        7 GROUP        1 Z    ALL  0     ROOT ALL Z 15
     8 SEL2       17 GROUP        1 Z    SEL  0     **** SEL Z 16
     9 GLL5        2 GROUP        1 Z    GLL  0     **** GLL Z 20
@<TRIPOS>SET

