#    Name: 4dxd_9PC_1_ligand
#    Modification time : Tue Mar 25 10:18:58 2014

@<TRIPOS>MOLECULE
4dxd_9PC_1_ligand
   31    33     1     0     0
SMALL
NO_CHARGES


@<TRIPOS>ATOM
      1 C11       -11.1610   36.1750   16.8720 C.ar      1 9PC402      0.0000 
      2 C12       -10.8750   37.4870   16.5310 C.ar      1 9PC402      0.0000 
      3 N         -18.1270   45.6960   18.9560 N.am      1 9PC402      0.0000 
      4 C13       -15.4390   44.2120   18.8750 C.ar      1 9PC402      0.0000 
      5 C1        -15.6880   45.5480   19.1890 C.ar      1 9PC402      0.0000 
      6 C2        -14.6860   46.4970   18.9940 C.ar      1 9PC402      0.0000 
      7 C3        -13.4300   46.1210   18.4750 C.ar      1 9PC402      0.0000 
      8 F1        -16.4020   43.3010   19.0800 F         1 9PC402      0.0000 
      9 C         -17.0480   45.9660   19.7010 C.2       1 9PC402      0.0000 
     10 O         -17.1430   46.5390   20.7700 O.2       1 9PC402      0.0000 
     11 C5        -14.2060   43.8160   18.3550 C.ar      1 9PC402      0.0000 
     12 C4        -13.1940   44.7820   18.1490 C.ar      1 9PC402      0.0000 
     13 F         -14.9530   47.7850   19.2820 F         1 9PC402      0.0000 
     14 O1        -14.0180   42.4800   18.0710 O.3       1 9PC402      0.0000 
     15 C6        -12.7250   42.0000   17.6900 C.3       1 9PC402      0.0000 
     16 C7        -12.5440   40.4990   17.6310 C.2       1 9PC402      0.0000 
     17 S         -13.5630   39.4700   18.6260 S.3       1 9PC402      0.0000 
     18 C9        -12.6600   38.1850   17.9940 C.ar      1 9PC402      0.0000 
     19 N2        -12.9260   36.8850   18.3000 N.ar      1 9PC402      0.0000 
     20 C10       -12.1970   35.8860   17.7610 C.ar      1 9PC402      0.0000 
     21 CL        -10.1730   34.8830   16.1490 Cl        1 9PC402      0.0000 
     22 C8        -11.6310   38.5000   17.1130 C.ar      1 9PC402      0.0000 
     23 N1        -11.6020   39.8370   16.9240 N.2       1 9PC402      0.0000 
     24 H         -10.1319   37.7072   15.8722 H         1 9PC402      0.0000 
     25 H         -17.9586   45.2141   18.0961 H         1 9PC402      0.0000 
     26 H         -19.0047   46.0004   19.3262 H         1 9PC402      0.0000 
     27 H         -12.7033   46.8238   18.3405 H         1 9PC402      0.0000 
     28 H         -12.2923   44.4942   17.7614 H         1 9PC402      0.0000 
     29 H         -11.9331   42.4061   18.3827 H         1 9PC402      0.0000 
     30 H         -12.4317   42.4128   16.6823 H         1 9PC402      0.0000 
     31 H         -12.3904   34.8957   17.9944 H         1 9PC402      0.0000 
@<TRIPOS>BOND
     1    2    1 ar   
     2   20    1 ar   
     3   21    1 1    
     4   22    2 ar   
     5   24    2 1    
     6    9    3 am   
     7   25    3 1    
     8   26    3 1    
     9    5    4 ar   
    10    8    4 1    
    11   11    4 ar   
    12    6    5 ar   
    13    9    5 1    
    14    7    6 ar   
    15   13    6 1    
    16   12    7 ar   
    17   27    7 1    
    18   10    9 2    
    19   12   11 ar   
    20   14   11 1    
    21   28   12 1    
    22   15   14 1    
    23   16   15 1    
    24   29   15 1    
    25   30   15 1    
    26   17   16 1    
    27   23   16 2    
    28   18   17 1    
    29   19   18 ar   
    30   22   18 ar   
    31   20   19 ar   
    32   31   20 1    
    33   23   22 1    
@<TRIPOS>SUBSTRUCTURE
     1 9PC402      1 GROUP   
@<TRIPOS>SET

