#    Name: 1w5v_BE3_1_INTS_M
#    Modification time : Tue Mar 25 08:39:53 2014

@<TRIPOS>MOLECULE
1w5v_BE3_1_INTS_M
  131     0     9     0     0
SMALL
NO_CHARGES


@<TRIPOS>ATOM
      1 CA          6.6025   24.1605    0.2920 C.3       3 GLC5        0.0000 
      2 CA          6.7000   24.4880    2.4330 C.3       9 GLL5        0.0000 
      3 CA          6.5050   23.8330   -1.8490 C.3       6 GLP5        0.0000 
      4 CA         17.6660   24.1785    8.3130 C.3       3 GLC5        0.0000 
      5 CA         15.7020   23.3240    8.3220 C.3       9 GLL5        0.0000 
      6 CA         19.6300   25.0330    8.3040 C.3       6 GLP5        0.0000 
      7 CA         16.6355   23.1250   10.1780 C.3       3 GLC5        0.0000 
      8 CA         17.5690   22.9260   12.0340 C.3       6 GLP5        0.0000 
      9 CA         12.4905   21.5300    4.0905 C.3       3 GLC5        0.0000 
     10 CA         13.8560   22.8600    4.9680 C.3       9 GLL5        0.0000 
     11 CA         11.1250   20.2000    3.2130 C.3       6 GLP5        0.0000 
     12 CA         12.8380   26.2565    3.3415 C.3       3 GLC5        0.0000 
     13 CA         12.0990   24.4790    4.2820 C.3       9 GLL5        0.0000 
     14 CA         13.5770   28.0340    2.4010 C.3       6 GLP5        0.0000 
     15 O          10.7830   26.5555    4.3445 O.2       1 ALC1        0.0000 
     16 O          10.1210   25.5690    5.3190 O.2       7 ALL1        0.0000 
     17 O          11.4450   27.5420    3.3700 O.2       4 ALP1        0.0000 
     18 CA         11.1450   22.0675    2.5960 C.3       3 GLC5        0.0000 
     19 CA         11.1650   23.9350    1.9790 C.3       9 GLL5        0.0000 
     20 CA         10.0205   23.6230    0.3435 C.3       3 GLC5        0.0000 
     21 CA          8.8760   23.3110   -1.2920 C.3       6 GLP5        0.0000 
     22 N          15.0245   25.6605    5.5175 N.am      2 SEC2        0.0000 
     23 N          14.5780   25.0440    4.3620 N.am      8 SEL2        0.0000 
     24 N          15.4710   26.2770    6.6730 N.am      5 SEP2        0.0000 
     25 O          14.5720   24.7815    3.0825 O.2       1 ALC1        0.0000 
     26 O          14.5780   25.0440    4.3620 O.2       7 ALL1        0.0000 
     27 O          14.5660   24.5190    1.8030 O.2       4 ALP1        0.0000 
     28 O          14.4400   23.5270    2.6965 O.2       1 ALC1        0.0000 
     29 O          14.3140   22.5350    3.5900 O.2       7 ALL1        0.0000 
     30 O          17.3095   21.7510    5.3220 O.2       1 ALC1        0.0000 
     31 O          16.2700   20.6090    5.4590 O.2       7 ALL1        0.0000 
     32 O          18.3490   22.8930    5.1850 O.2       4 ALP1        0.0000 
     33 CA         16.6465   15.7860    3.5220 C.3       3 GLC5        0.0000 
     34 CA         17.4770   17.7550    3.6020 C.3       9 GLL5        0.0000 
     35 CA         15.8160   13.8170    3.4420 C.3       6 GLP5        0.0000 
     36 CA         13.4350   19.0145    2.9585 C.3       3 GLC5        0.0000 
     37 CA         15.6520   19.3330    2.7750 C.3       9 GLL5        0.0000 
     38 CA         11.2180   18.6960    3.1420 C.3       6 GLP5        0.0000 
     39 CA         14.1180   20.0020    0.7835 C.3       3 GLC5        0.0000 
     40 CA         15.8120   18.7620    1.4010 C.3       9 GLL5        0.0000 
     41 CA         12.4240   21.2420    0.1660 C.3       6 GLP5        0.0000 
     42 N          19.5130   20.1365    4.0185 N.am      2 SEC2        0.0000 
     43 N          18.8880   19.7880    5.3420 N.am      8 SEL2        0.0000 
     44 N          20.1380   20.4850    2.6950 N.am      5 SEP2        0.0000 
     45 O          18.6185   21.3405    5.2635 O.2       1 ALC1        0.0000 
     46 O          18.8880   19.7880    5.3420 O.2       7 ALL1        0.0000 
     47 CA         17.2620   15.2775    2.3525 C.3       3 GLC5        0.0000 
     48 CA         17.6470   17.1840    2.2590 C.3       9 GLL5        0.0000 
     49 CA         16.8770   13.3710    2.4460 C.3       6 GLP5        0.0000 
     50 CA          8.5060   23.5520    6.2560 C.3       3 GLC5        0.0000 
     51 CA          8.9630   25.6810    6.1800 C.3       9 GLL5        0.0000 
     52 CA          8.0490   21.4230    6.3320 C.3       6 GLP5        0.0000 
     53 CA          6.7100   26.5100    9.3615 C.3       3 GLC5        0.0000 
     54 CA          8.1160   27.2380    7.8440 C.3       9 GLL5        0.0000 
     55 CA          5.3040   25.7820   10.8790 C.3       6 GLP5        0.0000 
     56 CA         12.3285   26.2340   10.1325 C.3       3 GLC5        0.0000 
     57 CA         10.5040   27.2470    9.5630 C.3       9 GLL5        0.0000 
     58 CA         14.1530   25.2210   10.7020 C.3       6 GLP5        0.0000 
     59 CA          8.0680   28.9450   11.5170 C.3       3 GLC5        0.0000 
     60 CA          9.3320   28.0650    9.9100 C.3       9 GLL5        0.0000 
     61 CA          6.8040   29.8250   13.1240 C.3       6 GLP5        0.0000 
     62 N           9.2000   28.9435    5.2780 N.am      2 SEC2        0.0000 
     63 N           8.4930   27.6670    4.8690 N.am      8 SEL2        0.0000 
     64 N           9.9070   30.2200    5.6870 N.am      5 SEP2        0.0000 
     65 O           7.4845   28.6910    4.4580 O.2       1 ALC1        0.0000 
     66 O           8.4930   27.6670    4.8690 O.2       7 ALL1        0.0000 
     67 O           6.4760   29.7150    4.0470 O.2       4 ALP1        0.0000 
     68 CA          6.5250   27.6335   10.1925 C.3       3 GLC5        0.0000 
     69 CA          8.1300   28.0760    9.0680 C.3       9 GLL5        0.0000 
     70 CA          4.9200   27.1910   11.3170 C.3       6 GLP5        0.0000 
     71 CA          7.3575   29.1300    6.1210 C.3       3 GLC5        0.0000 
     72 CA          7.0520   27.0460    6.8070 C.3       9 GLL5        0.0000 
     73 CA          7.6630   31.2140    5.4350 C.3       6 GLP5        0.0000 
     74 CA          6.2645   20.8100    2.6655 C.3       3 GLC5        0.0000 
     75 CA          6.4580   22.1660    3.4550 C.3       9 GLL5        0.0000 
     76 CA          6.0710   19.4540    1.8760 C.3       6 GLP5        0.0000 
     77 CA         10.1593   21.8565    2.8345 C.3       3 GLC5        0.0000 
     78 CA          8.7460   22.9890    2.7480 C.3       9 GLL5        0.0000 
     79 CA         11.4135   22.6140    1.1187 C.3       3 GLC5        0.0000 
     80 CA          9.6410   24.0370    2.1640 C.3       9 GLL5        0.0000 
     81 CA          8.6599   24.2028    0.3060 C.3       3 GLC5        0.0000 
     82 CA          8.9980   25.2930    1.7340 C.3       9 GLL5        0.0000 
     83 CA          8.4507   23.2052    0.7608 C.3       3 GLC5        0.0000 
     84 CA          7.3050   23.2100    2.8790 C.3       9 GLL5        0.0000 
     85 CA          6.7401   21.9455    1.8000 C.3       3 GLC5        0.0000 
     86 CA          5.6060   20.4720    0.8980 C.3       6 GLP5        0.0000 
     87 CA         16.8025   22.2097   10.5533 C.3       3 GLC5        0.0000 
     88 CA         16.3970   22.0600    8.7660 C.3       9 GLL5        0.0000 
     89 CA         15.1013   23.9565    9.6230 C.3       3 GLC5        0.0000 
     90 CA         17.3722   21.3000   10.8473 C.3       3 GLC5        0.0000 
     91 CA         16.4360   19.7040    9.7740 C.3       9 GLL5        0.0000 
     92 CA         18.7445   23.2254    8.5478 C.3       3 GLC5        0.0000 
     93 CA         18.5990   20.8150    8.9250 C.3       9 GLL5        0.0000 
     94 CA         17.8945   22.1620   10.3858 C.3       3 GLC5        0.0000 
     95 CA         17.8410   21.9810    8.5500 C.3       9 GLL5        0.0000 
     96 CA         10.8776   25.5765    0.7900 C.3       3 GLC5        0.0000 
     97 CA         11.5130   26.8530   -0.3840 C.3       6 GLP5        0.0000 
     98 CA         17.4243   20.5530    3.5557 C.3       3 GLC5        0.0000 
     99 CA         16.4980   18.8130    3.8620 C.3       9 GLL5        0.0000 
    100 CA         18.3280   22.1010    2.5300 C.3       6 GLP5        0.0000 
    101 CA         19.8325   18.1852    3.7440 C.3       3 GLC5        0.0000 
    102 CA         21.8370   18.7820    3.2580 C.3       6 GLP5        0.0000 
    103 CA         15.6845   17.2705   -0.0280 C.3       3 GLC5        0.0000 
    104 CA         15.0610   16.3080   -1.3430 C.3       6 GLP5        0.0000 
    105 CA         15.2885   16.4840    1.4600 C.3       3 GLC5        0.0000 
    106 CA         16.8040   17.7040    1.1730 C.3       9 GLL5        0.0000 
    107 CA         14.2690   14.7350    1.6330 C.3       6 GLP5        0.0000 
    108 CA         16.8115   20.1979    1.4922 C.3       3 GLC5        0.0000 
    109 CA         17.3550   22.0200    1.3540 C.3       6 GLP5        0.0000 
    110 CA         18.5572   17.0555    0.5620 C.3       3 GLC5        0.0000 
    111 CA         19.8890   16.6670   -0.5920 C.3       6 GLP5        0.0000 
    112 CA         10.5315   27.4752    6.2795 C.3       3 GLC5        0.0000 
    113 CA         11.9490   28.8990    5.7290 C.3       6 GLP5        0.0000 
    114 CA         10.1723   25.2215   10.2207 C.3       3 GLC5        0.0000 
    115 CA         10.4690   26.4110    8.3240 C.3       9 GLL5        0.0000 
    116 CA          9.8580   23.6140   11.4980 C.3       6 GLP5        0.0000 
    117 CA         10.8145   27.2355   11.3788 C.3       3 GLC5        0.0000 
    118 CA         11.7110   26.8150   13.0210 C.3       6 GLP5        0.0000 
    119 CA          8.6305   26.7210   11.0732 C.3       3 GLC5        0.0000 
    120 CA          7.3430   25.7860   12.4100 C.3       6 GLP5        0.0000 
    121 CA         11.3126   28.1025    8.2324 C.3       3 GLC5        0.0000 
    122 CA         12.7160   28.7580    7.0380 C.3       6 GLP5        0.0000 
    123 CA          8.4255   29.8443    9.8570 C.3       3 GLC5        0.0000 
    124 CA          8.1200   31.6180   10.2250 C.3       6 GLP5        0.0000 
    125 CA         15.3051   19.4699   11.4841 C.3       3 GLC5        0.0000 
    126 CA         15.6750   20.9270    9.3790 C.3       9 GLL5        0.0000 
    127 CA         14.7150   19.4950   12.9930 C.3       6 GLP5        0.0000 
    128 CA         14.4376   18.7259    8.9326 C.3       3 GLC5        0.0000 
    129 CA         15.7350   18.5740   10.3740 C.3       9 GLL5        0.0000 
    130 CA         12.9800   18.0070    7.8900 C.3       6 GLP5        0.0000 
    131 CA          7.6454   22.0279    4.7331 C.3       3 GLC5        0.0000 
@<TRIPOS>BOND
@<TRIPOS>SUBSTRUCTURE
     1 ALC1       15 GROUP        1 X    ALC  0     ROOT ALC X 1
     2 SEC2       22 GROUP        1 X    SEC  0     **** SEC X 2
     3 GLC5        1 GROUP        1 X    GLC  0     **** GLC X 6
     4 ALP1       17 GROUP        1 Y    ALP  0     ROOT ALP Y 8
     5 SEP2       24 GROUP        1 Y    SEP  0     **** SEP Y 9
     6 GLP5        3 GROUP        1 Y    GLP  0     **** GLP Y 13
     7 ALL1       16 GROUP        1 Z    ALL  0     ROOT ALL Z 15
     8 SEL2       23 GROUP        1 Z    SEL  0     **** SEL Z 16
     9 GLL5        2 GROUP        1 Z    GLL  0     **** GLL Z 20
@<TRIPOS>SET

