#    Name: 1w5v_BE3_1_ligand
#    Modification time : Tue Mar 25 08:39:53 2014

@<TRIPOS>MOLECULE
1w5v_BE3_1_ligand
   88    93     1     0     0
SMALL
NO_CHARGES


@<TRIPOS>ATOM
      1 C01         9.6410   24.0370    2.1640 C.ar      1 BE31100     0.0000 
      2 C02         8.9980   25.2930    1.7340 C.ar      1 BE31100     0.0000 
      3 C03         7.5680   25.5240    1.8590 C.ar      1 BE31100     0.0000 
      4 C04         6.7000   24.4880    2.4330 C.ar      1 BE31100     0.0000 
      5 C05         7.3050   23.2100    2.8790 C.ar      1 BE31100     0.0000 
      6 C06         8.7460   22.9890    2.7480 C.ar      1 BE31100     0.0000 
      7 C07        16.3970   22.0600    8.7660 C.ar      1 BE31100     0.0000 
      8 C08        15.6750   20.9270    9.3790 C.ar      1 BE31100     0.0000 
      9 C09        16.4360   19.7040    9.7740 C.ar      1 BE31100     0.0000 
     10 C10        17.9150   19.6440    9.5470 C.ar      1 BE31100     0.0000 
     11 C11        18.5990   20.8150    8.9250 C.ar      1 BE31100     0.0000 
     12 C12        17.8410   21.9810    8.5500 C.ar      1 BE31100     0.0000 
     13 C13        15.7020   23.3240    8.3220 C.3       1 BE31100     0.0000 
     14 O14        14.5970   23.0950    7.4000 O.3       1 BE31100     0.0000 
     15 C15        14.9230   22.5790    6.0040 C.3       1 BE31100     0.0000 
     16 C16        13.8560   22.8600    4.9680 C.3       1 BE31100     0.0000 
     17 C17        13.5060   24.2870    4.9800 C.3       1 BE31100     0.0000 
     18 C18        12.0990   24.4790    4.2820 C.3       1 BE31100     0.0000 
     19 C19        10.9190   24.4620    5.2400 C.2       1 BE31100     0.0000 
     20 O20        10.6740   23.4510    5.9320 O.2       1 BE31100     0.0000 
     21 N21        10.1210   25.5690    5.3190 N.am      1 BE31100     0.0000 
     22 O22        11.8690   23.4890    3.1800 O.3       1 BE31100     0.0000 
     23 C23        11.1650   23.9350    1.9790 C.3       1 BE31100     0.0000 
     24 O24        14.5780   25.0440    4.3620 O.3       1 BE31100     0.0000 
     25 O25        14.3140   22.5350    3.5900 O.3       1 BE31100     0.0000 
     26 C26        15.0660   21.1010    5.8610 C.2       1 BE31100     0.0000 
     27 O27        14.0820   20.3750    6.1310 O.2       1 BE31100     0.0000 
     28 N28        16.2700   20.6090    5.4590 N.am      1 BE31100     0.0000 
     29 C29        16.5430   19.1970    5.3010 C.3       1 BE31100     0.0000 
     30 C30        16.4980   18.8130    3.8620 C.ar      1 BE31100     0.0000 
     31 C31        17.4770   17.7550    3.6020 C.ar      1 BE31100     0.0000 
     32 C32        15.6520   19.3330    2.7750 C.ar      1 BE31100     0.0000 
     33 C33        15.8120   18.7620    1.4010 C.ar      1 BE31100     0.0000 
     34 C34        16.8040   17.7040    1.1730 C.ar      1 BE31100     0.0000 
     35 C35        17.9720   18.7290    5.6820 C.3       1 BE31100     0.0000 
     36 O36        18.8880   19.7880    5.3420 O.3       1 BE31100     0.0000 
     37 C37        17.6470   17.1840    2.2590 C.ar      1 BE31100     0.0000 
     38 C38        18.1790   17.4220    4.8580 C.3       1 BE31100     0.0000 
     39 C39         8.9630   25.6810    6.1800 C.3       1 BE31100     0.0000 
     40 C40         9.2650   26.4220    7.4800 C.ar      1 BE31100     0.0000 
     41 C41         8.1160   27.2380    7.8440 C.ar      1 BE31100     0.0000 
     42 C42        10.4690   26.4110    8.3240 C.ar      1 BE31100     0.0000 
     43 C43        10.5040   27.2470    9.5630 C.ar      1 BE31100     0.0000 
     44 C44         9.3320   28.0650    9.9100 C.ar      1 BE31100     0.0000 
     45 C45         7.8460   26.5800    5.5770 C.3       1 BE31100     0.0000 
     46 O46         8.4930   27.6670    4.8690 O.3       1 BE31100     0.0000 
     47 C47         8.1300   28.0760    9.0680 C.ar      1 BE31100     0.0000 
     48 C48         7.0520   27.0460    6.8070 C.3       1 BE31100     0.0000 
     49 F49        15.7350   18.5740   10.3740 F         1 BE31100     0.0000 
     50 F50         6.4580   22.1660    3.4550 F         1 BE31100     0.0000 
     51 H           9.5892   26.0253    1.3330 H         1 BE31100     0.0000 
     52 H           7.1659   26.3941    1.5532 H         1 BE31100     0.0000 
     53 H           5.7227   24.6348    2.5237 H         1 BE31100     0.0000 
     54 H           9.1563   22.1207    3.0522 H         1 BE31100     0.0000 
     55 H          14.6962   20.9703    9.5298 H         1 BE31100     0.0000 
     56 H          18.4267   18.8419    9.8055 H         1 BE31100     0.0000 
     57 H          19.5915   20.7682    8.7767 H         1 BE31100     0.0000 
     58 H          18.3152   22.7767    8.1222 H         1 BE31100     0.0000 
     59 H          16.4593   23.9921    7.8573 H         1 BE31100     0.0000 
     60 H          15.3434   23.8598    9.2275 H         1 BE31100     0.0000 
     61 H          15.8423   23.0367    5.6334 H         1 BE31100     0.0000 
     62 H          12.9776   22.2770    5.1965 H         1 BE31100     0.0000 
     63 H          13.3739   24.5990    6.0218 H         1 BE31100     0.0000 
     64 H          12.1250   25.4918    3.8134 H         1 BE31100     0.0000 
     65 H          10.3364   26.4141    4.7264 H         1 BE31100     0.0000 
     66 H          11.5312   24.9286    1.6575 H         1 BE31100     0.0000 
     67 H          11.3551   23.2445    1.1353 H         1 BE31100     0.0000 
     68 H          17.0645   21.2598    5.2439 H         1 BE31100     0.0000 
     69 H          15.8533   18.5666    5.8260 H         1 BE31100     0.0000 
     70 H          14.9876   20.0458    2.9386 H         1 BE31100     0.0000 
     71 H          15.2471   19.1036    0.6596 H         1 BE31100     0.0000 
     72 H          16.9114   17.3200    0.2386 H         1 BE31100     0.0000 
     73 H          17.9605   18.4848    6.7094 H         1 BE31100     0.0000 
     74 H          18.3094   16.4704    2.0902 H         1 BE31100     0.0000 
     75 H          19.2129   17.2876    4.7032 H         1 BE31100     0.0000 
     76 H          17.7087   16.6294    5.3694 H         1 BE31100     0.0000 
     77 H           8.5144   24.7509    6.4302 H         1 BE31100     0.0000 
     78 H          11.2572   25.8572    8.0827 H         1 BE31100     0.0000 
     79 H          11.3127   27.2426   10.1368 H         1 BE31100     0.0000 
     80 H           9.3562   28.6325   10.7484 H         1 BE31100     0.0000 
     81 H           7.2418   25.9748    4.9726 H         1 BE31100     0.0000 
     82 H           7.3439   28.6269    9.3050 H         1 BE31100     0.0000 
     83 H           6.5739   27.9656    6.5848 H         1 BE31100     0.0000 
     84 H           6.3786   26.2805    7.0972 H         1 BE31100     0.0000 
     85 H          14.8762   24.4855    3.5879 H         1 BE31100     0.0000 
     86 H          14.3173   23.4097    3.1054 H         1 BE31100     0.0000 
     87 H          18.3072   20.5712    5.1202 H         1 BE31100     0.0000 
     88 H           7.7592   28.3142    4.6625 H         1 BE31100     0.0000 
@<TRIPOS>BOND
     1    2    1 ar   
     2    6    1 ar   
     3   23    1 1    
     4    3    2 ar   
     5   51    2 1    
     6    4    3 ar   
     7   52    3 1    
     8    5    4 ar   
     9   53    4 1    
    10    6    5 ar   
    11   50    5 1    
    12   54    6 1    
    13    8    7 ar   
    14   12    7 ar   
    15   13    7 1    
    16    9    8 ar   
    17   55    8 1    
    18   10    9 ar   
    19   49    9 1    
    20   11   10 ar   
    21   56   10 1    
    22   12   11 ar   
    23   57   11 1    
    24   58   12 1    
    25   14   13 1    
    26   59   13 1    
    27   60   13 1    
    28   15   14 1    
    29   16   15 1    
    30   26   15 1    
    31   61   15 1    
    32   17   16 1    
    33   25   16 1    
    34   62   16 1    
    35   18   17 1    
    36   24   17 1    
    37   63   17 1    
    38   19   18 1    
    39   22   18 1    
    40   64   18 1    
    41   20   19 2    
    42   21   19 am   
    43   39   21 1    
    44   65   21 1    
    45   23   22 1    
    46   66   23 1    
    47   67   23 1    
    48   85   24 1    
    49   86   25 1    
    50   27   26 2    
    51   28   26 am   
    52   29   28 1    
    53   68   28 1    
    54   30   29 1    
    55   35   29 1    
    56   69   29 1    
    57   31   30 ar   
    58   32   30 ar   
    59   37   31 ar   
    60   38   31 1    
    61   33   32 ar   
    62   70   32 1    
    63   34   33 ar   
    64   71   33 1    
    65   37   34 ar   
    66   72   34 1    
    67   36   35 1    
    68   38   35 1    
    69   73   35 1    
    70   87   36 1    
    71   74   37 1    
    72   75   38 1    
    73   76   38 1    
    74   40   39 1    
    75   45   39 1    
    76   77   39 1    
    77   41   40 ar   
    78   42   40 ar   
    79   47   41 ar   
    80   48   41 1    
    81   43   42 ar   
    82   78   42 1    
    83   44   43 ar   
    84   79   43 1    
    85   47   44 ar   
    86   80   44 1    
    87   46   45 1    
    88   48   45 1    
    89   81   45 1    
    90   88   46 1    
    91   82   47 1    
    92   83   48 1    
    93   84   48 1    
@<TRIPOS>SUBSTRUCTURE
     1 BE31100     1 GROUP   
@<TRIPOS>SET

