#    Name: 3b1e_P1T_3_INTS_M
#    Modification time : Mon Mar 24 18:36:07 2014

@<TRIPOS>MOLECULE
3b1e_P1T_3_INTS_M
   78     0    12     0     0
SMALL
NO_CHARGES


@<TRIPOS>ATOM
      1 N          15.6615   47.7075   99.6730 N.am      2 SEC2        0.0000 
      2 N          14.2420   47.6610   99.2270 N.am     10 SEL2        0.0000 
      3 N          17.0810   47.7540  100.1190 N.am      6 SEP2        0.0000 
      4 N          14.5020   45.9340  101.0835 N.am      2 SEC2        0.0000 
      5 N          13.5370   45.4610  100.1520 N.am     10 SEL2        0.0000 
      6 N          15.4670   46.4070  102.0150 N.am      6 SEP2        0.0000 
      7 N          11.8700   46.0985   97.0460 N.am      2 SEC2        0.0000 
      8 N          12.4100   46.2880   98.2480 N.am     10 SEL2        0.0000 
      9 N          11.3300   45.9090   95.8440 N.am      6 SEP2        0.0000 
     10 CA         15.5395   45.8765   95.0210 C.3       4 GLC5        0.0000 
     11 CA         14.5450   45.1510   96.7130 C.3      12 GLL5        0.0000 
     12 CA         16.5340   46.6020   93.3290 C.3       8 GLP5        0.0000 
     13 CA         13.2400   43.7135   95.8495 C.3       4 GLC5        0.0000 
     14 CA         11.9350   42.2760   94.9860 C.3       8 GLP5        0.0000 
     15 CA         17.5645   44.3200   98.7135 C.3       4 GLC5        0.0000 
     16 CA         16.9140   44.3280   97.0090 C.3      12 GLL5        0.0000 
     17 CA         18.2150   44.3120  100.4180 C.3       8 GLP5        0.0000 
     18 CA         16.6520   42.4090   97.1380 C.3       4 GLC5        0.0000 
     19 CA         16.3900   40.4900   97.2670 C.3       8 GLP5        0.0000 
     20 N          19.0695   43.4455   97.2470 N.am      2 SEC2        0.0000 
     21 N          17.9990   43.6560   96.6310 N.am     10 SEL2        0.0000 
     22 N          20.1400   43.2350   97.8630 N.am      6 SEP2        0.0000 
     23 CA         18.9885   43.9605   94.3465 C.3       4 GLC5        0.0000 
     24 CA         19.2490   42.1640   95.0860 C.3      12 GLL5        0.0000 
     25 CA         18.7280   45.7570   93.6070 C.3       8 GLP5        0.0000 
     26 CA         20.6980   43.4775   95.2730 C.3       4 GLC5        0.0000 
     27 CA         22.1470   44.7910   95.4600 C.3       8 GLP5        0.0000 
     28 CA         20.5355   41.2410   94.5315 C.3       4 GLC5        0.0000 
     29 CA         21.8220   40.3180   93.9770 C.3       8 GLP5        0.0000 
     30 CA         20.5125   41.9235   96.8945 C.3       4 GLC5        0.0000 
     31 CA         21.7760   41.6830   98.7030 C.3       8 GLP5        0.0000 
     32 CA         17.9910   40.4350   94.7410 C.3       4 GLC5        0.0000 
     33 CA         16.7330   38.7060   94.3960 C.3       8 GLP5        0.0000 
     34 CA         16.8050   40.8035   94.5395 C.3       4 GLC5        0.0000 
     35 CA         16.8770   42.9010   94.6830 C.3      12 GLL5        0.0000 
     36 N          17.0910   42.0360   92.1950 N.am      2 SEC2        0.0000 
     37 N          16.9210   42.1750   93.5440 N.am     10 SEL2        0.0000 
     38 N          17.2610   41.8970   90.8460 N.am      6 SEP2        0.0000 
     39 O          16.4480   40.9050   93.6355 O.2       1 ALC1        0.0000 
     40 O          16.9210   42.1750   93.5440 O.2       9 ALL1        0.0000 
     41 O          15.9750   39.6350   93.7270 O.2       5 ALP1        0.0000 
     42 CA         15.4785   45.1365   93.8005 C.3       4 GLC5        0.0000 
     43 CA         14.4230   43.6710   94.2720 C.3      12 GLL5        0.0000 
     44 CA         14.9920   45.2025   92.0580 C.3       4 GLC5        0.0000 
     45 CA         13.4560   44.1970   92.1230 C.3      12 GLL5        0.0000 
     46 CA         16.5280   46.2080   91.9930 C.3       8 GLP5        0.0000 
     47 CA         10.8285   45.5960   91.4185 C.3       4 GLC5        0.0000 
     48 CA         12.2030   44.5050   92.6260 C.3      12 GLL5        0.0000 
     49 CA          9.4540   46.6870   90.2110 C.3       8 GLP5        0.0000 
     50 CA         10.8395   45.3445   93.4735 C.3       4 GLC5        0.0000 
     51 CA          9.4760   46.1840   94.3210 C.3       8 GLP5        0.0000 
     52 NZ         14.1335   43.5785   88.8320 N.4       3 LYC4        0.0000 
     53 NZ         12.7620   44.6300   89.9280 N.4      11 LYL4        0.0000 
     54 NZ         14.5280   42.5110   87.1650 N.4       7 LYP4        0.0000 
     55 N          11.4400   44.0660   89.9020 N.am      2 SEC2        0.0000 
     56 N          12.7620   44.6300   89.9280 N.am     10 SEL2        0.0000 
     57 N          10.1180   43.5020   89.8760 N.am      6 SEP2        0.0000 
     58 N          13.0865   43.9030   88.6635 N.am      2 SEC2        0.0000 
     59 N          13.4110   43.1760   87.3990 N.am      6 SEP2        0.0000 
     60 NZ         14.8560   43.9810   90.2650 N.4      11 LYL4        0.0000 
     61 N          16.0585   42.9390   90.5555 N.am      2 SEC2        0.0000 
     62 N          14.8560   43.9810   90.2650 N.am     10 SEL2        0.0000 
     63 N          15.1790   43.2385   89.1670 N.am      2 SEC2        0.0000 
     64 N          15.5020   42.4960   88.0690 N.am      6 SEP2        0.0000 
     65 N          14.1335   43.5785   88.8320 N.am      2 SEC2        0.0000 
     66 CA         14.6845   43.4170   97.6425 C.3       4 GLC5        0.0000 
     67 CA         14.2160   42.0900   98.8080 C.3       8 GLP5        0.0000 
     68 CA         16.5033   46.4485   96.9465 C.3       4 GLC5        0.0000 
     69 CA         15.7610   44.3370   96.2410 C.3      12 GLL5        0.0000 
     70 CA         16.9730   48.3610   97.1500 C.3       8 GLP5        0.0000 
     71 CA         17.5068   41.5228   96.2767 C.3       4 GLC5        0.0000 
     72 CA         17.9980   42.9470   95.4870 C.3      12 GLL5        0.0000 
     73 CA         16.3450   41.8773   96.0652 C.3       4 GLC5        0.0000 
     74 CA         13.5040   42.9627   94.8220 C.3       4 GLC5        0.0000 
     75 CA         15.7230   43.6280   95.0440 C.3      12 GLL5        0.0000 
     76 CA         12.0173   43.0430   91.8033 C.3       4 GLC5        0.0000 
     77 CA         11.2050   41.7350   91.2320 C.3       8 GLP5        0.0000 
     78 CA         12.3822   43.3135   93.6803 C.3       4 GLC5        0.0000 
@<TRIPOS>BOND
@<TRIPOS>SUBSTRUCTURE
     1 ALC1       39 GROUP        1 X    ALC  0     ROOT ALC X 1
     2 SEC2        1 GROUP        1 X    SEC  0     **** SEC X 2
     3 LYC4       52 GROUP        1 X    LYC  0     **** LYC X 4
     4 GLC5       10 GROUP        1 X    GLC  0     **** GLC X 6
     5 ALP1       41 GROUP        1 Y    ALP  0     ROOT ALP Y 8
     6 SEP2        3 GROUP        1 Y    SEP  0     **** SEP Y 9
     7 LYP4       54 GROUP        1 Y    LYP  0     **** LYP Y 11
     8 GLP5       12 GROUP        1 Y    GLP  0     **** GLP Y 13
     9 ALL1       40 GROUP        1 Z    ALL  0     ROOT ALL Z 15
    10 SEL2        2 GROUP        1 Z    SEL  0     **** SEL Z 16
    11 LYL4       53 GROUP        1 Z    LYL  0     **** LYL Z 18
    12 GLL5       11 GROUP        1 Z    GLL  0     **** GLL Z 20
@<TRIPOS>SET

