#    Name: 3b1e_P1T_3_ligand
#    Modification time : Mon Mar 24 18:36:07 2014

@<TRIPOS>MOLECULE
3b1e_P1T_3_ligand
   31    31     1     0     0
SMALL
NO_CHARGES


@<TRIPOS>ATOM
      1 OP1        14.2420   47.6610   99.2270 O.co2     1 P1T401      0.0000 
      2 P          13.6770   46.3010   98.9720 P.3       1 P1T401      0.0000 
      3 OP2        13.5370   45.4610  100.1520 O.co2     1 P1T401      0.0000 
      4 OP3        12.4100   46.2880   98.2480 O.co2     1 P1T401      0.0000 
      5 OP4        14.6730   45.4850   98.0530 O.3       1 P1T401      0.0000 
      6 C5A        14.5450   45.1510   96.7130 C.3       1 P1T401      0.0000 
      7 C5         15.7610   44.3370   96.2410 C.ar      1 P1T401      0.0000 
      8 C6         16.9140   44.3280   97.0090 C.ar      1 P1T401      0.0000 
      9 N1         17.9990   43.6560   96.6310 N.ar      1 P1T401      0.0000 
     10 C2         17.9980   42.9470   95.4870 C.ar      1 P1T401      0.0000 
     11 C2A        19.2490   42.1640   95.0860 C.3       1 P1T401      0.0000 
     12 C3         16.8770   42.9010   94.6830 C.ar      1 P1T401      0.0000 
     13 O3A        16.9210   42.1750   93.5440 O.3       1 P1T401      0.0000 
     14 C4         15.7230   43.6280   95.0440 C.ar      1 P1T401      0.0000 
     15 C4A        14.4230   43.6710   94.2720 C.3       1 P1T401      0.0000 
     16 N          14.5750   43.7660   92.9430 N.pl3     1 P1T401      0.0000 
     17 CA         13.4560   44.1970   92.1230 C.2       1 P1T401      0.0000 
     18 CB         12.2030   44.5050   92.6260 C.2       1 P1T401      0.0000 
     19 C          13.7110   44.2790   90.6430 C.2       1 P1T401      0.0000 
     20 O          12.7620   44.6300   89.9280 O.co2     1 P1T401      0.0000 
     21 OXT        14.8560   43.9810   90.2650 O.co2     1 P1T401      0.0000 
     22 H          14.4794   46.0356   96.0556 H         1 P1T401      0.0000 
     23 H          13.6513   44.5359   96.5085 H         1 P1T401      0.0000 
     24 H          16.9082   44.8721   97.9076 H         1 P1T401      0.0000 
     25 H          13.8267   44.5232   94.7087 H         1 P1T401      0.0000 
     26 H          13.8422   42.7557   94.5841 H         1 P1T401      0.0000 
     27 H          15.4525   43.5479   92.4619 H         1 P1T401      0.0000 
     28 H          20.0424   42.7626   94.9760 H         1 P1T401      0.0000 
     29 H          19.4927   41.4772   95.7708 H         1 P1T401      0.0000 
     30 H          19.1233   41.6817   94.2191 H         1 P1T401      0.0000 
     31 H          16.6880   41.2431   93.8220 H         1 P1T401      0.0000 
@<TRIPOS>BOND
     1    2    1 ar   
     2    3    2 ar   
     3    4    2 ar   
     4    5    2 1    
     5    6    5 1    
     6    7    6 1    
     7   22    6 1    
     8   23    6 1    
     9    8    7 ar   
    10   14    7 ar   
    11    9    8 ar   
    12   24    8 1    
    13   10    9 ar   
    14   11   10 1    
    15   12   10 ar   
    16   28   11 1    
    17   29   11 1    
    18   30   11 1    
    19   13   12 1    
    20   14   12 ar   
    21   31   13 1    
    22   15   14 1    
    23   16   15 1    
    24   25   15 1    
    25   26   15 1    
    26   17   16 1    
    27   27   16 1    
    28   18   17 2    
    29   19   17 1    
    30   20   19 ar   
    31   21   19 ar   
@<TRIPOS>SUBSTRUCTURE
     1 P1T401      1 GROUP   
@<TRIPOS>SET

