#    Name: 2XYV_1_CAVITY_N1_ALL.mol2
#    Modification time : Tue Mar 11 01:21:10 2014

@<TRIPOS>MOLECULE
2XYV_1_CAVITY_N1_ALL.mol2
  111     0     5     0     0
SMALL
NO_CHARGES


@<TRIPOS>ATOM
      1 NZ         55.2346   69.4602   -2.8126 N.2       2 LYS4        0.0000 
      2 NZ         53.6654   68.5428   -1.7190 N.2       2 LYS4        0.0000 
      3 CA         51.4721   67.8451    0.7208 C.3       4 GLY6        0.0000 
      4 CZ         52.0963   67.6253   -0.6254 C.ar      3 PHE5        0.0000 
      5 NZ         52.7205   67.4055   -1.9715 N.2       2 LYS4        0.0000 
      6 CA         50.5271   66.7078    0.4682 C.3       4 GLY6        0.0000 
      7 CZ         51.1513   66.4881   -0.8779 C.ar      3 PHE5        0.0000 
      8 DU         51.7755   66.2683   -2.2240 H         5 CUB7        0.0000 
      9 NZ         52.3997   66.0485   -3.5702 N.2       2 LYS4        0.0000 
     10 N          49.5822   65.5706    0.2157 N.2       1 ALA2        0.0000 
     11 DU         50.2063   65.3508   -1.1304 H         5 CUB7        0.0000 
     12 CA         50.8305   65.1311   -2.4765 C.3       4 GLY6        0.0000 
     13 CA         51.4547   64.9113   -3.8227 C.3       4 GLY6        0.0000 
     14 O          52.0789   64.6916   -5.1688 O.2       1 ALA2        0.0000 
     15 N          48.6372   64.4334   -0.0368 N.2       1 ALA2        0.0000 
     16 DU         49.2614   64.2136   -1.3829 H         5 CUB7        0.0000 
     17 CA         49.8856   63.9939   -2.7290 C.3       4 GLY6        0.0000 
     18 O          50.5098   63.7741   -4.0752 O.2       1 ALA2        0.0000 
     19 N          47.6922   63.2962   -0.2893 N.2       1 ALA2        0.0000 
     20 NZ         48.3164   63.0764   -1.6354 N.2       2 LYS4        0.0000 
     21 NZ         48.9406   62.8566   -2.9816 N.2       2 LYS4        0.0000 
     22 N          45.4989   62.5985    2.1505 N.2       1 ALA2        0.0000 
     23 N          46.1231   62.3787    0.8043 N.2       1 ALA2        0.0000 
     24 N          46.7473   62.1589   -0.5418 N.2       1 ALA2        0.0000 
     25 NZ         47.3715   61.9392   -1.8879 N.2       2 LYS4        0.0000 
     26 DU         44.5539   61.4612    1.8980 H         5 CUB7        0.0000 
     27 DU         45.1781   61.2415    0.5518 H         5 CUB7        0.0000 
     28 N          45.8023   61.0217   -0.7943 N.2       1 ALA2        0.0000 
     29 N          44.2332   60.1042    0.2993 N.2       1 ALA2        0.0000 
     30 O          52.6818   69.4959   -2.3307 O.2       1 ALA2        0.0000 
     31 NZ         53.3060   69.2761   -3.6768 N.2       2 LYS4        0.0000 
     32 CA         51.7369   68.3586   -2.5832 C.3       4 GLY6        0.0000 
     33 CA         52.3611   68.1389   -3.9293 C.3       4 GLY6        0.0000 
     34 CZ         49.5435   67.6610   -0.1434 C.ar      3 PHE5        0.0000 
     35 CZ         50.1677   67.4412   -1.4896 C.ar      3 PHE5        0.0000 
     36 CZ         50.7919   67.2214   -2.8357 C.ar      3 PHE5        0.0000 
     37 CA         51.4161   67.0017   -4.1818 C.3       4 GLY6        0.0000 
     38 CZ         49.2228   66.3040   -1.7421 C.ar      3 PHE5        0.0000 
     39 CA         49.8470   66.0842   -3.0882 C.3       4 GLY6        0.0000 
     40 CA         50.4712   65.8644   -4.4344 C.3       4 GLY6        0.0000 
     41 O          51.0953   65.6447   -5.7805 O.2       1 ALA2        0.0000 
     42 O          48.2778   65.1667   -1.9946 O.2       1 ALA2        0.0000 
     43 CA         48.9020   64.9470   -3.3407 C.3       4 GLY6        0.0000 
     44 CA         49.5262   64.7272   -4.6869 C.3       4 GLY6        0.0000 
     45 O          50.1504   64.5074   -6.0330 O.2       1 ALA2        0.0000 
     46 N          46.7086   64.2493   -0.9010 N.2       1 ALA2        0.0000 
     47 CA         47.3328   64.0295   -2.2471 C.3       4 GLY6        0.0000 
     48 NZ         47.9570   63.8097   -3.5932 N.2       2 LYS4        0.0000 
     49 NZ         48.5812   63.5900   -4.9394 N.2       2 LYS4        0.0000 
     50 N          44.5153   63.5516    1.5388 N.2       1 ALA2        0.0000 
     51 N          45.1395   63.3318    0.1927 N.2       1 ALA2        0.0000 
     52 N          45.7637   63.1120   -1.1535 N.2       1 ALA2        0.0000 
     53 NZ         46.3879   62.8923   -2.4996 N.2       2 LYS4        0.0000 
     54 DU         43.5703   62.4143    1.2863 H         5 CUB7        0.0000 
     55 DU         44.1945   62.1946   -0.0599 H         5 CUB7        0.0000 
     56 N          44.8187   61.9748   -1.4060 N.2       1 ALA2        0.0000 
     57 NZ         45.4429   61.7550   -2.7521 N.2       2 LYS4        0.0000 
     58 DU         42.6254   61.2771    1.0338 H         5 CUB7        0.0000 
     59 N          43.2496   61.0573   -0.3124 N.2       1 ALA2        0.0000 
     60 N          43.8738   60.8376   -1.6585 N.2       1 ALA2        0.0000 
     61 CA         49.1668   65.4605   -6.6447 C.3       4 GLY6        0.0000 
     62 N          44.1559   64.2849   -0.4190 N.2       1 ALA2        0.0000 
     63 N          42.5868   63.3674    0.6746 N.2       1 ALA2        0.0000 
     64 N          43.2110   63.1477   -0.6715 N.2       1 ALA2        0.0000 
     65 N          43.8351   62.9279   -2.0177 N.2       1 ALA2        0.0000 
     66 NZ         41.6418   62.2302    0.4221 N.2       2 LYS4        0.0000 
     67 NZ         42.2660   62.0104   -0.9240 N.2       2 LYS4        0.0000 
     68 N          42.8902   61.7907   -2.2702 N.2       1 ALA2        0.0000 
     69 O          48.7531   58.1624    1.0407 O.2       1 ALA2        0.0000 
     70 O          49.3773   57.9426   -0.3054 O.2       1 ALA2        0.0000 
     71 CA         47.8081   57.0251    0.7882 C.3       4 GLY6        0.0000 
     72 N          48.4323   56.8054   -0.5579 N.2       1 ALA2        0.0000 
     73 NZ         50.9251   63.8842    2.7852 N.2       2 LYS4        0.0000 
     74 CA         51.5493   63.6644    1.4391 C.3       4 GLY6        0.0000 
     75 DU         50.6044   62.5272    1.1866 H         5 CUB7        0.0000 
     76 CA         51.2285   62.3074   -0.1596 C.3       4 GLY6        0.0000 
     77 DU         49.6594   61.3899    0.9341 H         5 CUB7        0.0000 
     78 O          50.2836   61.1702   -0.4121 O.2       1 ALA2        0.0000 
     79 DU         48.7144   60.2527    0.6816 H         5 CUB7        0.0000 
     80 O          49.3386   60.0329   -0.6646 O.2       1 ALA2        0.0000 
     81 DU         47.1453   59.3352    1.7752 H         5 CUB7        0.0000 
     82 DU         47.7695   59.1155    0.4291 H         5 CUB7        0.0000 
     83 NZ         48.3937   58.8957   -0.9171 N.2       2 LYS4        0.0000 
     84 CA         46.2003   58.1980    1.5227 C.3       4 GLY6        0.0000 
     85 O          46.8245   57.9783    0.1765 O.2       1 ALA2        0.0000 
     86 N          47.4487   57.7585   -1.1696 N.2       1 ALA2        0.0000 
     87 CA         51.5107   65.7547    1.0799 C.3       4 GLY6        0.0000 
     88 DU         52.1349   65.5350   -0.2662 H         5 CUB7        0.0000 
     89 CA         52.7591   65.3152   -1.6123 C.3       4 GLY6        0.0000 
     90 NZ         53.3833   65.0954   -2.9585 N.2       2 LYS4        0.0000 
     91 CA         49.9415   64.8373    2.1736 C.3       4 GLY6        0.0000 
     92 N          50.5657   64.6175    0.8274 N.2       1 ALA2        0.0000 
     93 CA         51.1899   64.3977   -0.5187 C.3       4 GLY6        0.0000 
     94 CA         51.8141   64.1780   -1.8649 C.3       4 GLY6        0.0000 
     95 N          48.9966   63.7000    1.9210 N.2       1 ALA2        0.0000 
     96 N          49.6208   63.4803    0.5749 N.2       1 ALA2        0.0000 
     97 CA         50.2450   63.2605   -0.7712 C.3       4 GLY6        0.0000 
     98 CA         50.8692   63.0407   -2.1174 C.3       4 GLY6        0.0000 
     99 N          48.0516   62.5628    1.6685 N.2       1 ALA2        0.0000 
    100 N          48.6758   62.3430    0.3224 N.2       1 ALA2        0.0000 
    101 NZ         49.3000   62.1233   -1.0237 N.2       2 LYS4        0.0000 
    102 CA         49.9242   61.9035   -2.3699 C.3       4 GLY6        0.0000 
    103 CA         46.4825   61.6454    2.7622 C.3       4 GLY6        0.0000 
    104 N          47.1067   61.4256    1.4160 N.2       1 ALA2        0.0000 
    105 DU         47.7309   61.2058    0.0699 H         5 CUB7        0.0000 
    106 NZ         48.3550   60.9861   -1.2763 N.2       2 LYS4        0.0000 
    107 DU         46.1617   60.2884    1.1635 H         5 CUB7        0.0000 
    108 N          46.7859   60.0686   -0.1826 N.2       1 ALA2        0.0000 
    109 NZ         47.4101   59.8488   -1.5288 N.2       2 LYS4        0.0000 
    110 O          45.2167   59.1511    0.9110 O.2       1 ALA2        0.0000 
    111 N          45.8409   58.9314   -0.4351 N.2       1 ALA2        0.0000 
@<TRIPOS>BOND
@<TRIPOS>SUBSTRUCTURE
     1 ALA2       10 GROUP   
     2 LYS4        1 GROUP   
     3 PHE5        4 GROUP   
     4 GLY6        3 GROUP   
     5 CUB7        8 GROUP   
@<TRIPOS>SET

