#    Name: 2xyv_SAH_1_INTS_M
#    Modification time : Tue Mar 25 07:12:05 2014

@<TRIPOS>MOLECULE
2xyv_SAH_1_INTS_M
   71     0    12     0     0
SMALL
NO_CHARGES


@<TRIPOS>ATOM
      1 OD1        40.5260   62.3525   -3.3035 O.co2     3 ASC3        0.0000 
      2 OD1        41.0710   61.3920   -4.1910 O.co2    11 ASL3        0.0000 
      3 OD1        39.9810   63.3130   -2.4160 O.co2     7 ASP3        0.0000 
      4 O          42.2960   61.8900   -4.5480 O.2       1 ALC1        0.0000 
      5 O          41.0710   61.3920   -4.1910 O.2       9 ALL1        0.0000 
      6 O          43.5210   62.3880   -4.9050 O.2       5 ALP1        0.0000 
      7 O          40.5260   62.3525   -3.3035 O.2       1 ALC1        0.0000 
      8 O          39.9810   63.3130   -2.4160 O.2       5 ALP1        0.0000 
      9 CA         42.5305   60.3915   -5.2860 C.3       4 GLC5        0.0000 
     10 CA         41.5180   60.1700   -3.4510 C.3      12 GLL5        0.0000 
     11 CA         43.5430   60.6130   -7.1210 C.3       8 GLP5        0.0000 
     12 CA         43.2900   59.0125   -4.2070 C.3       4 GLC5        0.0000 
     13 CA         45.0620   57.8550   -4.9630 C.3       8 GLP5        0.0000 
     14 CA         41.7535   63.2175   -2.9275 C.3       4 GLC5        0.0000 
     15 CA         42.6900   61.6450   -1.7770 C.3      12 GLL5        0.0000 
     16 CA         40.8170   64.7900   -4.0780 C.3       8 GLP5        0.0000 
     17 N          38.5690   58.7225   -5.7365 N.am      2 SEC2        0.0000 
     18 N          39.7250   59.0940   -4.6220 N.am     10 SEL2        0.0000 
     19 N          37.4130   58.3510   -6.8510 N.am      6 SEP2        0.0000 
     20 N          39.4330   58.9010   -2.0300 N.am      2 SEC2        0.0000 
     21 N          40.3200   58.2020   -2.7970 N.am     10 SEL2        0.0000 
     22 N          38.5460   59.6000   -1.2630 N.am      6 SEP2        0.0000 
     23 CA         44.3285   64.7785    0.6030 C.3       4 GLC5        0.0000 
     24 CA         44.5900   62.8530   -0.2580 C.3      12 GLL5        0.0000 
     25 CA         44.0670   66.7040    1.4640 C.3       8 GLP5        0.0000 
     26 CA         45.4615   63.0815   -3.5690 C.3       4 GLC5        0.0000 
     27 CA         45.4970   62.5660   -1.4520 C.3      12 GLL5        0.0000 
     28 CA         45.4260   63.5970   -5.6860 C.3       8 GLP5        0.0000 
     29 N          45.8565   65.2950   -1.2020 N.am      2 SEC2        0.0000 
     30 N          46.1960   63.7380   -1.8870 N.am     10 SEL2        0.0000 
     31 N          45.5170   66.8520   -0.5170 N.am      6 SEP2        0.0000 
     32 O          46.7465   60.6375   -3.2825 O.2       1 ALC1        0.0000 
     33 O          46.3650   60.4120   -2.0330 O.2       9 ALL1        0.0000 
     34 O          47.1280   60.8630   -4.5320 O.2       5 ALP1        0.0000 
     35 O          47.9730   61.0900   -3.2770 O.2       1 ALC1        0.0000 
     36 O          48.8180   61.3170   -2.0220 O.2       9 ALL1        0.0000 
     37 O          48.8310   60.4525   -3.0165 O.2       1 ALC1        0.0000 
     38 O          48.8440   59.5880   -4.0110 O.2       5 ALP1        0.0000 
     39 CA         46.4715   63.4765   -3.9825 C.3       4 GLC5        0.0000 
     40 CA         47.5170   63.3560   -2.2790 C.3      12 GLL5        0.0000 
     41 CA         46.2910   65.1205   -2.5845 C.3       4 GLC5        0.0000 
     42 CA         45.0650   66.8850   -2.8900 C.3       8 GLP5        0.0000 
     43 CA         51.3415   67.6950   -5.0625 C.3       4 GLC5        0.0000 
     44 CA         51.2910   66.4570   -3.3130 C.3      12 GLL5        0.0000 
     45 CA         51.3920   68.9330   -6.8120 C.3       8 GLP5        0.0000 
     46 CA         50.6755   68.4000   -3.5600 C.3       4 GLC5        0.0000 
     47 CA         50.0600   70.3430   -3.8070 C.3       8 GLP5        0.0000 
     48 N          52.3390   66.0605   -5.9615 N.am      2 SEC2        0.0000 
     49 N          51.5270   65.8840   -4.5190 N.am     10 SEL2        0.0000 
     50 N          53.1510   66.2370   -7.4040 N.am      6 SEP2        0.0000 
     51 CA         51.7045   63.3165   -4.2665 C.3       4 GLC5        0.0000 
     52 CA         50.7910   64.8430   -4.9690 C.3      12 GLL5        0.0000 
     53 CA         52.6180   61.7900   -3.5640 C.3       8 GLP5        0.0000 
     54 CA         52.8145   64.8110   -5.6965 C.3       4 GLC5        0.0000 
     55 CA         54.8380   64.7790   -6.4240 C.3       8 GLP5        0.0000 
     56 CA         50.9770   66.2160   -6.4830 C.3       4 GLC5        0.0000 
     57 CA         51.1630   67.5890   -7.9970 C.3       8 GLP5        0.0000 
     58 CA         49.4530   66.2900   -5.3055 C.3       4 GLC5        0.0000 
     59 CA         48.1150   67.7370   -5.6420 C.3       8 GLP5        0.0000 
     60 N          50.4155   62.8240   -4.8460 N.am      2 SEC2        0.0000 
     61 N          49.7750   64.2920   -4.2690 N.am     10 SEL2        0.0000 
     62 N          51.0560   61.3560   -5.4230 N.am      6 SEP2        0.0000 
     63 CA         51.0250   63.2805   -3.3035 C.3       4 GLC5        0.0000 
     64 CA         49.4320   64.7710   -3.0430 C.3      12 GLL5        0.0000 
     65 CA         48.0665   65.8515   -3.9490 C.3       4 GLC5        0.0000 
     66 CA         46.7010   66.9320   -4.8550 C.3       8 GLP5        0.0000 
     67 CA         42.5573   58.4290   -2.2405 C.3       4 GLC5        0.0000 
     68 CA         41.6970   60.5020   -1.9690 C.3      12 GLL5        0.0000 
     69 CA         43.5070   56.5220   -1.7710 C.3       8 GLP5        0.0000 
     70 CA         49.4270   66.9592   -4.2707 C.3       4 GLC5        0.0000 
     71 CA         50.1870   65.9060   -2.4860 C.3      12 GLL5        0.0000 
@<TRIPOS>BOND
@<TRIPOS>SUBSTRUCTURE
     1 ALC1        4 GROUP        1 X    ALC  0     ROOT ALC X 1
     2 SEC2       17 GROUP        1 X    SEC  0     **** SEC X 2
     3 ASC3        1 GROUP        1 X    ASC  0     **** ASC X 3
     4 GLC5        9 GROUP        1 X    GLC  0     **** GLC X 6
     5 ALP1        6 GROUP        1 Y    ALP  0     ROOT ALP Y 8
     6 SEP2       19 GROUP        1 Y    SEP  0     **** SEP Y 9
     7 ASP3        3 GROUP        1 Y    ASP  0     **** ASP Y 10
     8 GLP5       11 GROUP        1 Y    GLP  0     **** GLP Y 13
     9 ALL1        5 GROUP        1 Z    ALL  0     ROOT ALL Z 15
    10 SEL2       18 GROUP        1 Z    SEL  0     **** SEL Z 16
    11 ASL3        2 GROUP        1 Z    ASL  0     **** ASL Z 17
    12 GLL5       10 GROUP        1 Z    GLL  0     **** GLL Z 20
@<TRIPOS>SET

