#    Name: 2xyv_SAH_1_ligand
#    Modification time : Tue Mar 25 07:12:05 2014

@<TRIPOS>MOLECULE
2xyv_SAH_1_ligand
   46    48     1     0     0
SMALL
NO_CHARGES


@<TRIPOS>ATOM
      1 N          41.0710   61.3920   -4.1910 N.4       1 SAH1300     0.0000 
      2 CA         41.5180   60.1700   -3.4510 C.3       1 SAH1300     0.0000 
      3 CB         41.6970   60.5020   -1.9690 C.3       1 SAH1300     0.0000 
      4 CG         42.6900   61.6450   -1.7770 C.3       1 SAH1300     0.0000 
      5 SD         43.3610   61.5860   -0.1430 S.3       1 SAH1300     0.0000 
      6 C          40.4740   59.0950   -3.6310 C.2       1 SAH1300     0.0000 
      7 O          39.7250   59.0940   -4.6220 O.co2     1 SAH1300     0.0000 
      8 OXT        40.3200   58.2020   -2.7970 O.co2     1 SAH1300     0.0000 
      9 C5'        44.5900   62.8530   -0.2580 C.3       1 SAH1300     0.0000 
     10 C4'        45.4970   62.5660   -1.4520 C.3       1 SAH1300     0.0000 
     11 O4'        46.1960   63.7380   -1.8870 O.3       1 SAH1300     0.0000 
     12 C3'        46.5450   61.5090   -1.1320 C.3       1 SAH1300     0.0000 
     13 O3'        46.3650   60.4120   -2.0330 O.3       1 SAH1300     0.0000 
     14 C2'        47.8770   62.1870   -1.3790 C.3       1 SAH1300     0.0000 
     15 O2'        48.8180   61.3170   -2.0220 O.3       1 SAH1300     0.0000 
     16 C1'        47.5170   63.3560   -2.2790 C.3       1 SAH1300     0.0000 
     17 N9         48.5040   64.4570   -2.1320 N.pl3     1 SAH1300     0.0000 
     18 C8         48.6320   65.2910   -1.0820 C.2       1 SAH1300     0.0000 
     19 N7         49.6480   66.1730   -1.2800 N.2       1 SAH1300     0.0000 
     20 C5         50.1870   65.9060   -2.4860 C.ar      1 SAH1300     0.0000 
     21 C6         51.2910   66.4570   -3.3130 C.ar      1 SAH1300     0.0000 
     22 N6         52.0370   67.5010   -2.8740 N.pl3     1 SAH1300     0.0000 
     23 N1         51.5270   65.8840   -4.5190 N.ar      1 SAH1300     0.0000 
     24 C2         50.7910   64.8430   -4.9690 C.ar      1 SAH1300     0.0000 
     25 N3         49.7750   64.2920   -4.2690 N.ar      1 SAH1300     0.0000 
     26 C4         49.4320   64.7710   -3.0430 C.ar      1 SAH1300     0.0000 
     27 H          42.4511   59.8305   -3.8498 H         1 SAH1300     0.0000 
     28 H          42.0602   59.6176   -1.4453 H         1 SAH1300     0.0000 
     29 H          40.7332   60.7875   -1.5472 H         1 SAH1300     0.0000 
     30 H          42.2352   62.6050   -1.8248 H         1 SAH1300     0.0000 
     31 H          43.5469   61.5622   -2.4011 H         1 SAH1300     0.0000 
     32 H          45.0952   62.7940    0.6729 H         1 SAH1300     0.0000 
     33 H          44.0211   63.7411   -0.3707 H         1 SAH1300     0.0000 
     34 H          44.8819   62.1758   -2.2641 H         1 SAH1300     0.0000 
     35 H          46.4632   61.2429   -0.1208 H         1 SAH1300     0.0000 
     36 H          48.2303   62.5815   -0.4540 H         1 SAH1300     0.0000 
     37 H          47.5179   62.9877   -3.2949 H         1 SAH1300     0.0000 
     38 H          48.0704   65.2706   -0.2779 H         1 SAH1300     0.0000 
     39 H          52.7279   67.8461   -3.5093 H         1 SAH1300     0.0000 
     40 H          51.8302   67.8334   -1.9538 H         1 SAH1300     0.0000 
     41 H          51.0244   64.4363   -5.9250 H         1 SAH1300     0.0000 
     42 H          41.8460   61.9213   -4.5363 H         1 SAH1300     0.0000 
     43 H          40.4997   61.1611   -4.9785 H         1 SAH1300     0.0000 
     44 H          40.5347   62.0032   -3.6090 H         1 SAH1300     0.0000 
     45 H          46.7056   60.7418   -2.9134 H         1 SAH1300     0.0000 
     46 H          48.2889   60.8340   -2.7197 H         1 SAH1300     0.0000 
@<TRIPOS>BOND
     1    2    1 1    
     2   42    1 1    
     3   43    1 1    
     4   44    1 1    
     5    3    2 1    
     6    6    2 1    
     7   27    2 1    
     8    4    3 1    
     9   28    3 1    
    10   29    3 1    
    11    5    4 1    
    12   30    4 1    
    13   31    4 1    
    14    9    5 1    
    15    7    6 ar   
    16    8    6 ar   
    17   10    9 1    
    18   32    9 1    
    19   33    9 1    
    20   11   10 1    
    21   12   10 1    
    22   34   10 1    
    23   16   11 1    
    24   13   12 1    
    25   14   12 1    
    26   35   12 1    
    27   45   13 1    
    28   15   14 1    
    29   16   14 1    
    30   36   14 1    
    31   46   15 1    
    32   17   16 1    
    33   37   16 1    
    34   18   17 1    
    35   26   17 1    
    36   19   18 2    
    37   38   18 1    
    38   20   19 1    
    39   21   20 ar   
    40   26   20 ar   
    41   22   21 1    
    42   23   21 ar   
    43   39   22 1    
    44   40   22 1    
    45   24   23 ar   
    46   25   24 ar   
    47   41   24 1    
    48   26   25 ar   
@<TRIPOS>SUBSTRUCTURE
     1 SAH1300     1 GROUP   
@<TRIPOS>SET

