#    Name: 1axw_MTX_2_INTS_M
#    Modification time : Mon Mar 24 18:58:07 2014

@<TRIPOS>MOLECULE
1axw_MTX_2_INTS_M
   62     0    12     0     0
SMALL
NO_CHARGES


@<TRIPOS>ATOM
      1 CA         50.2810   36.4060   23.3105 C.3       4 GLC5        0.0000 
      2 CA         49.0070   35.1250   24.1700 C.3      12 GLL5        0.0000 
      3 CA         51.5550   37.6870   22.4510 C.3       8 GLP5        0.0000 
      4 CA         48.0365   33.5225   24.4880 C.3       4 GLC5        0.0000 
      5 CA         47.0660   31.9200   24.8060 C.3       8 GLP5        0.0000 
      6 O          50.8025   33.9340   24.1900 O.2       1 ALC1        0.0000 
      7 O          49.5000   34.1540   24.9480 O.2       9 ALL1        0.0000 
      8 O          52.1050   33.7140   23.4320 O.2       5 ALP1        0.0000 
      9 O          48.4135   33.4685   25.9940 O.2       1 ALC1        0.0000 
     10 O          47.3270   32.7830   27.0400 O.2       5 ALP1        0.0000 
     11 CA         46.9520   36.5090   26.3065 C.3       4 GLC5        0.0000 
     12 CA         47.3970   36.9080   24.2810 C.3      12 GLL5        0.0000 
     13 CA         46.5070   36.1100   28.3320 C.3       8 GLP5        0.0000 
     14 CA         47.7435   38.7280   25.5400 C.3       4 GLC5        0.0000 
     15 CA         48.0900   40.5480   26.7990 C.3       8 GLP5        0.0000 
     16 CA         46.4135   35.3515   24.7630 C.3       4 GLC5        0.0000 
     17 CA         45.4300   33.7950   25.2450 C.3       8 GLP5        0.0000 
     18 CA         45.9500   33.7155   19.9900 C.3       4 GLC5        0.0000 
     19 CA         46.0830   35.8530   20.3820 C.3      12 GLL5        0.0000 
     20 CA         45.8170   31.5780   19.5980 C.3       8 GLP5        0.0000 
     21 CA         43.6510   37.0115   18.9460 C.3       4 GLC5        0.0000 
     22 CA         44.6700   37.9750   20.5000 C.3      12 GLL5        0.0000 
     23 CA         42.6320   36.0480   17.3920 C.3       8 GLP5        0.0000 
     24 CA         42.5805   41.2010   21.7350 C.3       4 GLC5        0.0000 
     25 CA         43.0730   39.2910   21.8050 C.3      12 GLL5        0.0000 
     26 CA         42.0880   43.1110   21.6650 C.3       8 GLP5        0.0000 
     27 CA         43.0975   37.0875   22.1930 C.3       4 GLC5        0.0000 
     28 CA         43.1220   34.8840   22.5810 C.3       8 GLP5        0.0000 
     29 CA         47.1640   41.1580   25.0295 C.3       4 GLC5        0.0000 
     30 CA         46.2380   41.7680   23.2600 C.3      12 GLL5        0.0000 
     31 CA         44.6105   40.0270   24.6600 C.3       4 GLC5        0.0000 
     32 CA         45.2420   40.8760   22.8490 C.3      12 GLL5        0.0000 
     33 CA         43.9790   39.1780   26.4710 C.3       8 GLP5        0.0000 
     34 CA         43.3955   41.6130   23.4245 C.3       4 GLC5        0.0000 
     35 CA         41.5490   42.3500   24.0000 C.3       8 GLP5        0.0000 
     36 CA         45.8870   41.4390   20.0385 C.3       4 GLC5        0.0000 
     37 CA         45.4590   40.0630   21.7100 C.3      12 GLL5        0.0000 
     38 CA         46.3150   42.8150   18.3670 C.3       8 GLP5        0.0000 
     39 CA         46.4220   40.8205   19.3075 C.3       4 GLC5        0.0000 
     40 CA         46.7090   40.1170   21.0350 C.3      12 GLL5        0.0000 
     41 CA         46.1350   41.5240   17.5800 C.3       8 GLP5        0.0000 
     42 CA         46.0540   45.2660   23.0950 C.3       4 GLC5        0.0000 
     43 CA         48.2430   45.4760   23.5490 C.3      12 GLL5        0.0000 
     44 CA         43.8650   45.0560   22.6410 C.3       8 GLP5        0.0000 
     45 CA         49.2130   43.9465   25.9635 C.3       4 GLC5        0.0000 
     46 CA         48.6720   45.4610   25.0240 C.3      12 GLL5        0.0000 
     47 CA         49.7540   42.4320   26.9030 C.3       8 GLP5        0.0000 
     48 NZ         47.8310   46.6195   28.6215 N.4       3 LYC4        0.0000 
     49 NZ         48.7610   47.8220   27.7620 N.4      11 LYL4        0.0000 
     50 NZ         46.9010   45.4170   29.4810 N.4       7 LYP4        0.0000 
     51 NZ         48.2560   45.6045   28.5830 N.4       3 LYC4        0.0000 
     52 NZ         49.6110   45.7920   27.6850 N.4      11 LYL4        0.0000 
     53 N          48.2560   45.6045   28.5830 N.am      2 SEC2        0.0000 
     54 N          49.6110   45.7920   27.6850 N.am     10 SEL2        0.0000 
     55 N          46.9010   45.4170   29.4810 N.am      6 SEP2        0.0000 
     56 CA         45.7077   35.1608   22.9947 C.3       4 GLC5        0.0000 
     57 CA         46.9470   36.5700   23.0010 C.3      12 GLL5        0.0000 
     58 CA         44.1590   34.3060   23.3160 C.3       8 GLP5        0.0000 
     59 CA         44.1820   36.0420   21.6100 C.3       4 GLC5        0.0000 
     60 CA         45.5450   36.9970   21.1740 C.3      12 GLL5        0.0000 
     61 CA         46.9502   42.1240   20.1770 C.3       4 GLC5        0.0000 
     62 CA         47.7150   41.0060   21.4380 C.3      12 GLL5        0.0000 
@<TRIPOS>BOND
@<TRIPOS>SUBSTRUCTURE
     1 ALC1        6 GROUP        1 X    ALC  0     ROOT ALC X 1
     2 SEC2       53 GROUP        1 X    SEC  0     **** SEC X 2
     3 LYC4       48 GROUP        1 X    LYC  0     **** LYC X 4
     4 GLC5        1 GROUP        1 X    GLC  0     **** GLC X 6
     5 ALP1        8 GROUP        1 Y    ALP  0     ROOT ALP Y 8
     6 SEP2       55 GROUP        1 Y    SEP  0     **** SEP Y 9
     7 LYP4       50 GROUP        1 Y    LYP  0     **** LYP Y 11
     8 GLP5        3 GROUP        1 Y    GLP  0     **** GLP Y 13
     9 ALL1        7 GROUP        1 Z    ALL  0     ROOT ALL Z 15
    10 SEL2       54 GROUP        1 Z    SEL  0     **** SEL Z 16
    11 LYL4       49 GROUP        1 Z    LYL  0     **** LYL Z 18
    12 GLL5        2 GROUP        1 Z    GLL  0     **** GLL Z 20
@<TRIPOS>SET

