#    Name: 1axw_MTX_2_ligand
#    Modification time : Mon Mar 24 18:58:07 2014

@<TRIPOS>MOLECULE
1axw_MTX_2_ligand
   53    55     1     0     0
SMALL
NO_CHARGES


@<TRIPOS>ATOM
      1 N1         48.5620   34.7800   22.9330 N.ar      1 MTX733      0.0000 
      2 C2         49.0070   35.1250   24.1700 C.ar      1 MTX733      0.0000 
      3 NA2        49.5000   34.1540   24.9480 N.pl3     1 MTX733      0.0000 
      4 N3         48.4100   36.1780   24.8190 N.ar      1 MTX733      0.0000 
      5 C4         47.3970   36.9080   24.2810 C.ar      1 MTX733      0.0000 
      6 NA4        46.8180   37.9150   24.9540 N.pl3     1 MTX733      0.0000 
      7 C4A        46.9470   36.5700   23.0010 C.ar      1 MTX733      0.0000 
      8 N5         45.8390   37.1180   22.5000 N.ar      1 MTX733      0.0000 
      9 C6         45.5450   36.9970   21.1740 C.ar      1 MTX733      0.0000 
     10 C7         46.0830   35.8530   20.3820 C.ar      1 MTX733      0.0000 
     11 N8         47.1170   35.0790   21.1280 N.ar      1 MTX733      0.0000 
     12 C8A        47.5660   35.4610   22.3460 C.ar      1 MTX733      0.0000 
     13 C9         44.6700   37.9750   20.5000 C.3       1 MTX733      0.0000 
     14 N10        44.4680   39.2390   21.2540 N.pl3     1 MTX733      0.0000 
     15 CM         43.0730   39.2910   21.8050 C.3       1 MTX733      0.0000 
     16 C11        47.4560   41.8600   22.5360 C.ar      1 MTX733      0.0000 
     17 C12        46.2380   41.7680   23.2600 C.ar      1 MTX733      0.0000 
     18 C13        45.2420   40.8760   22.8490 C.ar      1 MTX733      0.0000 
     19 C14        45.4590   40.0630   21.7100 C.ar      1 MTX733      0.0000 
     20 C15        46.7090   40.1170   21.0350 C.ar      1 MTX733      0.0000 
     21 C16        47.7150   41.0060   21.4380 C.ar      1 MTX733      0.0000 
     22 C          48.3810   42.9470   22.8540 C.2       1 MTX733      0.0000 
     23 O          49.6060   42.8030   22.7920 O.2       1 MTX733      0.0000 
     24 N          47.7780   44.1050   23.2260 N.am      1 MTX733      0.0000 
     25 CA         48.2430   45.4760   23.5490 C.3       1 MTX733      0.0000 
     26 CT         49.3240   46.0740   22.6360 C.2       1 MTX733      0.0000 
     27 O1         50.5260   45.7720   22.8250 O.co2     1 MTX733      0.0000 
     28 O2         48.9350   46.8200   21.7100 O.co2     1 MTX733      0.0000 
     29 CB         48.6720   45.4610   25.0240 C.3       1 MTX733      0.0000 
     30 CG         48.9940   46.8240   25.6140 C.3       1 MTX733      0.0000 
     31 CD         49.1240   46.8040   27.1270 C.2       1 MTX733      0.0000 
     32 OE1        48.7610   47.8220   27.7620 O.co2     1 MTX733      0.0000 
     33 OE2        49.6110   45.7920   27.6850 O.co2     1 MTX733      0.0000 
     34 H          50.3190   33.6913   24.6085 H         1 MTX733      0.0000 
     35 H          49.0052   33.9782   25.7990 H         1 MTX733      0.0000 
     36 H          47.1805   38.0995   25.8676 H         1 MTX733      0.0000 
     37 H          46.0760   38.3907   24.4816 H         1 MTX733      0.0000 
     38 H          45.8019   35.6435   19.5107 H         1 MTX733      0.0000 
     39 H          43.6774   37.5085   20.3016 H         1 MTX733      0.0000 
     40 H          45.0883   38.2151   19.4952 H         1 MTX733      0.0000 
     41 H          46.0975   42.3595   24.0829 H         1 MTX733      0.0000 
     42 H          44.3630   40.8058   23.3608 H         1 MTX733      0.0000 
     43 H          46.8701   39.4875   20.2357 H         1 MTX733      0.0000 
     44 H          48.6049   41.0408   20.9603 H         1 MTX733      0.0000 
     45 H          46.6519   44.0496   23.3232 H         1 MTX733      0.0000 
     46 H          47.3560   46.1532   23.5118 H         1 MTX733      0.0000 
     47 H          49.5574   44.8040   25.1250 H         1 MTX733      0.0000 
     48 H          47.8658   44.9899   25.6189 H         1 MTX733      0.0000 
     49 H          48.2029   47.5345   25.3299 H         1 MTX733      0.0000 
     50 H          49.9347   47.1918   25.1766 H         1 MTX733      0.0000 
     51 H          42.8889   38.5264   22.4227 H         1 MTX733      0.0000 
     52 H          42.9088   40.1313   22.3217 H         1 MTX733      0.0000 
     53 H          42.3856   39.2539   21.0797 H         1 MTX733      0.0000 
@<TRIPOS>BOND
     1    2    1 ar   
     2   12    1 ar   
     3    3    2 1    
     4    4    2 ar   
     5   34    3 1    
     6   35    3 1    
     7    5    4 ar   
     8    6    5 1    
     9    7    5 ar   
    10   36    6 1    
    11   37    6 1    
    12    8    7 ar   
    13   12    7 ar   
    14    9    8 ar   
    15   10    9 ar   
    16   13    9 1    
    17   11   10 ar   
    18   38   10 1    
    19   12   11 ar   
    20   14   13 1    
    21   39   13 1    
    22   40   13 1    
    23   15   14 1    
    24   19   14 1    
    25   51   15 1    
    26   52   15 1    
    27   53   15 1    
    28   17   16 ar   
    29   21   16 ar   
    30   22   16 1    
    31   18   17 ar   
    32   41   17 1    
    33   19   18 ar   
    34   42   18 1    
    35   20   19 ar   
    36   21   20 ar   
    37   43   20 1    
    38   44   21 1    
    39   23   22 2    
    40   24   22 am   
    41   25   24 1    
    42   45   24 1    
    43   26   25 1    
    44   29   25 1    
    45   46   25 1    
    46   27   26 ar   
    47   28   26 ar   
    48   30   29 1    
    49   47   29 1    
    50   48   29 1    
    51   31   30 1    
    52   49   30 1    
    53   50   30 1    
    54   32   31 ar   
    55   33   31 ar   
@<TRIPOS>SUBSTRUCTURE
     1 MTX733      1 GROUP   
@<TRIPOS>SET

