#    Name: 1nhk_CMP_1_INTS_M
#    Modification time : Mon Mar 24 18:15:14 2014

@<TRIPOS>MOLECULE
1nhk_CMP_1_INTS_M
   44     0    12     0     0
SMALL
NO_CHARGES


@<TRIPOS>ATOM
      1 NZ         29.4395   52.8415   13.0640 N.4       3 LYC4        0.0000 
      2 NZ         30.8420   53.0240   12.6920 N.4      11 LYL4        0.0000 
      3 NZ         28.0370   52.6590   13.4360 N.4       7 LYP4        0.0000 
      4 N          29.4395   52.8415   13.0640 N.am      2 SEC2        0.0000 
      5 N          30.8420   53.0240   12.6920 N.am     10 SEL2        0.0000 
      6 N          28.0370   52.6590   13.4360 N.am      6 SEP2        0.0000 
      7 N          31.1375   51.6055   12.5355 N.am      2 SEC2        0.0000 
      8 N          31.4330   50.1870   12.3790 N.am      6 SEP2        0.0000 
      9 N          31.7075   53.0075   11.2150 N.am      2 SEC2        0.0000 
     10 N          32.5730   52.9910    9.7380 N.am      6 SEP2        0.0000 
     11 N          32.0140   54.1225   10.6900 N.am      2 SEC2        0.0000 
     12 N          31.4550   55.2540   11.6420 N.am     10 SEL2        0.0000 
     13 CA         33.1025   52.4760   14.1450 C.3       4 GLC5        0.0000 
     14 CA         32.6020   54.1060   15.1480 C.3      12 GLL5        0.0000 
     15 CA         33.6030   50.8460   13.1420 C.3       8 GLP5        0.0000 
     16 CA         34.4125   53.7415   15.4670 C.3       4 GLC5        0.0000 
     17 CA         36.2230   53.3770   15.7860 C.3       8 GLP5        0.0000 
     18 CA         32.7600   52.5640   16.1370 C.3       4 GLC5        0.0000 
     19 CA         32.9180   51.0220   17.1260 C.3       8 GLP5        0.0000 
     20 CA         30.8740   52.4320   16.1240 C.3       4 GLC5        0.0000 
     21 CA         31.2230   54.2500   15.7530 C.3      12 GLL5        0.0000 
     22 CA         30.5250   50.6140   16.4950 C.3       8 GLP5        0.0000 
     23 N          29.1110   53.9860   13.6405 N.am      2 SEC2        0.0000 
     24 N          30.1850   55.3130   13.8450 N.am     10 SEL2        0.0000 
     25 CA         28.1990   57.2255   17.1805 C.3       4 GLC5        0.0000 
     26 CA         29.3500   55.6330   16.2110 C.3      12 GLL5        0.0000 
     27 CA         27.0480   58.8180   18.1500 C.3       8 GLP5        0.0000 
     28 O          27.2310   55.3490   16.4615 O.2       1 ALC1        0.0000 
     29 O          28.3130   54.7430   15.8350 O.2       9 ALL1        0.0000 
     30 O          26.1490   55.9550   17.0880 O.2       5 ALP1        0.0000 
     31 CA         31.4470   54.4980   18.9080 C.3       4 GLC5        0.0000 
     32 CA         29.9570   55.0290   17.4870 C.3      12 GLL5        0.0000 
     33 CA         32.9370   53.9670   20.3290 C.3       8 GLP5        0.0000 
     34 CA         30.5870   58.9545   16.2935 C.3       4 GLC5        0.0000 
     35 CA         32.0930   58.8010   17.9190 C.3      12 GLL5        0.0000 
     36 CA         29.0810   59.1080   14.6680 C.3       8 GLP5        0.0000 
     37 CA         29.9790   59.3585   18.3495 C.3       4 GLC5        0.0000 
     38 CA         27.8650   59.9160   18.7800 C.3       8 GLP5        0.0000 
     39 CA         32.8428   54.3280   17.3917 C.3       4 GLC5        0.0000 
     40 CA         33.7730   54.4780   19.3330 C.3       8 GLP5        0.0000 
     41 CA         29.5090   57.3365   15.1962 C.3       4 GLC5        0.0000 
     42 CA         30.5240   55.4970   15.2380 C.3      12 GLL5        0.0000 
     43 CA         29.3537   58.8386   19.0102 C.3       4 GLC5        0.0000 
     44 CA         30.6170   57.7270   19.8060 C.3      12 GLL5        0.0000 
@<TRIPOS>BOND
@<TRIPOS>SUBSTRUCTURE
     1 ALC1       28 GROUP        1 X    ALC  0     ROOT ALC X 1
     2 SEC2        4 GROUP        1 X    SEC  0     **** SEC X 2
     3 LYC4        1 GROUP        1 X    LYC  0     **** LYC X 4
     4 GLC5       13 GROUP        1 X    GLC  0     **** GLC X 6
     5 ALP1       30 GROUP        1 Y    ALP  0     ROOT ALP Y 8
     6 SEP2        6 GROUP        1 Y    SEP  0     **** SEP Y 9
     7 LYP4        3 GROUP        1 Y    LYP  0     **** LYP Y 11
     8 GLP5       15 GROUP        1 Y    GLP  0     **** GLP Y 13
     9 ALL1       29 GROUP        1 Z    ALL  0     ROOT ALL Z 15
    10 SEL2        5 GROUP        1 Z    SEL  0     **** SEL Z 16
    11 LYL4        2 GROUP        1 Z    LYL  0     **** LYL Z 18
    12 GLL5       14 GROUP        1 Z    GLL  0     **** GLL Z 20
@<TRIPOS>SET

