#    Name: 1nhk_CMP_1_ligand
#    Modification time : Mon Mar 24 18:15:14 2014

@<TRIPOS>MOLECULE
1nhk_CMP_1_ligand
   33    36     1     0     0
SMALL
NO_CHARGES


@<TRIPOS>ATOM
      1 P          31.2030   54.4540   12.8640 P.3       1 CMP146      0.0000 
      2 O1P        30.8420   53.0240   12.6920 O.co2     1 CMP146      0.0000 
      3 O2P        31.4550   55.2540   11.6420 O.co2     1 CMP146      0.0000 
      4 O5'        32.6010   54.4040   13.7390 O.3       1 CMP146      0.0000 
      5 C5'        32.6020   54.1060   15.1480 C.3       1 CMP146      0.0000 
      6 C4'        31.2230   54.2500   15.7530 C.3       1 CMP146      0.0000 
      7 O4'        31.2020   54.3960   17.1550 O.3       1 CMP146      0.0000 
      8 C3'        30.5240   55.4970   15.2380 C.3       1 CMP146      0.0000 
      9 O3'        30.1850   55.3130   13.8450 O.3       1 CMP146      0.0000 
     10 C2'        29.3500   55.6330   16.2110 C.3       1 CMP146      0.0000 
     11 O2'        28.3130   54.7430   15.8350 O.3       1 CMP146      0.0000 
     12 C1'        29.9570   55.0290   17.4870 C.3       1 CMP146      0.0000 
     13 N9         30.1090   55.9760   18.6080 N.pl3     1 CMP146      0.0000 
     14 C8         29.5260   55.9200   19.8420 C.2       1 CMP146      0.0000 
     15 N7         29.8010   56.9360   20.5970 N.2       1 CMP146      0.0000 
     16 C5         30.6170   57.7270   19.8060 C.ar      1 CMP146      0.0000 
     17 C6         31.1510   59.0060   19.9880 C.ar      1 CMP146      0.0000 
     18 N6         30.7850   59.7800   20.9900 N.pl3     1 CMP146      0.0000 
     19 N1         31.9560   59.5020   19.0390 N.ar      1 CMP146      0.0000 
     20 C2         32.0930   58.8010   17.9190 C.ar      1 CMP146      0.0000 
     21 N3         31.5350   57.6480   17.5640 N.ar      1 CMP146      0.0000 
     22 C4         30.8010   57.1560   18.5840 C.ar      1 CMP146      0.0000 
     23 H          33.2881   54.7776   15.6942 H         1 CMP146      0.0000 
     24 H          32.9525   53.0752   15.3344 H         1 CMP146      0.0000 
     25 H          30.6065   53.4050   15.4461 H         1 CMP146      0.0000 
     26 H          31.1936   56.3174   15.4050 H         1 CMP146      0.0000 
     27 H          29.1046   56.5953   16.3647 H         1 CMP146      0.0000 
     28 H          29.2432   54.2258   17.8068 H         1 CMP146      0.0000 
     29 H          28.9410   55.1427   20.1059 H         1 CMP146      0.0000 
     30 H          31.1791   60.6990   21.0028 H         1 CMP146      0.0000 
     31 H          30.1465   59.3778   21.6462 H         1 CMP146      0.0000 
     32 H          32.7802   59.2472   17.1616 H         1 CMP146      0.0000 
     33 H          27.4801   55.1377   16.2228 H         1 CMP146      0.0000 
@<TRIPOS>BOND
     1    2    1 ar   
     2    3    1 ar   
     3    4    1 1    
     4    9    1 1    
     5    5    4 1    
     6    6    5 1    
     7   23    5 1    
     8   24    5 1    
     9    7    6 1    
    10    8    6 1    
    11   25    6 1    
    12   12    7 1    
    13    9    8 1    
    14   10    8 1    
    15   26    8 1    
    16   11   10 1    
    17   12   10 1    
    18   27   10 1    
    19   33   11 1    
    20   13   12 1    
    21   28   12 1    
    22   14   13 1    
    23   22   13 1    
    24   15   14 2    
    25   29   14 1    
    26   16   15 1    
    27   17   16 ar   
    28   22   16 ar   
    29   18   17 1    
    30   19   17 ar   
    31   30   18 1    
    32   31   18 1    
    33   20   19 ar   
    34   21   20 ar   
    35   32   20 1    
    36   22   21 ar   
@<TRIPOS>SUBSTRUCTURE
     1 CMP146      1 GROUP   
@<TRIPOS>SET

