#    Name: 3ik7_BOB_1_INTS_M
#    Modification time : Tue Mar 25 16:40:11 2014

@<TRIPOS>MOLECULE
3ik7_BOB_1_INTS_M
   78     0    15     0     0
SMALL
NO_CHARGES


@<TRIPOS>ATOM
      1 OD1         2.1760   10.8475   20.9885 O.co2     3 ASC3        0.0000 
      2 OD1         3.4500   12.1700   21.3520 O.co2    13 ASL3        0.0000 
      3 OD1         0.9020    9.5250   20.6250 O.co2     8 ASP3        0.0000 
      4 OD1         3.1445   10.6385   21.4120 O.co2     3 ASC3        0.0000 
      5 OD1         2.8390    9.1070   21.4720 O.co2     8 ASP3        0.0000 
      6 O           3.1445   10.6385   21.4120 O.2       1 ALC1        0.0000 
      7 O           3.4500   12.1700   21.3520 O.2      11 ALL1        0.0000 
      8 O           2.8390    9.1070   21.4720 O.2       6 ALP1        0.0000 
      9 O           9.4025   13.1510   19.9965 O.2       1 ALC1        0.0000 
     10 O           8.9420   12.6730   18.8170 O.2      11 ALL1        0.0000 
     11 O           9.8630   13.6290   21.1760 O.2       6 ALP1        0.0000 
     12 N          11.6030   11.7435   20.4135 N.am      2 SEC2        0.0000 
     13 N          11.4490   11.6060   18.8850 N.am     12 SEL2        0.0000 
     14 N          11.7570   11.8810   21.9420 N.am      7 SEP2        0.0000 
     15 N           4.6025   14.7910   23.9190 N.am      2 SEC2        0.0000 
     16 N           4.3050   14.5720   22.2150 N.am     12 SEL2        0.0000 
     17 N           4.9000   15.0100   25.6230 N.am      7 SEP2        0.0000 
     18 N           4.9145   15.7160   22.9045 N.am      2 SEC2        0.0000 
     19 N           5.5240   16.8600   23.5940 N.am      7 SEP2        0.0000 
     20 N           5.4805   14.3780   24.3950 N.am      2 SEC2        0.0000 
     21 N           6.0610   13.7460   23.1670 N.am     12 SEL2        0.0000 
     22 N           5.7925   15.3030   23.3805 N.am      2 SEC2        0.0000 
     23 NZ         10.8705    6.3940   17.0135 N.4       4 LYC4        0.0000 
     24 NZ         11.0590    7.6440   16.2020 N.4      14 LYL4        0.0000 
     25 NZ          9.4830    5.0240   18.3680 N.4       9 LYP4        0.0000 
     26 N          10.8705    6.3940   17.0135 N.am      2 SEC2        0.0000 
     27 N          11.0590    7.6440   16.2020 N.am     12 SEL2        0.0000 
     28 N          10.6820    5.1440   17.8250 N.am      7 SEP2        0.0000 
     29 CA         11.9645   13.3090   12.4850 C.3       5 GLC5        0.0000 
     30 CA         10.2680   14.2990   11.6510 C.3      15 GLL5        0.0000 
     31 CA         13.6610   12.3190   13.3190 C.3      10 GLP5        0.0000 
     32 CA         10.0940   16.7960    9.6110 C.3       5 GLC5        0.0000 
     33 CA         10.1120   14.6520   10.1770 C.3      15 GLL5        0.0000 
     34 CA         10.0760   18.9400    9.0450 C.3      10 GLP5        0.0000 
     35 CA         10.9800   15.1755    8.2505 C.3       5 GLC5        0.0000 
     36 CA         11.8480   15.6990    6.3240 C.3      10 GLP5        0.0000 
     37 CA          6.7135   15.9060   10.4250 C.3       5 GLC5        0.0000 
     38 CA          8.7870   15.3440    9.9420 C.3      15 GLL5        0.0000 
     39 CA          4.6400   16.4680   10.9080 C.3      10 GLP5        0.0000 
     40 CA          8.7465   17.1275    9.5990 C.3       5 GLC5        0.0000 
     41 CA          8.7060   18.9110    9.2560 C.3      10 GLP5        0.0000 
     42 CA          9.2040   20.2760   16.5400 C.3       5 GLC5        0.0000 
     43 CA          9.4120   18.7640   15.3680 C.3      15 GLL5        0.0000 
     44 CA          8.9960   21.7880   17.7120 C.3      10 GLP5        0.0000 
     45 CA          7.2530   19.3725   15.5405 C.3       5 GLC5        0.0000 
     46 CA          5.0940   19.9810   15.7130 C.3      10 GLP5        0.0000 
     47 CA          9.2390   19.1695   13.4430 C.3       5 GLC5        0.0000 
     48 CA          9.0660   19.5750   11.5180 C.3      10 GLP5        0.0000 
     49 N           6.4435   15.5715   16.5180 N.am      2 SEC2        0.0000 
     50 N           7.2130   14.9300   15.1360 N.am     12 SEL2        0.0000 
     51 N           5.6740   16.2130   17.9000 N.am      7 SEP2        0.0000 
     52 N           5.7085   15.4870   15.6430 N.am      2 SEC2        0.0000 
     53 N           4.2040   16.0440   16.1500 N.am      7 SEP2        0.0000 
     54 CA         10.7090    9.0410   18.8180 C.3       5 GLC5        0.0000 
     55 CA         11.9920    9.4890   17.3820 C.3      15 GLL5        0.0000 
     56 CA          9.4260    8.5930   20.2540 C.3      10 GLP5        0.0000 
     57 CA         12.8165   10.8400   16.6030 C.3       5 GLC5        0.0000 
     58 CA         13.6410   12.1910   15.8240 C.3      10 GLP5        0.0000 
     59 CA          8.4405   11.0545   20.8170 C.3       5 GLC5        0.0000 
     60 CA          7.0260   12.5490   20.3230 C.3      15 GLL5        0.0000 
     61 CA          9.8550    9.5600   21.3110 C.3      10 GLP5        0.0000 
     62 CA          7.9310   14.1340   21.4280 C.3       5 GLC5        0.0000 
     63 CA          8.8360   15.7190   22.5330 C.3      10 GLP5        0.0000 
     64 CA         10.3560   16.6125   18.8915 C.3       5 GLC5        0.0000 
     65 CA          9.3070   15.3940   17.4040 C.3      15 GLL5        0.0000 
     66 CA         11.4050   17.8310   20.3790 C.3      10 GLP5        0.0000 
     67 CA          7.5830   16.2275   17.9778 C.3       5 GLC5        0.0000 
     68 CA          6.0690   16.5460   19.2530 C.3      10 GLP5        0.0000 
     69 CA         11.4726   15.9784   11.3153 C.3       5 GLC5        0.0000 
     70 CA          9.3370   15.1680   12.4930 C.3      15 GLL5        0.0000 
     71 CA         12.9880   17.2640   11.5060 C.3      10 GLP5        0.0000 
     72 CA         10.4298   18.4775   17.5123 C.3       5 GLC5        0.0000 
     73 CA         10.0250   17.3940   15.6430 C.3      15 GLL5        0.0000 
     74 CA         11.1410   18.8760   19.5190 C.3      10 GLP5        0.0000 
     75 CA         11.8725   13.0120   17.2362 C.3       5 GLC5        0.0000 
     76 CA         10.3150   13.9350   17.2140 C.3      15 GLL5        0.0000 
     77 CA         13.7570   12.7670   17.0900 C.3      10 GLP5        0.0000 
     78 CA          6.1682   14.5465   19.7623 C.3       5 GLC5        0.0000 
@<TRIPOS>BOND
@<TRIPOS>SUBSTRUCTURE
     1 ALC1        6 GROUP        1 X    ALC  0     ROOT ALC X 1
     2 SEC2       12 GROUP        1 X    SEC  0     **** SEC X 2
     3 ASC3        1 GROUP        1 X    ASC  0     **** ASC X 3
     4 LYC4       23 GROUP        1 X    LYC  0     **** LYC X 4
     5 GLC5       29 GROUP        1 X    GLC  0     **** GLC X 6
     6 ALP1        8 GROUP        1 Y    ALP  0     ROOT ALP Y 8
     7 SEP2       14 GROUP        1 Y    SEP  0     **** SEP Y 9
     8 ASP3        3 GROUP        1 Y    ASP  0     **** ASP Y 10
     9 LYP4       25 GROUP        1 Y    LYP  0     **** LYP Y 11
    10 GLP5       31 GROUP        1 Y    GLP  0     **** GLP Y 13
    11 ALL1        7 GROUP        1 Z    ALL  0     ROOT ALL Z 15
    12 SEL2       13 GROUP        1 Z    SEL  0     **** SEL Z 16
    13 ASL3        2 GROUP        1 Z    ASL  0     **** ASL Z 17
    14 LYL4       24 GROUP        1 Z    LYL  0     **** LYL Z 18
    15 GLL5       30 GROUP        1 Z    GLL  0     **** GLL Z 20
@<TRIPOS>SET

