#    Name: 3ik7_BOB_1_ligand
#    Modification time : Tue Mar 25 16:40:11 2014

@<TRIPOS>MOLECULE
3ik7_BOB_1_ligand
   65    64     1     0     0
SMALL
NO_CHARGES


@<TRIPOS>ATOM
      1 C1          5.0910   13.6450   22.3880 C.2       1 BOB501      0.0000 
      2 N1          3.4500   12.1700   21.3520 N.4       1 BOB501      0.0000 
      3 C2         10.7030   11.5070   17.7970 C.2       1 BOB501      0.0000 
      4 N2          8.9420   12.6730   18.8170 N.am      1 BOB501      0.0000 
      5 O2         11.4490   11.6060   18.8850 O.2       1 BOB501      0.0000 
      6 C3         12.1050    8.2830   16.4740 C.2       1 BOB501      0.0000 
      7 N3         10.9410   10.4520   17.0150 N.am      1 BOB501      0.0000 
      8 O11         4.3050   14.5720   22.2150 O.co2     1 BOB501      0.0000 
      9 O12         6.0610   13.7460   23.1670 O.co2     1 BOB501      0.0000 
     10 O31        13.2560    7.9500   16.0690 O.co2     1 BOB501      0.0000 
     11 O32        11.0590    7.6440   16.2020 O.co2     1 BOB501      0.0000 
     12 C40         8.8870   16.4240   16.0010 C.3       1 BOB501      0.0000 
     13 C42         8.3660   15.6940   14.7450 C.3       1 BOB501      0.0000 
     14 C43         9.3770   14.8280   13.9830 C.3       1 BOB501      0.0000 
     15 C44         9.3370   15.1680   12.4930 C.3       1 BOB501      0.0000 
     16 C45        10.2680   14.2990   11.6510 C.3       1 BOB501      0.0000 
     17 C46        10.1120   14.6520   10.1770 C.3       1 BOB501      0.0000 
     18 C47         8.7870   15.3440    9.9420 C.3       1 BOB501      0.0000 
     19 C54        10.0250   17.3940   15.6430 C.3       1 BOB501      0.0000 
     20 C55         9.4120   18.7640   15.3680 C.3       1 BOB501      0.0000 
     21 O56        10.3700   19.6510   14.7950 O.3       1 BOB501      0.0000 
     22 O60         7.2130   14.9300   15.1360 O.3       1 BOB501      0.0000 
     23 CA1         4.8650   12.3960   21.5820 C.3       1 BOB501      0.0000 
     24 CA2         9.6610   12.5790   17.5510 C.3       1 BOB501      0.0000 
     25 CA3        11.9920    9.4890   17.3820 C.3       1 BOB501      0.0000 
     26 CB1         5.5090   12.5450   20.2200 C.3       1 BOB501      0.0000 
     27 CB2        10.3150   13.9350   17.2140 C.3       1 BOB501      0.0000 
     28 CD1         7.6320   12.4710   18.9380 C.2       1 BOB501      0.0000 
     29 OE1         6.8910   12.2230   17.8710 O.2       1 BOB501      0.0000 
     30 CG1         7.0260   12.5490   20.3230 C.3       1 BOB501      0.0000 
     31 SG2         9.3070   15.3940   17.4040 S.3       1 BOB501      0.0000 
     32 H           9.5391   12.9169   19.6509 H         1 BOB501      0.0000 
     33 H          10.4273   10.2586   16.1492 H         1 BOB501      0.0000 
     34 H           8.0492   17.0438   16.4178 H         1 BOB501      0.0000 
     35 H           8.0207   16.4937   14.0451 H         1 BOB501      0.0000 
     36 H           9.1265   13.7821   14.1209 H         1 BOB501      0.0000 
     37 H          10.3722   15.0176   14.3694 H         1 BOB501      0.0000 
     38 H           9.6138   16.2235   12.3600 H         1 BOB501      0.0000 
     39 H           8.3072   15.0494   12.1271 H         1 BOB501      0.0000 
     40 H          10.0167   13.2541   11.8007 H         1 BOB501      0.0000 
     41 H          11.2946   14.4716   11.9570 H         1 BOB501      0.0000 
     42 H          10.1582   13.7405    9.5841 H         1 BOB501      0.0000 
     43 H          10.9257   15.3103    9.8788 H         1 BOB501      0.0000 
     44 H          10.5300   17.0385   14.7611 H         1 BOB501      0.0000 
     45 H          10.7077   17.4616   16.4727 H         1 BOB501      0.0000 
     46 H           9.0193   19.1516   16.3225 H         1 BOB501      0.0000 
     47 H           8.5467   18.6147   14.7013 H         1 BOB501      0.0000 
     48 H           5.3089   11.5580   22.0756 H         1 BOB501      0.0000 
     49 H           9.0194   12.2774   16.7722 H         1 BOB501      0.0000 
     50 H          12.9826   10.0009   17.4055 H         1 BOB501      0.0000 
     51 H          11.8256    9.1261   18.4234 H         1 BOB501      0.0000 
     52 H           5.1780   13.4807   19.7617 H         1 BOB501      0.0000 
     53 H           5.1952   11.7184   19.5770 H         1 BOB501      0.0000 
     54 H          10.6355   13.9920   16.1706 H         1 BOB501      0.0000 
     55 H          11.1777   14.1479   17.8504 H         1 BOB501      0.0000 
     56 H           7.3487   11.6940   20.9105 H         1 BOB501      0.0000 
     57 H           7.3507   13.4633   20.8118 H         1 BOB501      0.0000 
     58 H           3.2370   11.1959   21.2760 H         1 BOB501      0.0000 
     59 H           2.8899   12.5353   22.0955 H         1 BOB501      0.0000 
     60 H           3.1368   12.6052   20.5080 H         1 BOB501      0.0000 
     61 H           8.7113   16.1902   10.4694 H         1 BOB501      0.0000 
     62 H           8.6597   15.5858    8.9800 H         1 BOB501      0.0000 
     63 H           8.0144   14.7655   10.2035 H         1 BOB501      0.0000 
     64 H          11.2192   19.4700   15.2911 H         1 BOB501      0.0000 
     65 H           7.5300   14.3484   15.8852 H         1 BOB501      0.0000 
@<TRIPOS>BOND
     1    8    1 ar   
     2    9    1 ar   
     3   23    1 1    
     4   23    2 1    
     5   58    2 1    
     6   59    2 1    
     7   60    2 1    
     8    5    3 2    
     9    7    3 am   
    10   24    3 1    
    11   24    4 1    
    12   28    4 am   
    13   32    4 1    
    14   10    6 ar   
    15   11    6 ar   
    16   25    6 1    
    17   25    7 1    
    18   33    7 1    
    19   13   12 1    
    20   19   12 1    
    21   31   12 1    
    22   34   12 1    
    23   14   13 1    
    24   22   13 1    
    25   35   13 1    
    26   15   14 1    
    27   36   14 1    
    28   37   14 1    
    29   16   15 1    
    30   38   15 1    
    31   39   15 1    
    32   17   16 1    
    33   40   16 1    
    34   41   16 1    
    35   18   17 1    
    36   42   17 1    
    37   43   17 1    
    38   61   18 1    
    39   62   18 1    
    40   63   18 1    
    41   20   19 1    
    42   44   19 1    
    43   45   19 1    
    44   21   20 1    
    45   46   20 1    
    46   47   20 1    
    47   64   21 1    
    48   65   22 1    
    49   26   23 1    
    50   48   23 1    
    51   27   24 1    
    52   49   24 1    
    53   50   25 1    
    54   51   25 1    
    55   30   26 1    
    56   52   26 1    
    57   53   26 1    
    58   31   27 1    
    59   54   27 1    
    60   55   27 1    
    61   29   28 2    
    62   30   28 1    
    63   56   30 1    
    64   57   30 1    
@<TRIPOS>SUBSTRUCTURE
     1 BOB501      1 GROUP   
@<TRIPOS>SET

