#    Name: 2fze_APR_2_INTS_M
#    Modification time : Tue Mar 25 13:16:40 2014

@<TRIPOS>MOLECULE
2fze_APR_2_INTS_M
   71     0    12     0     0
SMALL
NO_CHARGES


@<TRIPOS>ATOM
      1 CA         41.0735   37.7460   25.5920 C.3       4 GLC5        0.0000 
      2 CA         40.3830   36.4820   27.2560 C.3      12 GLL5        0.0000 
      3 CA         41.7640   39.0100   23.9280 C.3       8 GLP5        0.0000 
      4 CA         40.3530   38.2165   27.6495 C.3       4 GLC5        0.0000 
      5 CA         40.3230   39.9510   28.0430 C.3       8 GLP5        0.0000 
      6 CA         38.3245   36.7185   27.1555 C.3       4 GLC5        0.0000 
      7 CA         36.2660   36.9550   27.0550 C.3       8 GLP5        0.0000 
      8 CA         39.4180   37.2185   25.4550 C.3       4 GLC5        0.0000 
      9 CA         38.4530   37.9550   23.6540 C.3       8 GLP5        0.0000 
     10 CA         41.6690   35.3125   27.7400 C.3       4 GLC5        0.0000 
     11 CA         42.9550   34.1430   28.2240 C.3       8 GLP5        0.0000 
     12 CA         38.2860   36.3160   29.4910 C.3       4 GLC5        0.0000 
     13 CA         40.0560   35.6270   29.4210 C.3      12 GLL5        0.0000 
     14 CA         36.5160   37.0050   29.5610 C.3       8 GLP5        0.0000 
     15 CA         37.6320   35.1020   29.3585 C.3       4 GLC5        0.0000 
     16 CA         39.3730   34.5610   28.9430 C.3      12 GLL5        0.0000 
     17 CA         35.8910   35.6430   29.7740 C.3       8 GLP5        0.0000 
     18 CA         37.7165   35.6860   27.3205 C.3       4 GLC5        0.0000 
     19 CA         39.1670   34.4170   27.5860 C.3      12 GLL5        0.0000 
     20 CA         40.1360   32.9965   26.4640 C.3       4 GLC5        0.0000 
     21 CA         41.1050   31.5760   25.3420 C.3       8 GLP5        0.0000 
     22 CA         42.6155   37.0065   30.7820 C.3       4 GLC5        0.0000 
     23 CA         40.8260   36.4980   31.6510 C.3      12 GLL5        0.0000 
     24 CA         44.4050   37.5150   29.9130 C.3       8 GLP5        0.0000 
     25 CA         42.2515   35.2265   30.6010 C.3       4 GLC5        0.0000 
     26 CA         43.6770   33.9550   29.5510 C.3       8 GLP5        0.0000 
     27 O          39.2135   38.5435   31.8545 O.2       1 ALC1        0.0000 
     28 O          39.0540   37.6000   32.8930 O.2       9 ALL1        0.0000 
     29 O          39.3730   39.4870   30.8160 O.2       5 ALP1        0.0000 
     30 O          41.3985   39.1535   32.5385 O.2       1 ALC1        0.0000 
     31 O          41.3010   38.6440   33.7390 O.2       9 ALL1        0.0000 
     32 O          41.4960   39.6630   31.3380 O.2       5 ALP1        0.0000 
     33 CA         43.4330   37.0430   31.5670 C.3       4 GLC5        0.0000 
     34 CA         42.4610   36.5710   33.2210 C.3      12 GLL5        0.0000 
     35 NZ         47.5995   36.1855   39.3775 N.4       3 LYC4        0.0000 
     36 NZ         47.1410   35.3960   38.2300 N.4      11 LYL4        0.0000 
     37 NZ         49.0520   36.4420   41.2290 N.4       7 LYP4        0.0000 
     38 N          47.5995   36.1855   39.3775 N.am      2 SEC2        0.0000 
     39 N          47.1410   35.3960   38.2300 N.am     10 SEL2        0.0000 
     40 N          48.0580   36.9750   40.5250 N.am      6 SEP2        0.0000 
     41 N          48.2140   37.2360   35.9365 N.am      2 SEC2        0.0000 
     42 N          46.9760   36.4270   36.0270 N.am     10 SEL2        0.0000 
     43 N          49.4520   38.0450   35.8460 N.am      6 SEP2        0.0000 
     44 CA         48.4640   34.2500   35.4695 C.3       4 GLC5        0.0000 
     45 CA         46.7110   33.3210   35.0380 C.3      12 GLL5        0.0000 
     46 CA         50.2170   35.1790   35.9010 C.3       8 GLP5        0.0000 
     47 O          50.9425   30.2710   33.7635 O.2       1 ALC1        0.0000 
     48 O          50.3950   30.3910   35.0770 O.2       9 ALL1        0.0000 
     49 O          51.4900   30.1510   32.4500 O.2       5 ALP1        0.0000 
     50 CA         48.9315   30.4080   33.4655 C.3       4 GLC5        0.0000 
     51 CA         49.0200   30.8360   35.1480 C.3      12 GLL5        0.0000 
     52 CA         48.8430   29.9800   31.7830 C.3       8 GLP5        0.0000 
     53 CA         49.7015   28.7985   35.0330 C.3       4 GLC5        0.0000 
     54 CA         50.3830   26.7610   34.9180 C.3       8 GLP5        0.0000 
     55 N          48.8760   28.8240   38.5775 N.am      2 SEC2        0.0000 
     56 N          48.3780   29.6690   37.1660 N.am     10 SEL2        0.0000 
     57 N          49.3740   27.9790   39.9890 N.am      6 SEP2        0.0000 
     58 CA         46.7245   30.9310   37.9455 C.3       4 GLC5        0.0000 
     59 CA         48.2170   30.8970   36.4480 C.3      12 GLL5        0.0000 
     60 CA         45.2320   30.9650   39.4430 C.3       8 GLP5        0.0000 
     61 N          47.6475   28.7580   34.0030 N.am      2 SEC2        0.0000 
     62 N          46.8060   29.5890   34.9730 N.am     10 SEL2        0.0000 
     63 N          48.4890   27.9270   33.0330 N.am      6 SEP2        0.0000 
     64 CA         45.7735   30.3405   37.1585 C.3       4 GLC5        0.0000 
     65 CA         46.9090   30.8570   35.6370 C.3      12 GLL5        0.0000 
     66 CA         44.6380   29.8240   38.6800 C.3       8 GLP5        0.0000 
     67 CA         41.1979   34.4493   28.3040 C.3       4 GLC5        0.0000 
     68 CA         45.8747   32.4815   32.9622 C.3       4 GLC5        0.0000 
     69 CA         44.7780   32.3260   31.1090 C.3       8 GLP5        0.0000 
     70 CA         47.9567   30.6925   33.4490 C.3       4 GLC5        0.0000 
     71 CA         47.2320   31.9530   34.5930 C.3      12 GLL5        0.0000 
@<TRIPOS>BOND
@<TRIPOS>SUBSTRUCTURE
     1 ALC1       27 GROUP        1 X    ALC  0     ROOT ALC X 1
     2 SEC2       38 GROUP        1 X    SEC  0     **** SEC X 2
     3 LYC4       35 GROUP        1 X    LYC  0     **** LYC X 4
     4 GLC5        1 GROUP        1 X    GLC  0     **** GLC X 6
     5 ALP1       29 GROUP        1 Y    ALP  0     ROOT ALP Y 8
     6 SEP2       40 GROUP        1 Y    SEP  0     **** SEP Y 9
     7 LYP4       37 GROUP        1 Y    LYP  0     **** LYP Y 11
     8 GLP5        3 GROUP        1 Y    GLP  0     **** GLP Y 13
     9 ALL1       28 GROUP        1 Z    ALL  0     ROOT ALL Z 15
    10 SEL2       39 GROUP        1 Z    SEL  0     **** SEL Z 16
    11 LYL4       36 GROUP        1 Z    LYL  0     **** LYL Z 18
    12 GLL5        2 GROUP        1 Z    GLL  0     **** GLL Z 20
@<TRIPOS>SET

