#    Name: 2fze_APR_2_ligand
#    Modification time : Tue Mar 25 13:16:40 2014

@<TRIPOS>MOLECULE
2fze_APR_2_ligand
   57    60     1     0     0
SMALL
NO_CHARGES


@<TRIPOS>ATOM
      1 N1         39.6810   35.3920   26.7460 N.ar      1 APR2377     0.0000 
      2 C2         40.3830   36.4820   27.2560 C.ar      1 APR2377     0.0000 
      3 N3         40.5870   36.6240   28.6290 N.ar      1 APR2377     0.0000 
      4 C4         40.0560   35.6270   29.4210 C.ar      1 APR2377     0.0000 
      5 C5         39.3730   34.5610   28.9430 C.ar      1 APR2377     0.0000 
      6 C6         39.1670   34.4170   27.5860 C.ar      1 APR2377     0.0000 
      7 N6         38.4700   33.3850   27.0750 N.pl3     1 APR2377     0.0000 
      8 N7         39.0030   33.7240   29.9720 N.2       1 APR2377     0.0000 
      9 C8         39.5080   34.3600   31.1080 C.2       1 APR2377     0.0000 
     10 N9         40.1620   35.5420   30.7850 N.pl3     1 APR2377     0.0000 
     11 C1'        40.8260   36.4980   31.6510 C.3       1 APR2377     0.0000 
     12 C2'        40.1200   36.6470   33.0090 C.3       1 APR2377     0.0000 
     13 O2'        39.0540   37.6000   32.8930 O.3       1 APR2377     0.0000 
     14 C3'        41.2340   37.2220   33.9050 C.3       1 APR2377     0.0000 
     15 O3'        41.3010   38.6440   33.7390 O.3       1 APR2377     0.0000 
     16 O4'        42.0420   35.8900   32.0470 O.3       1 APR2377     0.0000 
     17 C4'        42.4610   36.5710   33.2210 C.3       1 APR2377     0.0000 
     18 C5'        43.1290   35.5610   34.1490 C.3       1 APR2377     0.0000 
     19 O5'        43.7930   36.3370   35.1840 O.3       1 APR2377     0.0000 
     20 PA         43.7990   35.7720   36.6550 P.3       1 APR2377     0.0000 
     21 O1A        42.6420   34.8930   36.9310 O.co2     1 APR2377     0.0000 
     22 O2A        43.8150   36.9040   37.6040 O.co2     1 APR2377     0.0000 
     23 O3A        45.0980   34.8150   36.7680 O.3       1 APR2377     0.0000 
     24 PB         46.6720   35.2280   36.8340 P.3       1 APR2377     0.0000 
     25 O1B        47.1410   35.3960   38.2300 O.co2     1 APR2377     0.0000 
     26 O2B        46.9760   36.4270   36.0270 O.co2     1 APR2377     0.0000 
     27 O5D        47.3370   33.9200   36.2060 O.3       1 APR2377     0.0000 
     28 C5D        46.7110   33.3210   35.0380 C.3       1 APR2377     0.0000 
     29 O4D        48.6500   32.0180   34.4810 O.3       1 APR2377     0.0000 
     30 O1D        50.3950   30.3910   35.0770 O.3       1 APR2377     0.0000 
     31 C1D        49.0200   30.8360   35.1480 C.3       1 APR2377     0.0000 
     32 O2D        48.3780   29.6690   37.1660 O.3       1 APR2377     0.0000 
     33 C2D        48.2170   30.8970   36.4480 C.3       1 APR2377     0.0000 
     34 O3D        46.8060   29.5890   34.9730 O.3       1 APR2377     0.0000 
     35 C3D        46.9090   30.8570   35.6370 C.3       1 APR2377     0.0000 
     36 C4D        47.2320   31.9530   34.5930 C.3       1 APR2377     0.0000 
     37 H          40.7581   37.1955   26.6094 H         1 APR2377     0.0000 
     38 H          38.1590   32.6966   27.7303 H         1 APR2377     0.0000 
     39 H          38.3253   33.3987   26.0856 H         1 APR2377     0.0000 
     40 H          39.4118   34.0155   32.0098 H         1 APR2377     0.0000 
     41 H          40.9724   37.4266   31.2299 H         1 APR2377     0.0000 
     42 H          39.8449   35.7139   33.3588 H         1 APR2377     0.0000 
     43 H          41.1399   36.8652   34.8498 H         1 APR2377     0.0000 
     44 H          43.1683   37.3472   32.9954 H         1 APR2377     0.0000 
     45 H          43.8358   34.9825   33.5747 H         1 APR2377     0.0000 
     46 H          42.3669   34.9199   34.5640 H         1 APR2377     0.0000 
     47 H          46.7937   34.0127   34.1553 H         1 APR2377     0.0000 
     48 H          45.6029   33.2193   35.2005 H         1 APR2377     0.0000 
     49 H          48.3797   30.0042   34.5460 H         1 APR2377     0.0000 
     50 H          48.3244   31.7662   36.8815 H         1 APR2377     0.0000 
     51 H          46.1306   31.1473   36.2135 H         1 APR2377     0.0000 
     52 H          46.7760   31.6831   33.6695 H         1 APR2377     0.0000 
     53 H          39.4465   38.3666   32.3848 H         1 APR2377     0.0000 
     54 H          41.3532   38.7869   32.7506 H         1 APR2377     0.0000 
     55 H          50.5984   30.3342   34.0995 H         1 APR2377     0.0000 
     56 H          47.9517   28.9734   36.5877 H         1 APR2377     0.0000 
     57 H          45.8574   29.5366   34.6611 H         1 APR2377     0.0000 
@<TRIPOS>BOND
     1    2    1 ar   
     2    6    1 ar   
     3    3    2 ar   
     4   37    2 1    
     5    4    3 ar   
     6    5    4 ar   
     7   10    4 1    
     8    6    5 ar   
     9    8    5 1    
    10    7    6 1    
    11   38    7 1    
    12   39    7 1    
    13    9    8 2    
    14   10    9 1    
    15   40    9 1    
    16   11   10 1    
    17   12   11 1    
    18   16   11 1    
    19   41   11 1    
    20   13   12 1    
    21   14   12 1    
    22   42   12 1    
    23   53   13 1    
    24   15   14 1    
    25   17   14 1    
    26   43   14 1    
    27   54   15 1    
    28   17   16 1    
    29   18   17 1    
    30   44   17 1    
    31   19   18 1    
    32   45   18 1    
    33   46   18 1    
    34   20   19 1    
    35   21   20 ar   
    36   22   20 ar   
    37   23   20 1    
    38   24   23 1    
    39   25   24 ar   
    40   26   24 ar   
    41   27   24 1    
    42   28   27 1    
    43   36   28 1    
    44   47   28 1    
    45   48   28 1    
    46   31   29 1    
    47   36   29 1    
    48   31   30 1    
    49   55   30 1    
    50   33   31 1    
    51   49   31 1    
    52   33   32 1    
    53   56   32 1    
    54   35   33 1    
    55   50   33 1    
    56   35   34 1    
    57   57   34 1    
    58   36   35 1    
    59   51   35 1    
    60   52   36 1    
@<TRIPOS>SUBSTRUCTURE
     1 APR2377     1 GROUP   
@<TRIPOS>SET

