#    Name: 1dxo_DQN_2_INTS_M
#    Modification time : Mon Mar 24 22:31:24 2014

@<TRIPOS>MOLECULE
1dxo_DQN_2_INTS_M
   15     0     3     0     0
SMALL
NO_CHARGES


@<TRIPOS>ATOM
      1 CA        -28.4410  -38.1900  -25.9945 C.3       1 GLC5        0.0000 
      2 CA        -28.1780  -36.6910  -24.3480 C.3       3 GLL5        0.0000 
      3 CA        -28.7040  -39.6890  -27.6410 C.3       2 GLP5        0.0000 
      4 CA        -26.8125  -36.9920  -23.2230 C.3       1 GLC5        0.0000 
      5 CA        -25.4470  -37.2930  -22.0980 C.3       2 GLP5        0.0000 
      6 CA        -31.0755  -34.0890  -22.5590 C.3       1 GLC5        0.0000 
      7 CA        -30.7340  -35.1190  -24.1440 C.3       3 GLL5        0.0000 
      8 CA        -31.4170  -33.0590  -20.9740 C.3       2 GLP5        0.0000 
      9 CA        -32.4190  -34.9735  -24.4500 C.3       1 GLC5        0.0000 
     10 CA        -34.1040  -34.8280  -24.7560 C.3       2 GLP5        0.0000 
     11 CA        -24.9645  -33.6920  -26.7550 C.3       1 GLC5        0.0000 
     12 CA        -26.2510  -32.9880  -27.5320 C.3       3 GLL5        0.0000 
     13 CA        -23.6780  -34.3960  -25.9780 C.3       2 GLP5        0.0000 
     14 CA        -26.0855  -33.9620  -28.9295 C.3       1 GLC5        0.0000 
     15 CA        -25.9200  -34.9360  -30.3270 C.3       2 GLP5        0.0000 
@<TRIPOS>BOND
@<TRIPOS>SUBSTRUCTURE
     1 GLC5        1 GROUP        1 X    GLC  0     ROOT GLC X 6
     2 GLP5        3 GROUP        1 Y    GLP  0     ROOT GLP Y 13
     3 GLL5        2 GROUP        1 Z    GLL  0     ROOT GLL Z 20
@<TRIPOS>SET

