#    Name: 1dxo_DQN_2_ligand
#    Modification time : Mon Mar 24 22:31:24 2014

@<TRIPOS>MOLECULE
1dxo_DQN_2_ligand
   24    24     1     0     0
SMALL
NO_CHARGES


@<TRIPOS>ATOM
      1 C1        -27.2220  -34.8860  -25.8860 C.2       1 DQN302      0.0000 
      2 O1        -26.2640  -35.6690  -25.9420 O.2       1 DQN302      0.0000 
      3 C2        -28.4030  -35.3730  -25.0740 C.2       1 DQN302      0.0000 
      4 C2M       -28.1780  -36.6910  -24.3480 C.3       1 DQN302      0.0000 
      5 C3        -29.6100  -34.6370  -25.0060 C.2       1 DQN302      0.0000 
      6 C3M       -30.7340  -35.1190  -24.1440 C.3       1 DQN302      0.0000 
      7 C4        -29.7490  -33.3140  -25.7580 C.2       1 DQN302      0.0000 
      8 O4        -30.6750  -32.5400  -25.6110 O.2       1 DQN302      0.0000 
      9 C5        -28.6150  -32.8320  -26.6110 C.2       1 DQN302      0.0000 
     10 C5M       -28.9500  -31.6270  -27.4450 C.3       1 DQN302      0.0000 
     11 C6        -27.3940  -33.5650  -26.6900 C.2       1 DQN302      0.0000 
     12 C6M       -26.2510  -32.9880  -27.5320 C.3       1 DQN302      0.0000 
     13 H         -27.9677  -37.4339  -24.9835 H         1 DQN302      0.0000 
     14 H         -27.4170  -36.6339  -23.7018 H         1 DQN302      0.0000 
     15 H         -28.9845  -36.9704  -23.8270 H         1 DQN302      0.0000 
     16 H         -30.4636  -35.1846  -23.1835 H         1 DQN302      0.0000 
     17 H         -31.5229  -34.5059  -24.1852 H         1 DQN302      0.0000 
     18 H         -31.0524  -36.0254  -24.4214 H         1 DQN302      0.0000 
     19 H         -28.1734  -31.3336  -28.0024 H         1 DQN302      0.0000 
     20 H         -29.7085  -31.8079  -28.0711 H         1 DQN302      0.0000 
     21 H         -29.2165  -30.8464  -26.8796 H         1 DQN302      0.0000 
     22 H         -25.4470  -32.7809  -26.9746 H         1 DQN302      0.0000 
     23 H         -25.9572  -33.6244  -28.2452 H         1 DQN302      0.0000 
     24 H         -26.5178  -32.1392  -27.9884 H         1 DQN302      0.0000 
@<TRIPOS>BOND
     1    2    1 2    
     2    3    1 1    
     3   11    1 1    
     4    4    3 1    
     5    5    3 2    
     6   13    4 1    
     7   14    4 1    
     8   15    4 1    
     9    6    5 1    
    10    7    5 1    
    11   16    6 1    
    12   17    6 1    
    13   18    6 1    
    14    8    7 2    
    15    9    7 1    
    16   10    9 1    
    17   11    9 2    
    18   19   10 1    
    19   20   10 1    
    20   21   10 1    
    21   12   11 1    
    22   22   12 1    
    23   23   12 1    
    24   24   12 1    
@<TRIPOS>SUBSTRUCTURE
     1 DQN302      1 GROUP   
@<TRIPOS>SET

