#    Name: 3pdj_3PJ_1_INTS_M
#    Modification time : Tue Mar 25 06:19:05 2014

@<TRIPOS>MOLECULE
3pdj_3PJ_1_INTS_M
   87     0     6     0     0
SMALL
NO_CHARGES


@<TRIPOS>ATOM
      1 CA        -47.3830   14.3550    3.5355 C.3       2 GLC5        0.0000 
      2 CA        -46.6230   12.4670    2.9250 C.3       6 GLL5        0.0000 
      3 CA        -48.1430   16.2430    4.1460 C.3       4 GLP5        0.0000 
      4 CA        -43.9160    9.6375    4.7770 C.3       2 GLC5        0.0000 
      5 CA        -45.1340   10.6640    3.5540 C.3       6 GLL5        0.0000 
      6 CA        -42.6980    8.6110    6.0000 C.3       4 GLP5        0.0000 
      7 N         -46.0420   10.2040   -2.1890 N.am      1 SEC2        0.0000 
      8 N         -46.0800   10.3360   -0.8330 N.am      5 SEL2        0.0000 
      9 N         -46.0040   10.0720   -3.5450 N.am      3 SEP2        0.0000 
     10 N         -45.5265   11.5780   -1.0225 N.am      1 SEC2        0.0000 
     11 N         -44.9730   12.8200   -1.2120 N.am      3 SEP2        0.0000 
     12 CA        -48.4650    9.2560   -2.3795 C.3       2 GLC5        0.0000 
     13 CA        -47.4830    8.0260   -1.1650 C.3       6 GLL5        0.0000 
     14 CA        -49.4470   10.4860   -3.5940 C.3       4 GLP5        0.0000 
     15 CA        -49.1155    7.4505   -2.4685 C.3       2 GLC5        0.0000 
     16 CA        -50.7480    6.8750   -3.7720 C.3       4 GLP5        0.0000 
     17 CA        -49.5560    8.1925    5.1410 C.3       2 GLC5        0.0000 
     18 CA        -48.9550    7.1880    3.2780 C.3       6 GLL5        0.0000 
     19 CA        -50.1570    9.1970    7.0040 C.3       4 GLP5        0.0000 
     20 CA        -48.4280    6.7840    5.3410 C.3       2 GLC5        0.0000 
     21 CA        -47.9010    6.3800    7.4040 C.3       4 GLP5        0.0000 
     22 CA        -44.9265   10.1635    6.8255 C.3       2 GLC5        0.0000 
     23 CA        -46.6780   11.1060    6.3130 C.3       6 GLL5        0.0000 
     24 CA        -43.1750    9.2210    7.3380 C.3       4 GLP5        0.0000 
     25 CA        -47.9045   14.5985    4.9685 C.3       2 GLC5        0.0000 
     26 CA        -47.6660   12.9540    5.7910 C.3       6 GLL5        0.0000 
     27 CA        -48.8575   14.0605    6.8225 C.3       2 GLC5        0.0000 
     28 CA        -50.0490   15.1670    7.8540 C.3       4 GLP5        0.0000 
     29 CA        -44.2785   13.3705    7.7520 C.3       2 GLC5        0.0000 
     30 CA        -46.0800   12.9230    7.3110 C.3       6 GLL5        0.0000 
     31 CA        -42.4770   13.8180    8.1930 C.3       4 GLP5        0.0000 
     32 CA        -45.6275    9.2100   -2.9045 C.3       2 GLC5        0.0000 
     33 CA        -46.1550    7.4500   -1.6620 C.3       6 GLL5        0.0000 
     34 CA        -45.1000   10.9700   -4.1470 C.3       4 GLP5        0.0000 
     35 CA        -46.6070    6.8755   -3.5580 C.3       2 GLC5        0.0000 
     36 CA        -47.0590    6.3010   -5.4540 C.3       4 GLP5        0.0000 
     37 CA        -44.5160    8.5205   -1.6130 C.3       2 GLC5        0.0000 
     38 CA        -42.8770    9.5910   -1.5640 C.3       4 GLP5        0.0000 
     39 CA        -46.8900    5.2650   -2.8650 C.3       2 GLC5        0.0000 
     40 CA        -47.2390    6.5120   -1.1660 C.3       6 GLL5        0.0000 
     41 CA        -46.5410    4.0180   -4.5640 C.3       4 GLP5        0.0000 
     42 CA        -48.9090    6.0810   -2.1605 C.3       2 GLC5        0.0000 
     43 CA        -50.5790    5.6500   -3.1550 C.3       4 GLP5        0.0000 
     44 CA        -49.9875    4.4385    5.4620 C.3       2 GLC5        0.0000 
     45 CA        -50.9420    6.0900    5.1130 C.3       6 GLL5        0.0000 
     46 CA        -49.0330    2.7870    5.8110 C.3       4 GLP5        0.0000 
     47 CA        -51.2135    4.0905    5.8110 C.3       2 GLC5        0.0000 
     48 CA        -51.7770    6.0400    6.2310 C.3       6 GLL5        0.0000 
     49 CA        -50.6500    2.1410    5.3910 C.3       4 GLP5        0.0000 
     50 CA        -54.7285    8.6115    4.7285 C.3       2 GLC5        0.0000 
     51 CA        -53.3220    7.4870    5.1260 C.3       6 GLL5        0.0000 
     52 CA        -56.1350    9.7360    4.3310 C.3       4 GLP5        0.0000 
     53 CA        -49.0150   12.0170    1.7645 C.3       2 GLC5        0.0000 
     54 CA        -46.9090   11.7980    1.7240 C.3       6 GLL5        0.0000 
     55 CA        -51.1210   12.2360    1.8050 C.3       4 GLP5        0.0000 
     56 CA        -53.8085    9.1695    3.9725 C.3       2 GLC5        0.0000 
     57 CA        -52.4840    7.5380    4.0020 C.3       6 GLL5        0.0000 
     58 CA        -55.1330   10.8010    3.9430 C.3       4 GLP5        0.0000 
     59 CA        -44.0340   15.0985    3.5555 C.3       2 GLC5        0.0000 
     60 CA        -45.1040   14.0820    4.9560 C.3       6 GLL5        0.0000 
     61 CA        -42.9640   16.1150    2.1550 C.3       4 GLP5        0.0000 
     62 CA        -46.6235   15.1625    4.5510 C.3       2 GLC5        0.0000 
     63 CA        -51.6960    5.7170    0.1695 C.3       2 GLC5        0.0000 
     64 CA        -50.3340    5.5150    2.0920 C.3       6 GLL5        0.0000 
     65 CA        -52.3620    6.1890   -1.6000 C.3       4 GLP5        0.0000 
     66 CA        -51.3137    7.1665   -0.1833 C.3       2 GLC5        0.0000 
     67 CA        -50.7790    8.0080    1.7890 C.3       6 GLL5        0.0000 
     68 CA        -50.6933   10.1900    1.5192 C.3       2 GLC5        0.0000 
     69 CA        -49.7520    8.2800    0.6780 C.3       6 GLL5        0.0000 
     70 CA        -46.6390    6.4975    3.2868 C.3       2 GLC5        0.0000 
     71 CA        -44.8260    5.7290    3.8690 C.3       4 GLP5        0.0000 
     72 CA        -48.6925   11.6530    5.6103 C.3       2 GLC5        0.0000 
     73 CA        -46.5060   12.3940    6.1670 C.3       6 GLL5        0.0000 
     74 CA        -50.2560   10.9540    5.2050 C.3       4 GLP5        0.0000 
     75 CA        -46.8507   11.5343    8.0151 C.3       2 GLC5        0.0000 
     76 CA        -47.0970   10.4310    9.3670 C.3       4 GLP5        0.0000 
     77 CA        -45.1330    5.9160   -2.0825 C.3       2 GLC5        0.0000 
     78 CA        -43.5690    4.8510   -2.7510 C.3       4 GLP5        0.0000 
     79 CA        -50.6352    7.8308    5.7735 C.3       2 GLC5        0.0000 
     80 CA        -51.2850    6.8390    3.9730 C.3       6 GLL5        0.0000 
     81 CA        -49.6303    6.2225    6.5380 C.3       2 GLC5        0.0000 
     82 CA        -51.2665    7.7947    6.6205 C.3       2 GLC5        0.0000 
     83 CA        -52.1740    5.7988    8.1765 C.3       2 GLC5        0.0000 
     84 CA        -51.9720    5.2050   10.1160 C.3       4 GLP5        0.0000 
     85 CA        -51.5300    8.3547    5.7840 C.3       2 GLC5        0.0000 
     86 CA        -43.8625   13.5762    6.6223 C.3       2 GLC5        0.0000 
     87 CA        -45.3920   12.5870    5.1470 C.3       6 GLL5        0.0000 
@<TRIPOS>BOND
@<TRIPOS>SUBSTRUCTURE
     1 SEC2        7 GROUP        1 X    SEC  0     ROOT SEC X 2
     2 GLC5        1 GROUP        1 X    GLC  0     **** GLC X 6
     3 SEP2        9 GROUP        1 Y    SEP  0     ROOT SEP Y 9
     4 GLP5        3 GROUP        1 Y    GLP  0     **** GLP Y 13
     5 SEL2        8 GROUP        1 Z    SEL  0     ROOT SEL Z 16
     6 GLL5        2 GROUP        1 Z    GLL  0     **** GLL Z 20
@<TRIPOS>SET

