#    Name: 3pdj_3PJ_1_ligand
#    Modification time : Tue Mar 25 06:19:05 2014

@<TRIPOS>MOLECULE
3pdj_3PJ_1_ligand
   69    72     1     0     0
SMALL
NO_CHARGES


@<TRIPOS>ATOM
      1 N1        -52.7830    2.9090    1.1850 N.am      1 3PJ1        0.0000 
      2 C2        -46.6230   12.4670    2.9250 C.ar      1 3PJ1        0.0000 
      3 C4        -46.3070   10.5610    1.4660 C.ar      1 3PJ1        0.0000 
      4 C5        -45.4090   10.0000    2.3690 C.ar      1 3PJ1        0.0000 
      5 C6        -45.1340   10.6640    3.5540 C.ar      1 3PJ1        0.0000 
      6 C8        -46.5060   12.3940    6.1670 C.3       1 3PJ1        0.0000 
      7 C10       -51.7260    4.9750    1.7860 C.3       1 3PJ1        0.0000 
      8 O10       -44.2160   11.9620    5.6660 O.3       1 3PJ1        0.0000 
      9 C12       -51.6160    3.5070    1.4800 C.2       1 3PJ1        0.0000 
     10 N12       -47.2440    8.5950    0.1820 N.am      1 3PJ1        0.0000 
     11 O13       -46.0800   10.3360   -0.8330 O.2       1 3PJ1        0.0000 
     12 C14       -48.3350    8.5100    1.2050 C.3       1 3PJ1        0.0000 
     13 C15       -47.4830    8.0260   -1.1650 C.3       1 3PJ1        0.0000 
     14 C16       -49.7520    8.2800    0.6780 C.3       1 3PJ1        0.0000 
     15 C17       -50.7790    8.0080    1.7890 C.3       1 3PJ1        0.0000 
     16 C18       -50.3610    6.8850    2.7650 C.3       1 3PJ1        0.0000 
     17 C19       -48.9550    7.1880    3.2780 C.3       1 3PJ1        0.0000 
     18 C20       -47.9490    7.3440    2.1310 C.3       1 3PJ1        0.0000 
     19 F21       -46.6780   11.1060    6.3130 F         1 3PJ1        0.0000 
     20 F22       -47.6660   12.9540    5.7910 F         1 3PJ1        0.0000 
     21 F23       -46.0800   12.9230    7.3110 F         1 3PJ1        0.0000 
     22 C24       -46.1550    7.4500   -1.6620 C.3       1 3PJ1        0.0000 
     23 C25       -47.2390    6.5120   -1.1660 C.3       1 3PJ1        0.0000 
     24 C26       -51.2850    6.8390    3.9730 C.ar      1 3PJ1        0.0000 
     25 C27       -50.9420    6.0900    5.1130 C.ar      1 3PJ1        0.0000 
     26 C28       -51.7770    6.0400    6.2310 C.ar      1 3PJ1        0.0000 
     27 C29       -52.9750    6.7450    6.2430 C.ar      1 3PJ1        0.0000 
     28 C30       -53.3220    7.4870    5.1260 C.ar      1 3PJ1        0.0000 
     29 C32       -50.3340    5.5150    2.0920 C.3       1 3PJ1        0.0000 
     30 OAI       -50.5180    2.9380    1.4940 O.2       1 3PJ1        0.0000 
     31 CAV       -46.9090   11.7980    1.7240 C.ar      1 3PJ1        0.0000 
     32 CAW       -52.4840    7.5380    4.0020 C.ar      1 3PJ1        0.0000 
     33 CBU       -45.1040   14.0820    4.9560 C.3       1 3PJ1        0.0000 
     34 CBV       -45.7300   11.9000    3.8470 C.ar      1 3PJ1        0.0000 
     35 CBW       -46.5640    9.8390    0.1780 C.2       1 3PJ1        0.0000 
     36 CBZ       -45.3920   12.5870    5.1470 C.3       1 3PJ1        0.0000 
     37 H         -53.5922    3.4964    1.1908 H         1 3PJ1        0.0000 
     38 H         -52.7378    1.9300    0.9861 H         1 3PJ1        0.0000 
     39 H         -47.0657   13.3673    3.1273 H         1 3PJ1        0.0000 
     40 H         -44.9573    9.1055    2.1577 H         1 3PJ1        0.0000 
     41 H         -44.4795   10.2477    4.2387 H         1 3PJ1        0.0000 
     42 H         -52.3637    5.1269    2.6479 H         1 3PJ1        0.0000 
     43 H         -52.1319    5.5020    0.9316 H         1 3PJ1        0.0000 
     44 H         -48.3212    9.4043    1.8227 H         1 3PJ1        0.0000 
     45 H         -47.9847    8.2646   -1.8461 H         1 3PJ1        0.0000 
     46 H         -49.7444    7.4264   -0.0135 H         1 3PJ1        0.0000 
     47 H         -50.0719    9.1636    0.1090 H         1 3PJ1        0.0000 
     48 H         -51.7394    7.7354    1.3295 H         1 3PJ1        0.0000 
     49 H         -50.9384    8.9316    2.3628 H         1 3PJ1        0.0000 
     50 H         -48.6267    6.3758    3.9312 H         1 3PJ1        0.0000 
     51 H         -48.9754    8.1117    3.8615 H         1 3PJ1        0.0000 
     52 H         -46.9593    7.5310    2.5446 H         1 3PJ1        0.0000 
     53 H         -47.9209    6.4232    1.5506 H         1 3PJ1        0.0000 
     54 H         -45.5213    7.5573   -0.9670 H         1 3PJ1        0.0000 
     55 H         -46.1812    7.4521   -2.6082 H         1 3PJ1        0.0000 
     56 H         -47.6840    6.1555   -1.9208 H         1 3PJ1        0.0000 
     57 H         -47.0241    6.2608   -0.2797 H         1 3PJ1        0.0000 
     58 H         -50.0495    5.5656    5.1190 H         1 3PJ1        0.0000 
     59 H         -51.5019    5.4780    7.0483 H         1 3PJ1        0.0000 
     60 H         -53.5855    6.7150    7.0601 H         1 3PJ1        0.0000 
     61 H         -54.2118    8.0148    5.1128 H         1 3PJ1        0.0000 
     62 H         -49.7628    5.5873    1.1564 H         1 3PJ1        0.0000 
     63 H         -49.8089    4.8055    2.7460 H         1 3PJ1        0.0000 
     64 H         -47.5503   12.2116    1.0467 H         1 3PJ1        0.0000 
     65 H         -52.7692    8.1059    3.1872 H         1 3PJ1        0.0000 
     66 H         -44.8175   14.5171    5.8096 H         1 3PJ1        0.0000 
     67 H         -44.3755   14.2376    4.2888 H         1 3PJ1        0.0000 
     68 H         -45.9098   14.5769    4.6309 H         1 3PJ1        0.0000 
     69 H         -43.4555   12.4151    5.2009 H         1 3PJ1        0.0000 
@<TRIPOS>BOND
     1    9    1 am   
     2   37    1 1    
     3   38    1 1    
     4   31    2 ar   
     5   34    2 ar   
     6   39    2 1    
     7    4    3 ar   
     8   31    3 ar   
     9   35    3 1    
    10    5    4 ar   
    11   40    4 1    
    12   34    5 ar   
    13   41    5 1    
    14   19    6 1    
    15   20    6 1    
    16   21    6 1    
    17   36    6 1    
    18    9    7 1    
    19   29    7 1    
    20   42    7 1    
    21   43    7 1    
    22   36    8 1    
    23   69    8 1    
    24   30    9 2    
    25   12   10 1    
    26   13   10 1    
    27   35   10 am   
    28   35   11 2    
    29   14   12 1    
    30   18   12 1    
    31   44   12 1    
    32   22   13 1    
    33   23   13 1    
    34   45   13 1    
    35   15   14 1    
    36   46   14 1    
    37   47   14 1    
    38   16   15 1    
    39   48   15 1    
    40   49   15 1    
    41   17   16 1    
    42   24   16 1    
    43   29   16 1    
    44   18   17 1    
    45   50   17 1    
    46   51   17 1    
    47   52   18 1    
    48   53   18 1    
    49   23   22 1    
    50   54   22 1    
    51   55   22 1    
    52   56   23 1    
    53   57   23 1    
    54   25   24 ar   
    55   32   24 ar   
    56   26   25 ar   
    57   58   25 1    
    58   27   26 ar   
    59   59   26 1    
    60   28   27 ar   
    61   60   27 1    
    62   32   28 ar   
    63   61   28 1    
    64   62   29 1    
    65   63   29 1    
    66   64   31 1    
    67   65   32 1    
    68   36   33 1    
    69   66   33 1    
    70   67   33 1    
    71   68   33 1    
    72   36   34 1    
@<TRIPOS>SUBSTRUCTURE
     1 3PJ1        1 GROUP   
@<TRIPOS>SET

