#    Name: 1yth_SER_LEU_ASN_PHE_ACE_1_INTS_M
#    Modification time : Mon Apr  7 15:54:23 2014

@<TRIPOS>MOLECULE
1yth_SER_LEU_ASN_PHE_ACE_1_INTS_M
   65     0     9     0     0
SMALL
NO_CHARGES


@<TRIPOS>ATOM
      1 O           2.6645    6.8185    8.2875 O.2       1 ALC1        0.0000 
      2 O           2.3470    6.4900    6.6900 O.2       7 ALL1        0.0000 
      3 O           2.9820    7.1470    9.8850 O.2       4 ALP1        0.0000 
      4 CA          1.3035    6.2275    9.3605 C.3       3 GLC5        0.0000 
      5 CA          1.3370    5.6030    7.2570 C.3       9 GLL5        0.0000 
      6 CA          1.2700    6.8520   11.4640 C.3       6 GLP5        0.0000 
      7 N           2.1035    1.8565    6.4875 N.am      2 SEC2        0.0000 
      8 N           2.1560    3.3150    6.9570 N.am      8 SEL2        0.0000 
      9 N           2.0510    0.3980    6.0180 N.am      5 SEP2        0.0000 
     10 CA         -1.8010    5.2425    5.9130 C.3       3 GLC5        0.0000 
     11 CA          0.2850    5.1600    6.2810 C.3       9 GLL5        0.0000 
     12 CA         -3.8870    5.3250    5.5450 C.3       6 GLP5        0.0000 
     13 CA         -0.8885    3.5985    6.5020 C.3       3 GLC5        0.0000 
     14 CA         -2.0620    2.0370    6.7230 C.3       6 GLP5        0.0000 
     15 O           2.9695    5.8470    9.2800 O.2       1 ALC1        0.0000 
     16 O           2.9570    4.5470    8.6750 O.2       7 ALL1        0.0000 
     17 N           2.5005    4.6960   12.2630 N.am      2 SEC2        0.0000 
     18 N           3.3080    4.0540   11.1910 N.am      8 SEL2        0.0000 
     19 N           1.6930    5.3380   13.3350 N.am      5 SEP2        0.0000 
     20 CA          4.4190    1.2870    6.4075 C.3       3 GLC5        0.0000 
     21 CA          5.6130    3.0030    6.6200 C.3       9 GLL5        0.0000 
     22 CA          3.2250   -0.4290    6.1950 C.3       6 GLP5        0.0000 
     23 CA          5.2670    2.0635    4.7430 C.3       3 GLC5        0.0000 
     24 CA          4.9210    1.1240    2.8660 C.3       6 GLP5        0.0000 
     25 O           3.4010    1.0245    9.6310 O.2       1 ALC1        0.0000 
     26 O           3.5440    1.8730   10.7190 O.2       7 ALL1        0.0000 
     27 O           3.2580    0.1760    8.5430 O.2       4 ALP1        0.0000 
     28 CA          2.7570    2.5615   13.4590 C.3       3 GLC5        0.0000 
     29 CA          3.0550    1.4030   11.9880 C.3       9 GLL5        0.0000 
     30 CA          2.4590    3.7200   14.9300 C.3       6 GLP5        0.0000 
     31 CA          1.5085    1.8170   13.5960 C.3       3 GLC5        0.0000 
     32 CA          1.6470    0.8650   11.7860 C.3       9 GLL5        0.0000 
     33 CA          1.3700    2.7690   15.4060 C.3       6 GLP5        0.0000 
     34 CA          0.7045   -0.0105   13.4535 C.3       3 GLC5        0.0000 
     35 CA         -0.2380   -0.8860   15.1210 C.3       6 GLP5        0.0000 
     36 CA          0.9750   -0.9820   11.8180 C.3       3 GLC5        0.0000 
     37 CA          0.3030   -2.8290   11.8500 C.3       6 GLP5        0.0000 
     38 N          -0.3470    4.0430   12.5005 N.am      2 SEC2        0.0000 
     39 N           0.3100    2.8600   12.0490 N.am      8 SEL2        0.0000 
     40 N          -1.0040    5.2260   12.9520 N.am      5 SEP2        0.0000 
     41 O          -0.4445    3.3980    9.8815 O.2       1 ALC1        0.0000 
     42 O           0.4980    2.1210    9.9990 O.2       7 ALL1        0.0000 
     43 O          -1.3870    4.6750    9.7640 O.2       4 ALP1        0.0000 
     44 O           5.0285    2.0880   14.0260 O.2       1 ALC1        0.0000 
     45 O           4.8940    0.7460   13.3940 O.2       7 ALL1        0.0000 
     46 O           5.1630    3.4300   14.6580 O.2       4 ALP1        0.0000 
     47 CA          8.3600    3.3570   13.7045 C.3       3 GLC5        0.0000 
     48 CA          7.7700    2.1790   12.2750 C.3       9 GLL5        0.0000 
     49 CA          8.9500    4.5350   15.1340 C.3       6 GLP5        0.0000 
     50 CA          6.5495   -0.9505    9.8505 C.3       3 GLC5        0.0000 
     51 CA          8.3810    0.1280   10.4700 C.3       9 GLL5        0.0000 
     52 CA          4.7180   -2.0290    9.2310 C.3       6 GLP5        0.0000 
     53 N           3.3195   -0.1525   16.6725 N.am      2 SEC2        0.0000 
     54 N           4.1850   -0.3300   15.6640 N.am      8 SEL2        0.0000 
     55 N           2.4540    0.0250   17.6810 N.am      5 SEP2        0.0000 
     56 CA          8.0828   -1.9160   10.5382 C.3       3 GLC5        0.0000 
     57 CA          7.9860   -0.1900   11.7570 C.3       9 GLL5        0.0000 
     58 CA          7.9820   -3.8010    9.9630 C.3       6 GLP5        0.0000 
     59 CA          9.3347    0.4126   13.2998 C.3       3 GLC5        0.0000 
     60 CA         10.9250   -0.3820   14.1830 C.3       6 GLP5        0.0000 
     61 CA          9.7210    0.9517    8.9375 C.3       3 GLC5        0.0000 
     62 CA         11.0160    1.1100    7.5990 C.3       6 GLP5        0.0000 
     63 CA          9.6565    2.9349   10.4460 C.3       3 GLC5        0.0000 
     64 CA          8.4710    1.4590   10.0820 C.3       9 GLL5        0.0000 
     65 CA         11.0930    3.9740   10.0390 C.3       6 GLP5        0.0000 
@<TRIPOS>BOND
@<TRIPOS>SUBSTRUCTURE
     1 ALC1        1 GROUP        1 X    ALC  0     ROOT ALC X 1
     2 SEC2        7 GROUP        1 X    SEC  0     **** SEC X 2
     3 GLC5        4 GROUP        1 X    GLC  0     **** GLC X 6
     4 ALP1        3 GROUP        1 Y    ALP  0     ROOT ALP Y 8
     5 SEP2        9 GROUP        1 Y    SEP  0     **** SEP Y 9
     6 GLP5        6 GROUP        1 Y    GLP  0     **** GLP Y 13
     7 ALL1        2 GROUP        1 Z    ALL  0     ROOT ALL Z 15
     8 SEL2        8 GROUP        1 Z    SEL  0     **** SEL Z 16
     9 GLL5        5 GROUP        1 Z    GLL  0     **** GLL Z 20
@<TRIPOS>SET

