#    Name: 1yth_SER_LEU_ASN_PHE_ACE_1_ligand
#    Modification time : Mon Apr  7 15:54:23 2014

@<TRIPOS>MOLECULE
1yth_SER_LEU_ASN_PHE_ACE_1_ligand
   72    72     5     0     0
SMALL
NO_CHARGES


@<TRIPOS>ATOM
      1 N           2.3470    6.4900    6.6900 N.am      1 SER1        0.0000
      2 CA          1.3370    5.6030    7.2570 C.3       1 SER1        0.0000
      3 C           2.1680    4.3770    7.6190 C.2       1 SER1        0.0000
      4 O           2.1560    3.3150    6.9570 O.2       1 SER1        0.0000
      5 CB          0.2850    5.1600    6.2810 C.3       1 SER1        0.0000
      6 OG         -0.6960    4.8040    7.2140 O.3       1 SER1        0.0000
      7 HNCA        3.2091    6.6232    7.3644 H         1 SER1        0.0000
      8 HA          0.9248    5.9871    8.1385 H         1 SER1        0.0000
      9 HB2         0.6541    4.3357    5.7325 H         1 SER1        0.0000
     10 HB3         0.0072    5.9846    5.6814 H         1 SER1        0.0000
     11 HG         -0.2667    4.9427    8.1065 H         1 SER1        0.0000
     12 N           2.9570    4.5470    8.6750 N.am      2 LEU2        0.0000
     13 CA          3.8980    3.5050    9.0200 C.3       2 LEU2        0.0000
     14 C           3.5750    3.1570   10.4140 C.2       2 LEU2        0.0000
     15 O           3.3080    4.0540   11.1910 O.2       2 LEU2        0.0000
     16 CB          5.3040    3.9900    8.9310 C.3       2 LEU2        0.0000
     17 CG          5.6760    4.2810    7.4720 C.3       2 LEU2        0.0000
     18 CD1         7.0380    4.9410    7.4630 C.3       2 LEU2        0.0000
     19 CD2         5.6130    3.0030    6.6200 C.3       2 LEU2        0.0000
     20 HNCA        2.9398    5.3811    9.2675 H         2 LEU2        0.0000
     21 HA          3.7560    2.6501    8.4005 H         2 LEU2        0.0000
     22 HB2         5.9896    3.2369    9.3205 H         2 LEU2        0.0000
     23 HB3         5.4258    4.9061    9.5096 H         2 LEU2        0.0000
     24 HG          4.9452    4.9922    7.0877 H         2 LEU2        0.0000
     25 HD11        7.7384    4.3528    7.8672 H         2 LEU2        0.0000
     26 HD12        7.3387    5.1594    6.5346 H         2 LEU2        0.0000
     27 HD13        7.0395    5.7967    7.9805 H         2 LEU2        0.0000
     28 HD21        5.8542    3.1805    5.6659 H         2 LEU2        0.0000
     29 HD22        6.2417    2.3015    6.9556 H         2 LEU2        0.0000
     30 HD23        4.6975    2.6007    6.6210 H         2 LEU2        0.0000
     31 N           3.5440    1.8730   10.7190 N.am      3 ASN3        0.0000
     32 CA          3.0550    1.4030   11.9880 C.3       3 ASN3        0.0000
     33 C           3.9740    0.3210   12.5180 C.2       3 ASN3        0.0000
     34 O           3.8530   -0.8600   12.1110 O.2       3 ASN3        0.0000
     35 CB          1.6470    0.8650   11.7860 C.3       3 ASN3        0.0000
     36 CG          0.7420    1.9920   11.2940 C.2       3 ASN3        0.0000
     37 OD1         0.3100    2.8600   12.0490 O.2       3 ASN3        0.0000
     38 ND2         0.4980    2.1210    9.9990 N.am      3 ASN3        0.0000
     39 HNCA        3.8734    1.1354   10.0529 H         3 ASN3        0.0000
     40 HA          3.0131    2.2066   12.7013 H         3 ASN3        0.0000
     41 HB2         1.2661    0.4838   12.7256 H         3 ASN3        0.0000
     42 HB3         1.6642    0.0715   11.0489 H         3 ASN3        0.0000
     43 HD21        0.9451    1.4578    9.3988 H         3 ASN3        0.0000
     44 HD22       -0.1113    2.8699    9.7385 H         3 ASN3        0.0000
     45 N           4.8940    0.7460   13.3940 N.am      4 PHE4        0.0000
     46 CA          5.8500   -0.1580   14.0270 C.3       4 PHE4        0.0000
     47 C           5.3770   -0.4590   15.4270 C.2       4 PHE4        0.0000
     48 O           6.1510   -0.9220   16.2670 O.2       4 PHE4        0.0000
     49 CB          7.2250    0.4860   14.0570 C.3       4 PHE4        0.0000
     50 CG          7.6790    0.8360   12.6620 C.ar      4 PHE4        0.0000
     51 CD1         7.9860   -0.1900   11.7570 C.ar      4 PHE4        0.0000
     52 CD2         7.7700    2.1790   12.2750 C.ar      4 PHE4        0.0000
     53 CE1         8.3810    0.1280   10.4700 C.ar      4 PHE4        0.0000
     54 CE2         8.1680    2.4860   10.9730 C.ar      4 PHE4        0.0000
     55 CZ          8.4710    1.4590   10.0820 C.ar      4 PHE4        0.0000
     56 OXT         4.1850   -0.3300   15.6640 O.3       4 PHE4        0.0000
     57 HNCA        4.9715    1.7506   13.6674 H         4 PHE4        0.0000
     58 HA          5.9108   -1.0800   13.4750 H         4 PHE4        0.0000
     59 HB2         7.9357   -0.2069   14.5102 H         4 PHE4        0.0000
     60 HB3         7.1843    1.3902   14.6664 H         4 PHE4        0.0000
     61 HD1         7.9155   -1.1682   12.0557 H         4 PHE4        0.0000
     62 HD2         7.5478    2.9215   12.9378 H         4 PHE4        0.0000
     63 HE1         8.6084   -0.6182    9.7989 H         4 PHE4        0.0000
     64 HE2         8.2368    3.4646   10.6744 H         4 PHE4        0.0000
     65 HZ          8.7669    1.6922    9.1186 H         4 PHE4        0.0000
     66 H           3.8031    0.0977   14.8446 H         4 PHE4        0.0000
     67 C           2.3810    7.1440    5.5120 C.2       5 ACE0        0.0000
     68 O           1.4860    7.1770    4.6660 O.2       5 ACE0        0.0000
     69 CH3         3.6600    7.9410    5.3100 C.3       5 ACE0        0.0000
     70 H           4.4696    7.3543    5.3258 H         5 ACE0        0.0000
     71 H           3.6635    8.4217    4.4331 H         5 ACE0        0.0000
     72 H           3.7841    8.6310    6.0230 H         5 ACE0        0.0000
@<TRIPOS>BOND
     1    2    1 1
     2    7    1 1
     3    3    2 1
     4    5    2 1
     5    8    2 1
     6    4    3 2
     7    6    5 1
     8    9    5 1
     9   10    5 1
    10   11    6 1
    11   13   12 1
    12   20   12 1
    13   14   13 1
    14   16   13 1
    15   21   13 1
    16   15   14 2
    17   17   16 1
    18   22   16 1
    19   23   16 1
    20   18   17 1
    21   19   17 1
    22   24   17 1
    23   25   18 1
    24   26   18 1
    25   27   18 1
    26   28   19 1
    27   29   19 1
    28   30   19 1
    29   32   31 1
    30   39   31 1
    31   33   32 1
    32   35   32 1
    33   40   32 1
    34   34   33 2
    35   36   35 1
    36   41   35 1
    37   42   35 1
    38   37   36 2
    39   38   36 am
    40   43   38 1
    41   44   38 1
    42   46   45 1
    43   57   45 1
    44   47   46 1
    45   49   46 1
    46   58   46 1
    47   48   47 2
    48   56   47 1
    49   50   49 1
    50   59   49 1
    51   60   49 1
    52   51   50 ar
    53   52   50 ar
    54   53   51 ar
    55   61   51 1
    56   54   52 ar
    57   62   52 1
    58   55   53 ar
    59   63   53 1
    60   55   54 ar
    61   64   54 1
    62   65   55 1
    63   66   56 1
    64   68   67 2
    65   69   67 1
    66   70   69 1
    67   71   69 1
    68   72   69 1
    69   67    1 1 
    70   12    3 am
    71   31   14 am
    72   45   33 am
@<TRIPOS>SUBSTRUCTURE
     1 SER1        1 RESIDUE
     2 LEU2       12 RESIDUE
     3 ASN3       31 RESIDUE
     4 PHE4       45 RESIDUE
     5 ACE0       67 GROUP
@<TRIPOS>SET

