#    Name: 2tys_PLT_1_INTS_M
#    Modification time : Tue Mar 25 00:10:45 2014

@<TRIPOS>MOLECULE
2tys_PLT_1_INTS_M
  107     0     9     0     0
SMALL
NO_CHARGES


@<TRIPOS>ATOM
      1 N          87.0865   12.6565   12.2735 N.am      2 SEC2        0.0000 
      2 N          86.1550   13.5300   12.0240 N.am      8 SEL2        0.0000 
      3 N          88.0180   11.7830   12.5230 N.am      5 SEP2        0.0000 
      4 CA         86.7115   15.1380   12.4540 C.3       3 GLC5        0.0000 
      5 CA         85.9480   14.1530   10.8670 C.3       9 GLL5        0.0000 
      6 CA         87.4750   16.1230   14.0410 C.3       6 GLP5        0.0000 
      7 CA         86.6470   13.2305    8.2120 C.3       3 GLC5        0.0000 
      8 CA         86.9670   14.1550    9.7880 C.3       9 GLL5        0.0000 
      9 CA         86.3270   12.3060    6.6360 C.3       6 GLP5        0.0000 
     10 CA         86.2285   15.1170    7.9395 C.3       3 GLC5        0.0000 
     11 CA         85.4900   16.0790    6.0910 C.3       6 GLP5        0.0000 
     12 CA         88.6750   15.0455   10.0490 C.3       3 GLC5        0.0000 
     13 CA         90.3830   15.9360   10.3100 C.3       6 GLP5        0.0000 
     14 CA         88.4375   13.1490    9.0855 C.3       3 GLC5        0.0000 
     15 CA         89.9080   12.1430    8.3830 C.3       6 GLP5        0.0000 
     16 CA         87.5215   16.1735    9.0895 C.3       3 GLC5        0.0000 
     17 CA         88.0760   18.1920    8.3910 C.3       6 GLP5        0.0000 
     18 CA         84.4330   16.9080   10.0110 C.3       3 GLC5        0.0000 
     19 CA         84.7180   14.8120   10.6880 C.3       9 GLL5        0.0000 
     20 CA         84.1480   19.0040    9.3340 C.3       6 GLP5        0.0000 
     21 CA         83.5195   16.8200   12.4015 C.3       3 GLC5        0.0000 
     22 CA         83.8060   14.8130   11.7490 C.3       9 GLL5        0.0000 
     23 CA         83.2330   18.8270   13.0540 C.3       6 GLP5        0.0000 
     24 CA         86.0505   13.1915   14.6930 C.3       3 GLC5        0.0000 
     25 CA         85.2800   13.4970   13.0600 C.3       9 GLL5        0.0000 
     26 CA         86.8210   12.8860   16.3260 C.3       6 GLP5        0.0000 
     27 CA         86.3775   14.8100   13.5505 C.3       3 GLC5        0.0000 
     28 CA         86.4345   12.0100   12.5700 C.3       3 GLC5        0.0000 
     29 CA         87.5890   10.5230   12.0800 C.3       6 GLP5        0.0000 
     30 CA         83.8055   15.0785   15.5650 C.3       3 GLC5        0.0000 
     31 CA         83.0810   14.1470   14.0690 C.3       9 GLL5        0.0000 
     32 CA         84.5300   16.0100   17.0610 C.3       6 GLP5        0.0000 
     33 N          78.5800   12.0740   14.1585 N.am      2 SEC2        0.0000 
     34 N          79.9610   12.0720   13.8930 N.am      8 SEL2        0.0000 
     35 N          77.1990   12.0760   14.4240 N.am      5 SEP2        0.0000 
     36 N          79.6125   10.7670   14.5790 N.am      2 SEC2        0.0000 
     37 N          79.2640    9.4620   15.2650 N.am      5 SEP2        0.0000 
     38 N          79.8605   11.0325   13.0995 N.am      2 SEC2        0.0000 
     39 N          79.7600    9.9930   12.3060 N.am      5 SEP2        0.0000 
     40 N          81.3985   13.3695   17.0815 N.am      2 SEC2        0.0000 
     41 N          81.1180   12.6820   15.9710 N.am      8 SEL2        0.0000 
     42 N          81.6790   14.0570   18.1920 N.am      5 SEP2        0.0000 
     43 N          80.1095   13.4275   16.5670 N.am      2 SEC2        0.0000 
     44 N          79.1010   14.1730   17.1630 N.am      5 SEP2        0.0000 
     45 N          79.9830   12.1135   16.5980 N.am      2 SEC2        0.0000 
     46 N          78.8480   11.5450   17.2250 N.am      5 SEP2        0.0000 
     47 N          80.9090   10.5125   13.3000 N.am      2 SEC2        0.0000 
     48 N          82.0580   11.0320   14.2940 N.am      8 SEL2        0.0000 
     49 N          81.9090    9.7070   14.1530 N.am      2 SEC2        0.0000 
     50 N          81.7600    8.3820   14.0120 N.am      5 SEP2        0.0000 
     51 N          83.3665   10.7165   14.6475 N.am      2 SEC2        0.0000 
     52 N          84.6750   10.4010   15.0010 N.am      5 SEP2        0.0000 
     53 CA         81.0275   14.3335    8.9675 C.3       3 GLC5        0.0000 
     54 CA         80.4640   16.0570   10.1320 C.3       9 GLL5        0.0000 
     55 CA         81.5910   12.6100    7.8030 C.3       6 GLP5        0.0000 
     56 CA         79.4680   15.6875    8.3825 C.3       3 GLC5        0.0000 
     57 CA         78.4720   15.3180    6.6330 C.3       6 GLP5        0.0000 
     58 N          80.1755   18.1505    7.2560 N.am      2 SEC2        0.0000 
     59 N          80.6760   17.3290    8.0780 N.am      8 SEL2        0.0000 
     60 N          79.6750   18.9720    6.4340 N.am      5 SEP2        0.0000 
     61 N          80.7405   16.5765    6.8995 N.am      2 SEC2        0.0000 
     62 N          80.8050   15.8240    5.7210 N.am      5 SEP2        0.0000 
     63 N          80.0090   19.6190    9.5210 N.am      2 SEC2        0.0000 
     64 N          80.5310   18.5080    9.9750 N.am      8 SEL2        0.0000 
     65 N          79.4870   20.7300    9.0670 N.am      5 SEP2        0.0000 
     66 N          81.3985   19.5520    9.6380 N.am      2 SEC2        0.0000 
     67 N          82.2660   20.5960    9.3010 N.am      5 SEP2        0.0000 
     68 CA         75.5525   17.5300    9.8870 C.3       3 GLC5        0.0000 
     69 CA         77.4220   16.3760   10.2140 C.3       9 GLL5        0.0000 
     70 CA         73.6830   18.6840    9.5600 C.3       6 GLP5        0.0000 
     71 CA         77.5920   18.1470    8.9130 C.3       3 GLC5        0.0000 
     72 CA         77.7620   19.9180    7.6120 C.3       6 GLP5        0.0000 
     73 CA         77.9470   15.8470    8.4235 C.3       3 GLC5        0.0000 
     74 CA         77.1325   18.2840   10.9780 C.3       3 GLC5        0.0000 
     75 CA         76.8430   20.1920   11.7420 C.3       6 GLP5        0.0000 
     76 CA         76.3750   14.8955    9.6595 C.3       3 GLC5        0.0000 
     77 CA         75.3280   13.4150    9.1050 C.3       6 GLP5        0.0000 
     78 O          74.9395   16.4725   10.0510 O.2       1 ALC1        0.0000 
     79 O          76.0670   16.5650   10.6420 O.2       7 ALL1        0.0000 
     80 O          73.8120   16.3800    9.4600 O.2       4 ALP1        0.0000 
     81 CA         75.6860   15.0280   10.5285 C.3       3 GLC5        0.0000 
     82 CA         76.0440   16.6410   11.9520 C.3       9 GLL5        0.0000 
     83 CA         73.3170   15.4570   12.1635 C.3       3 GLC5        0.0000 
     84 CA         74.9680   16.8050   12.7580 C.3       9 GLL5        0.0000 
     85 CA         71.6660   14.1090   11.5690 C.3       6 GLP5        0.0000 
     86 CA         76.9395   18.0635   16.0835 C.3       3 GLC5        0.0000 
     87 CA         76.4290   16.7450   14.6490 C.3       9 GLL5        0.0000 
     88 CA         77.4500   19.3820   17.5180 C.3       6 GLP5        0.0000 
     89 CA         87.0232   12.3385   11.2038 C.3       3 GLC5        0.0000 
     90 CA         85.3203   15.8306   12.8026 C.3       3 GLC5        0.0000 
     91 CA         86.4820   17.1810   13.5360 C.3       6 GLP5        0.0000 
     92 CA         74.5945   17.7035   10.9575 C.3       3 GLC5        0.0000 
     93 CA         75.3655   15.1395   13.2310 C.3       3 GLC5        0.0000 
     94 CA         75.2250   13.5560   14.1070 C.3       6 GLP5        0.0000 
     95 CA         73.7940   18.1540   13.2745 C.3       3 GLC5        0.0000 
     96 CA         72.5110   19.4710   13.1060 C.3       6 GLP5        0.0000 
     97 CA         76.0945   18.4940   12.4917 C.3       3 GLC5        0.0000 
     98 CA         75.5162   15.1815   14.2477 C.3       3 GLC5        0.0000 
     99 CA         75.1860   16.8690   14.1280 C.3       9 GLL5        0.0000 
    100 CA         77.8868   18.2380   13.7575 C.3       3 GLC5        0.0000 
    101 CA         78.7790   19.8240   13.2790 C.3       6 GLP5        0.0000 
    102 CA         77.3563   15.1635   15.6635 C.3       3 GLC5        0.0000 
    103 CA         77.5600   16.5590   13.8230 C.3       9 GLL5        0.0000 
    104 CA         77.7180   13.6750   17.0910 C.3       6 GLP5        0.0000 
    105 CA         76.3372   15.0460   13.6195 C.3       3 GLC5        0.0000 
    106 CA         78.4595   18.1081   12.5930 C.3       3 GLC5        0.0000 
    107 CA         77.3390   16.5130   12.4410 C.3       9 GLL5        0.0000 
@<TRIPOS>BOND
@<TRIPOS>SUBSTRUCTURE
     1 ALC1       78 GROUP        1 X    ALC  0     ROOT ALC X 1
     2 SEC2        1 GROUP        1 X    SEC  0     **** SEC X 2
     3 GLC5        4 GROUP        1 X    GLC  0     **** GLC X 6
     4 ALP1       80 GROUP        1 Y    ALP  0     ROOT ALP Y 8
     5 SEP2        3 GROUP        1 Y    SEP  0     **** SEP Y 9
     6 GLP5        6 GROUP        1 Y    GLP  0     **** GLP Y 13
     7 ALL1       79 GROUP        1 Z    ALL  0     ROOT ALL Z 15
     8 SEL2        2 GROUP        1 Z    SEL  0     **** SEL Z 16
     9 GLL5        5 GROUP        1 Z    GLL  0     **** GLL Z 20
@<TRIPOS>SET

