#    Name: 2tys_PLT_1_ligand
#    Modification time : Tue Mar 25 00:10:45 2014

@<TRIPOS>MOLECULE
2tys_PLT_1_ligand
   47    49     1     0     0
SMALL
NO_CHARGES


@<TRIPOS>ATOM
      1 N1         86.1550   13.5300   12.0240 N.ar      1 PLT399      0.0000 
      2 C2         85.9480   14.1530   10.8670 C.ar      1 PLT399      0.0000 
      3 C2A        86.9670   14.1550    9.7880 C.3       1 PLT399      0.0000 
      4 C3         84.7180   14.8120   10.6880 C.ar      1 PLT399      0.0000 
      5 O3         84.4000   15.4370    9.5770 O.3       1 PLT399      0.0000 
      6 C4         83.8060   14.8130   11.7490 C.ar      1 PLT399      0.0000 
      7 C4A        82.4930   15.5110   11.5330 C.2       1 PLT399      0.0000 
      8 C5         84.0550   14.1480   12.9200 C.ar      1 PLT399      0.0000 
      9 C6         85.2800   13.4970   13.0600 C.ar      1 PLT399      0.0000 
     10 C5A        83.0810   14.1470   14.0690 C.3       1 PLT399      0.0000 
     11 O4P        81.8260   13.4770   13.7360 O.3       1 PLT399      0.0000 
     12 P          81.2520   12.2610   14.4590 P.3       1 PLT399      0.0000 
     13 O1P        79.9610   12.0720   13.8930 O.co2     1 PLT399      0.0000 
     14 O2P        81.1180   12.6820   15.9710 O.co2     1 PLT399      0.0000 
     15 O3P        82.0580   11.0320   14.2940 O.co2     1 PLT399      0.0000 
     16 N          81.7670   15.4490   10.3500 N.2       1 PLT399      0.0000 
     17 CA         80.4640   16.0570   10.1320 C.3       1 PLT399      0.0000 
     18 C          80.5510   17.3620    9.3850 C.2       1 PLT399      0.0000 
     19 O          80.6760   17.3290    8.0780 O.co2     1 PLT399      0.0000 
     20 OXT        80.5310   18.5080    9.9750 O.co2     1 PLT399      0.0000 
     21 CB         79.6970   16.1890   11.4310 C.3       1 PLT399      0.0000 
     22 CG         78.1850   16.3540   11.3150 C.2       1 PLT399      0.0000 
     23 CD1        77.4220   16.3760   10.2140 C.2       1 PLT399      0.0000 
     24 NE1        76.0670   16.5650   10.6420 N.pl3     1 PLT399      0.0000 
     25 CE2        76.0440   16.6410   11.9520 C.ar      1 PLT399      0.0000 
     26 CZ2        74.9680   16.8050   12.7580 C.ar      1 PLT399      0.0000 
     27 CH2        75.1860   16.8690   14.1280 C.ar      1 PLT399      0.0000 
     28 CZ3        76.4290   16.7450   14.6490 C.ar      1 PLT399      0.0000 
     29 CE3        77.5600   16.5590   13.8230 C.ar      1 PLT399      0.0000 
     30 CD2        77.3390   16.5130   12.4410 C.ar      1 PLT399      0.0000 
     31 H          82.1454   16.0614   12.3439 H         1 PLT399      0.0000 
     32 H          85.4980   13.0092   13.9334 H         1 PLT399      0.0000 
     33 H          82.8896   15.1940   14.3679 H         1 PLT399      0.0000 
     34 H          83.5605   13.6553   14.9353 H         1 PLT399      0.0000 
     35 H          79.8631   15.3589    9.4879 H         1 PLT399      0.0000 
     36 H          80.1035   17.0560   12.0033 H         1 PLT399      0.0000 
     37 H          79.9066   15.2961   12.0659 H         1 PLT399      0.0000 
     38 H          77.6740   16.2889    9.3083 H         1 PLT399      0.0000 
     39 H          75.3405   16.6185   10.0157 H         1 PLT399      0.0000 
     40 H          74.0208   16.8808   12.3863 H         1 PLT399      0.0000 
     41 H          74.3648   17.0161   14.7556 H         1 PLT399      0.0000 
     42 H          76.5820   16.7841   15.6784 H         1 PLT399      0.0000 
     43 H          78.4778   16.4647   14.2147 H         1 PLT399      0.0000 
     44 H          87.8236   14.5756   10.0869 H         1 PLT399      0.0000 
     45 H          87.1864   13.2284    9.4826 H         1 PLT399      0.0000 
     46 H          86.6560   14.6625    8.9844 H         1 PLT399      0.0000 
     47 H          83.4343   15.2244    9.4279 H         1 PLT399      0.0000 
@<TRIPOS>BOND
     1    2    1 ar   
     2    9    1 ar   
     3    3    2 1    
     4    4    2 ar   
     5   44    3 1    
     6   45    3 1    
     7   46    3 1    
     8    5    4 1    
     9    6    4 ar   
    10   47    5 1    
    11    7    6 1    
    12    8    6 ar   
    13   16    7 2    
    14   31    7 1    
    15    9    8 ar   
    16   10    8 1    
    17   32    9 1    
    18   11   10 1    
    19   33   10 1    
    20   34   10 1    
    21   12   11 1    
    22   13   12 ar   
    23   14   12 ar   
    24   15   12 ar   
    25   17   16 1    
    26   18   17 1    
    27   21   17 1    
    28   35   17 1    
    29   19   18 ar   
    30   20   18 ar   
    31   22   21 1    
    32   36   21 1    
    33   37   21 1    
    34   23   22 2    
    35   30   22 1    
    36   24   23 1    
    37   38   23 1    
    38   25   24 1    
    39   39   24 1    
    40   26   25 ar   
    41   30   25 ar   
    42   27   26 ar   
    43   40   26 1    
    44   28   27 ar   
    45   41   27 1    
    46   29   28 ar   
    47   42   28 1    
    48   30   29 ar   
    49   43   29 1    
@<TRIPOS>SUBSTRUCTURE
     1 PLT399      1 GROUP   
@<TRIPOS>SET

