#    Name: 3nxu_RIT_2_INTS_M
#    Modification time : Tue Mar 25 02:55:57 2014

@<TRIPOS>MOLECULE
3nxu_RIT_2_INTS_M
   91     0     9     0     0
SMALL
NO_CHARGES


@<TRIPOS>ATOM
      1 CA         26.1605  -22.3265  -14.6265 C.3       3 GLC5        0.0000 
      2 CA         27.4080  -23.7980  -15.3510 C.3       9 GLL5        0.0000 
      3 CA         24.9130  -20.8550  -13.9020 C.3       6 GLP5        0.0000 
      4 CA         25.9140  -23.9995  -14.1105 C.3       3 GLC5        0.0000 
      5 CA         24.4200  -24.2010  -12.8700 C.3       6 GLP5        0.0000 
      6 CA         28.1490  -22.6355  -18.7230 C.3       3 GLC5        0.0000 
      7 CA         28.7790  -23.6670  -17.3110 C.3       9 GLL5        0.0000 
      8 CA         27.5190  -21.6040  -20.1350 C.3       6 GLP5        0.0000 
      9 O          31.4285  -27.1630  -18.7820 O.2       1 ALC1        0.0000 
     10 O          30.1530  -26.4140  -19.2440 O.2       7 ALL1        0.0000 
     11 O          32.7040  -27.9120  -18.3200 O.2       4 ALP1        0.0000 
     12 CA         29.2885  -30.2485  -20.8640 C.3       3 GLC5        0.0000 
     13 CA         29.1370  -28.8210  -19.4340 C.3       9 GLL5        0.0000 
     14 CA         29.4400  -31.6760  -22.2940 C.3       6 GLP5        0.0000 
     15 CA         31.0810  -28.3785  -17.4760 C.3       3 GLC5        0.0000 
     16 CA         29.0130  -28.4710  -17.9200 C.3       9 GLL5        0.0000 
     17 CA         33.1490  -28.2860  -17.0320 C.3       6 GLP5        0.0000 
     18 CA         29.3845  -29.1345  -22.4700 C.3       3 GLC5        0.0000 
     19 CA         29.5090  -27.5310  -21.6380 C.3       9 GLL5        0.0000 
     20 CA         29.2600  -30.7380  -23.3020 C.3       6 GLP5        0.0000 
     21 CA         31.2765  -28.4690  -22.2810 C.3       3 GLC5        0.0000 
     22 CA         33.0440  -29.4070  -22.9240 C.3       6 GLP5        0.0000 
     23 CA         29.8610  -27.5420  -23.6580 C.3       3 GLC5        0.0000 
     24 CA         30.2130  -27.5530  -25.6780 C.3       6 GLP5        0.0000 
     25 CA         26.4635  -26.4760  -23.0585 C.3       3 GLC5        0.0000 
     26 CA         27.7810  -25.6670  -22.1240 C.3       9 GLL5        0.0000 
     27 CA         25.1460  -27.2850  -23.9930 C.3       6 GLP5        0.0000 
     28 CA         31.4340  -22.7555  -24.0065 C.3       3 GLC5        0.0000 
     29 CA         29.9910  -23.9760  -23.1880 C.3       9 GLL5        0.0000 
     30 CA         32.8770  -21.5350  -24.8250 C.3       6 GLP5        0.0000 
     31 N          31.5685  -28.7245  -18.9330 N.am      2 SEC2        0.0000 
     32 N          30.4330  -29.5370  -19.5460 N.am      8 SEL2        0.0000 
     33 N          32.7040  -27.9120  -18.3200 N.am      5 SEP2        0.0000 
     34 CA         23.9500  -28.8985  -11.6070 C.3       3 GLC5        0.0000 
     35 CA         24.6940  -29.6670  -13.1200 C.3       9 GLL5        0.0000 
     36 CA         23.2060  -28.1300  -10.0940 C.3       6 GLP5        0.0000 
     37 CA         24.7125  -26.2445  -13.2440 C.3       3 GLC5        0.0000 
     38 CA         25.0050  -28.2880  -13.6180 C.3       9 GLL5        0.0000 
     39 CA         23.5540  -28.0775  -12.3740 C.3       3 GLC5        0.0000 
     40 CA         22.1030  -27.8670  -11.1300 C.3       6 GLP5        0.0000 
     41 CA         26.3695  -32.1135  -21.6320 C.3       3 GLC5        0.0000 
     42 CA         25.1030  -31.2110  -20.0560 C.3       9 GLL5        0.0000 
     43 CA         27.6360  -33.0160  -23.2080 C.3       6 GLP5        0.0000 
     44 CA         24.6750  -28.6735  -22.3060 C.3       3 GLC5        0.0000 
     45 CA         24.2040  -30.0620  -20.6190 C.3       9 GLL5        0.0000 
     46 CA         27.4780  -31.9555  -21.5020 C.3       3 GLC5        0.0000 
     47 CA         26.3250  -31.0970  -20.7510 C.3       9 GLL5        0.0000 
     48 CA         28.6310  -32.8140  -22.2530 C.3       6 GLP5        0.0000 
     49 CA         19.4035  -31.7475  -16.6775 C.3       3 GLC5        0.0000 
     50 CA         21.4150  -31.8880  -16.8950 C.3       9 GLL5        0.0000 
     51 CA         17.3920  -31.6070  -16.4600 C.3       6 GLP5        0.0000 
     52 CA         18.3245  -37.0040  -20.3885 C.3       3 GLC5        0.0000 
     53 CA         20.1380  -36.3200  -20.7310 C.3       9 GLL5        0.0000 
     54 CA         16.5110  -37.6880  -20.0460 C.3       6 GLP5        0.0000 
     55 CA         18.8330  -35.6210  -21.6725 C.3       3 GLC5        0.0000 
     56 CA         17.5280  -34.9220  -22.6140 C.3       6 GLP5        0.0000 
     57 CA         20.2060  -37.3225  -22.4240 C.3       3 GLC5        0.0000 
     58 CA         20.2740  -38.3250  -24.1170 C.3       6 GLP5        0.0000 
     59 CA         23.8630  -37.2765  -20.5350 C.3       3 GLC5        0.0000 
     60 CA         22.5270  -35.7040  -21.1690 C.3       9 GLL5        0.0000 
     61 CA         25.1990  -38.8490  -19.9010 C.3       6 GLP5        0.0000 
     62 CA         22.0295  -34.4715  -22.7730 C.3       3 GLC5        0.0000 
     63 CA         21.5320  -33.2390  -24.3770 C.3       6 GLP5        0.0000 
     64 CA         21.4940  -33.7905  -13.9965 C.3       3 GLC5        0.0000 
     65 CA         22.5330  -33.6230  -15.3110 C.3       9 GLL5        0.0000 
     66 CA         20.4550  -33.9580  -12.6820 C.3       6 GLP5        0.0000 
     67 CA         23.6680  -34.9675  -14.7300 C.3       3 GLC5        0.0000 
     68 CA         24.8030  -36.3120  -14.1490 C.3       6 GLP5        0.0000 
     69 CA         29.6720  -21.7684  -16.2918 C.3       3 GLC5        0.0000 
     70 CA         28.8490  -23.4960  -16.1320 C.3       9 GLL5        0.0000 
     71 CA         30.3110  -20.0220  -16.0890 C.3       6 GLP5        0.0000 
     72 CA         26.5493  -24.5543  -24.0988 C.3       3 GLC5        0.0000 
     73 CA         28.5690  -23.4930  -23.1320 C.3       9 GLL5        0.0000 
     74 CA         25.0730  -25.1930  -25.3270 C.3       6 GLP5        0.0000 
     75 CA         29.4395  -22.5012  -24.3230 C.3       3 GLC5        0.0000 
     76 CA         29.5990  -21.2680  -25.4860 C.3       6 GLP5        0.0000 
     77 CA         29.3010  -21.9742  -22.1770 C.3       3 GLC5        0.0000 
     78 CA         29.3220  -20.2140  -21.1940 C.3       6 GLP5        0.0000 
     79 CA         32.0023  -24.9040  -23.7125 C.3       3 GLC5        0.0000 
     80 CA         33.8390  -25.1480  -24.4820 C.3       6 GLP5        0.0000 
     81 CA         31.5711  -24.9370  -21.8098 C.3       3 GLC5        0.0000 
     82 CA         33.2430  -25.0020  -20.8100 C.3       6 GLP5        0.0000 
     83 CA         28.7926  -31.1448  -14.8732 C.3       3 GLC5        0.0000 
     84 CA         28.4000  -28.8600  -15.5460 C.3       9 GLL5        0.0000 
     85 CA         30.2100  -32.4910  -15.0670 C.3       6 GLP5        0.0000 
     86 CA         25.1388  -30.6733  -11.4398 C.3       3 GLC5        0.0000 
     87 CA         25.6530  -30.8200  -13.4150 C.3       9 GLL5        0.0000 
     88 CA         25.1040  -31.1030   -9.6120 C.3       6 GLP5        0.0000 
     89 CA         19.4672  -30.5110  -20.4290 C.3       3 GLC5        0.0000 
     90 CA         20.5820  -31.5970  -19.2950 C.3       9 GLL5        0.0000 
     91 CA         18.4150  -28.8340  -20.9010 C.3       6 GLP5        0.0000 
@<TRIPOS>BOND
@<TRIPOS>SUBSTRUCTURE
     1 ALC1        9 GROUP        1 X    ALC  0     ROOT ALC X 1
     2 SEC2       31 GROUP        1 X    SEC  0     **** SEC X 2
     3 GLC5        1 GROUP        1 X    GLC  0     **** GLC X 6
     4 ALP1       11 GROUP        1 Y    ALP  0     ROOT ALP Y 8
     5 SEP2       33 GROUP        1 Y    SEP  0     **** SEP Y 9
     6 GLP5        3 GROUP        1 Y    GLP  0     **** GLP Y 13
     7 ALL1       10 GROUP        1 Z    ALL  0     ROOT ALL Z 15
     8 SEL2       32 GROUP        1 Z    SEL  0     **** SEL Z 16
     9 GLL5        2 GROUP        1 Z    GLL  0     **** GLL Z 20
@<TRIPOS>SET

