#    Name: 3nxu_RIT_2_ligand
#    Modification time : Tue Mar 25 02:55:57 2014

@<TRIPOS>MOLECULE
3nxu_RIT_2_ligand
   98   101     1     0     0
SMALL
NO_CHARGES


@<TRIPOS>ATOM
      1 C1         29.7250  -23.2290  -15.2240 C.2       1 RIT600      0.0000 
      2 C2         28.8490  -23.4960  -16.1320 C.2       1 RIT600      0.0000 
      3 S3         27.4080  -23.7980  -15.3510 S.3       1 RIT600      0.0000 
      4 C4         28.0660  -23.5370  -13.8590 C.2       1 RIT600      0.0000 
      5 N5         29.2990  -23.2460  -14.0780 N.2       1 RIT600      0.0000 
      6 C6         28.7790  -23.6670  -17.3110 C.3       1 RIT600      0.0000 
      7 O7         29.7750  -24.6190  -17.7560 O.3       1 RIT600      0.0000 
      8 C10        29.3280  -25.3520  -18.7080 C.2       1 RIT600      0.0000 
      9 O24        27.9830  -25.2930  -19.0460 O.2       1 RIT600      0.0000 
     10 N11        30.1530  -26.4140  -19.2440 N.am      1 RIT600      0.0000 
     11 C12        29.3360  -27.4610  -20.0950 C.3       1 RIT600      0.0000 
     12 C13        29.1370  -28.8210  -19.4340 C.3       1 RIT600      0.0000 
     13 C14        29.0130  -28.4710  -17.9200 C.3       1 RIT600      0.0000 
     14 C15        28.1140  -29.0400  -17.1170 C.3       1 RIT600      0.0000 
     15 C26        29.5090  -27.5310  -21.6380 C.3       1 RIT600      0.0000 
     16 C28        29.2750  -26.1920  -22.1640 C.ar      1 RIT600      0.0000 
     17 C31        27.7810  -25.6670  -22.1240 C.ar      1 RIT600      0.0000 
     18 C32        27.4820  -24.3380  -22.6090 C.ar      1 RIT600      0.0000 
     19 C33        28.5690  -23.4930  -23.1320 C.ar      1 RIT600      0.0000 
     20 C34        29.9910  -23.9760  -23.1880 C.ar      1 RIT600      0.0000 
     21 C35        30.3400  -25.3440  -22.6980 C.ar      1 RIT600      0.0000 
     22 O41        30.4330  -29.5370  -19.5460 O.3       1 RIT600      0.0000 
     23 C44        28.4000  -28.8600  -15.5460 C.3       1 RIT600      0.0000 
     24 C45        27.2250  -29.1960  -14.7140 C.ar      1 RIT600      0.0000 
     25 C48        26.9380  -30.5690  -14.2290 C.ar      1 RIT600      0.0000 
     26 C49        25.6530  -30.8200  -13.4150 C.ar      1 RIT600      0.0000 
     27 C50        24.6940  -29.6670  -13.1200 C.ar      1 RIT600      0.0000 
     28 C51        25.0050  -28.2880  -13.6180 C.ar      1 RIT600      0.0000 
     29 C52        26.2700  -28.0510  -14.4130 C.ar      1 RIT600      0.0000 
     30 N58        27.3530  -30.1040  -17.7440 N.am      1 RIT600      0.0000 
     31 N20        24.0410  -31.2980  -18.0250 N.am      1 RIT600      0.0000 
     32 C19        25.3120  -31.2370  -18.4170 C.3       1 RIT600      0.0000 
     33 C18        25.9450  -30.0470  -17.8100 C.2       1 RIT600      0.0000 
     34 O61        25.2410  -29.0980  -17.2730 O.2       1 RIT600      0.0000 
     35 C62        25.1030  -31.2110  -20.0560 C.3       1 RIT600      0.0000 
     36 C64        24.2040  -30.0620  -20.6190 C.3       1 RIT600      0.0000 
     37 C68        26.3250  -31.0970  -20.7510 C.3       1 RIT600      0.0000 
     38 C21        23.9070  -32.3140  -16.8950 C.2       1 RIT600      0.0000 
     39 N74        22.6500  -32.5970  -16.3630 N.am      1 RIT600      0.0000 
     40 C75        21.4150  -31.8880  -16.8950 C.3       1 RIT600      0.0000 
     41 O76        25.0070  -32.9650  -16.4300 O.2       1 RIT600      0.0000 
     42 C77        21.1020  -32.3940  -18.3410 C.2       1 RIT600      0.0000 
     43 C80        20.5820  -31.5970  -19.2950 C.2       1 RIT600      0.0000 
     44 S81        20.4570  -32.7790  -20.6190 S.3       1 RIT600      0.0000 
     45 C82        21.1200  -34.1400  -19.7610 C.2       1 RIT600      0.0000 
     46 N83        21.3530  -33.6320  -18.6280 N.2       1 RIT600      0.0000 
     47 C85        21.3780  -35.6220  -20.1760 C.3       1 RIT600      0.0000 
     48 C86        20.1380  -36.3200  -20.7310 C.3       1 RIT600      0.0000 
     49 C90        22.5270  -35.7040  -21.1690 C.3       1 RIT600      0.0000 
     50 C95        22.5330  -33.6230  -15.3110 C.3       1 RIT600      0.0000 
     51 H          30.7117  -23.0194  -15.4831 H         1 RIT600      0.0000 
     52 H          27.4909  -23.6331  -13.1540 H         1 RIT600      0.0000 
     53 H          28.9300  -22.7396  -17.9601 H         1 RIT600      0.0000 
     54 H          27.7810  -24.0633  -17.6999 H         1 RIT600      0.0000 
     55 H          31.0774  -26.5257  -19.1346 H         1 RIT600      0.0000 
     56 H          28.2024  -27.0000  -20.0046 H         1 RIT600      0.0000 
     57 H          28.3475  -29.3107  -19.7636 H         1 RIT600      0.0000 
     58 H          28.9395  -27.3089  -17.9101 H         1 RIT600      0.0000 
     59 H          30.0997  -28.5900  -17.5189 H         1 RIT600      0.0000 
     60 H          27.2002  -28.0979  -17.1816 H         1 RIT600      0.0000 
     61 H          28.7900  -28.2414  -22.0190 H         1 RIT600      0.0000 
     62 H          30.5138  -27.8709  -21.8425 H         1 RIT600      0.0000 
     63 H          27.1065  -26.2852  -21.7614 H         1 RIT600      0.0000 
     64 H          26.5446  -23.9831  -22.5944 H         1 RIT600      0.0000 
     65 H          28.3661  -22.5617  -23.4651 H         1 RIT600      0.0000 
     66 H          30.6987  -23.3812  -23.5526 H         1 RIT600      0.0000 
     67 H          31.2779  -25.6566  -22.7402 H         1 RIT600      0.0000 
     68 H          28.7071  -27.8194  -15.4048 H         1 RIT600      0.0000 
     69 H          29.2543  -29.5022  -15.3116 H         1 RIT600      0.0000 
     70 H          27.5396  -31.3212  -14.4099 H         1 RIT600      0.0000 
     71 H          25.4555  -31.7238  -13.0882 H         1 RIT600      0.0000 
     72 H          23.8733  -29.8437  -12.6005 H         1 RIT600      0.0000 
     73 H          24.3937  -27.5370  -13.4321 H         1 RIT600      0.0000 
     74 H          26.4822  -27.1402  -14.7432 H         1 RIT600      0.0000 
     75 H          27.8600  -30.8987  -18.1384 H         1 RIT600      0.0000 
     76 H          23.2722  -30.8360  -18.3258 H         1 RIT600      0.0000 
     77 H          25.8476  -32.1355  -18.2250 H         1 RIT600      0.0000 
     78 H          24.6073  -32.1559  -20.3128 H         1 RIT600      0.0000 
     79 H          21.5870  -30.8220  -16.9366 H         1 RIT600      0.0000 
     80 H          20.5628  -32.1034  -16.2665 H         1 RIT600      0.0000 
     81 H          20.3165  -30.8204  -19.4874 H         1 RIT600      0.0000 
     82 H          21.6914  -36.1597  -19.2664 H         1 RIT600      0.0000 
     83 H          24.5712  -29.1593  -20.3946 H         1 RIT600      0.0000 
     84 H          24.1244  -30.1068  -21.6148 H         1 RIT600      0.0000 
     85 H          23.2759  -30.1013  -20.2487 H         1 RIT600      0.0000 
     86 H          26.8144  -30.2598  -20.5068 H         1 RIT600      0.0000 
     87 H          26.9373  -31.8626  -20.5537 H         1 RIT600      0.0000 
     88 H          26.1886  -31.0785  -21.7415 H         1 RIT600      0.0000 
     89 H          20.3294  -37.2667  -20.9901 H         1 RIT600      0.0000 
     90 H          19.3947  -36.3436  -20.0625 H         1 RIT600      0.0000 
     91 H          19.7854  -35.8588  -21.5452 H         1 RIT600      0.0000 
     92 H          23.3767  -35.3434  -20.7844 H         1 RIT600      0.0000 
     93 H          22.7090  -36.6465  -21.4494 H         1 RIT600      0.0000 
     94 H          22.3371  -35.1822  -22.0007 H         1 RIT600      0.0000 
     95 H          22.8468  -34.5179  -15.6284 H         1 RIT600      0.0000 
     96 H          23.0762  -33.3912  -14.5041 H         1 RIT600      0.0000 
     97 H          21.5875  -33.7354  -15.0054 H         1 RIT600      0.0000 
     98 H          30.2479  -30.4609  -19.2112 H         1 RIT600      0.0000 
@<TRIPOS>BOND
     1    2    1 2    
     2    5    1 1    
     3   51    1 1    
     4    3    2 1    
     5    6    2 1    
     6    4    3 1    
     7    5    4 2    
     8   52    4 1    
     9    7    6 1    
    10   53    6 1    
    11   54    6 1    
    12    8    7 1    
    13    9    8 2    
    14   10    8 am   
    15   11   10 1    
    16   55   10 1    
    17   12   11 1    
    18   15   11 1    
    19   56   11 1    
    20   13   12 1    
    21   22   12 1    
    22   57   12 1    
    23   14   13 1    
    24   58   13 1    
    25   59   13 1    
    26   23   14 1    
    27   30   14 1    
    28   60   14 1    
    29   16   15 1    
    30   61   15 1    
    31   62   15 1    
    32   17   16 ar   
    33   21   16 ar   
    34   18   17 ar   
    35   63   17 1    
    36   19   18 ar   
    37   64   18 1    
    38   20   19 ar   
    39   65   19 1    
    40   21   20 ar   
    41   66   20 1    
    42   67   21 1    
    43   98   22 1    
    44   24   23 1    
    45   68   23 1    
    46   69   23 1    
    47   25   24 ar   
    48   29   24 ar   
    49   26   25 ar   
    50   70   25 1    
    51   27   26 ar   
    52   71   26 1    
    53   28   27 ar   
    54   72   27 1    
    55   29   28 ar   
    56   73   28 1    
    57   74   29 1    
    58   33   30 am   
    59   75   30 1    
    60   32   31 1    
    61   38   31 am   
    62   76   31 1    
    63   33   32 1    
    64   35   32 1    
    65   77   32 1    
    66   34   33 2    
    67   36   35 1    
    68   37   35 1    
    69   78   35 1    
    70   83   36 1    
    71   84   36 1    
    72   85   36 1    
    73   86   37 1    
    74   87   37 1    
    75   88   37 1    
    76   39   38 am   
    77   41   38 2    
    78   40   39 1    
    79   50   39 1    
    80   42   40 1    
    81   79   40 1    
    82   80   40 1    
    83   43   42 2    
    84   46   42 1    
    85   44   43 1    
    86   81   43 1    
    87   45   44 1    
    88   46   45 2    
    89   47   45 1    
    90   48   47 1    
    91   49   47 1    
    92   82   47 1    
    93   89   48 1    
    94   90   48 1    
    95   91   48 1    
    96   92   49 1    
    97   93   49 1    
    98   94   49 1    
    99   95   50 1    
   100   96   50 1    
   101   97   50 1    
@<TRIPOS>SUBSTRUCTURE
     1 RIT600      1 GROUP   
@<TRIPOS>SET

