#    Name: 4dvi_2IW_2_INTS_M
#    Modification time : Tue Mar 25 10:14:05 2014

@<TRIPOS>MOLECULE
4dvi_2IW_2_INTS_M
   76     0     6     0     0
SMALL
NO_CHARGES


@<TRIPOS>ATOM
      1 CA         25.6150   45.2485    3.4905 C.3       2 GLC5        0.0000 
      2 CA         26.7520   45.4110    2.1860 C.3       6 GLL5        0.0000 
      3 CA         24.4780   45.0860    4.7950 C.3       4 GLP5        0.0000 
      4 N          25.3635   42.7260    2.7730 N.am      1 SEC2        0.0000 
      5 N          26.3090   43.0810    1.7930 N.am      5 SEL2        0.0000 
      6 N          24.4180   42.3710    3.7530 N.am      3 SEP2        0.0000 
      7 CA         24.8565   45.7240    2.3370 C.3       2 GLC5        0.0000 
      8 CA         26.1420   46.1150    0.9070 C.3       6 GLL5        0.0000 
      9 CA         23.5710   45.3330    3.7670 C.3       4 GLP5        0.0000 
     10 N          31.3815   45.8125    3.3415 N.am      1 SEC2        0.0000 
     11 N          30.3360   45.3850    2.0340 N.am      5 SEL2        0.0000 
     12 N          32.4270   46.2400    4.6490 N.am      3 SEP2        0.0000 
     13 N          31.4145   37.1650    2.9535 N.am      1 SEC2        0.0000 
     14 N          31.1120   38.1350    1.9100 N.am      5 SEL2        0.0000 
     15 N          31.7170   36.1950    3.9970 N.am      3 SEP2        0.0000 
     16 CA         27.3005   44.0105   -1.5985 C.3       2 GLC5        0.0000 
     17 CA         26.7890   45.5100   -0.3190 C.3       6 GLL5        0.0000 
     18 CA         27.8120   42.5110   -2.8780 C.3       4 GLP5        0.0000 
     19 CA         24.9080   47.0960    2.2335 C.3       2 GLC5        0.0000 
     20 CA         26.6180   47.5340    0.9390 C.3       6 GLL5        0.0000 
     21 CA         23.1980   46.6580    3.5280 C.3       4 GLP5        0.0000 
     22 CA         34.2665   39.4885    1.4220 C.3       2 GLC5        0.0000 
     23 CA         33.5400   38.2210    0.2230 C.3       6 GLL5        0.0000 
     24 CA         34.9930   40.7560    2.6210 C.3       4 GLP5        0.0000 
     25 CA         36.5420   34.6145   -0.9125 C.3       2 GLC5        0.0000 
     26 CA         35.4710   36.1130   -0.2710 C.3       6 GLL5        0.0000 
     27 CA         37.6130   33.1160   -1.5540 C.3       4 GLP5        0.0000 
     28 CA         32.6740   35.1015   -0.9355 C.3       2 GLC5        0.0000 
     29 CA         34.2430   35.7720    0.3990 C.3       6 GLL5        0.0000 
     30 CA         31.1050   34.4310   -2.2700 C.3       4 GLP5        0.0000 
     31 CA         34.9190   33.9505    0.0185 C.3       2 GLC5        0.0000 
     32 CA         35.5950   32.1290   -0.3620 C.3       4 GLP5        0.0000 
     33 CA         31.6815   35.8675    1.7190 C.3       2 GLC5        0.0000 
     34 CA         33.2860   36.8440    0.6380 C.3       6 GLL5        0.0000 
     35 CA         30.0770   34.8910    2.8000 C.3       4 GLP5        0.0000 
     36 CA         37.8700   34.9605   -1.6040 C.3       2 GLC5        0.0000 
     37 CA         38.1270   36.8050   -1.6540 C.3       6 GLL5        0.0000 
     38 CA         31.2190   40.6945   -1.6115 C.3       2 GLC5        0.0000 
     39 CA         30.1830   41.0360    0.2100 C.3       6 GLL5        0.0000 
     40 CA         32.2550   40.3530   -3.4330 C.3       4 GLP5        0.0000 
     41 CA         32.8400   40.5770    2.0170 C.3       2 GLC5        0.0000 
     42 CA         30.6870   40.3980    1.4130 C.3       6 GLL5        0.0000 
     43 CA         29.8418   47.3670    0.0663 C.3       2 GLC5        0.0000 
     44 CA         27.9180   46.2510   -0.3430 C.3       6 GLL5        0.0000 
     45 CA         31.6720   48.0100   -0.1430 C.3       4 GLP5        0.0000 
     46 CA         27.6493   49.1748    0.3017 C.3       2 GLC5        0.0000 
     47 CA         28.1050   47.1970    0.8940 C.3       6 GLL5        0.0000 
     48 CA         27.9370   50.9840   -0.3130 C.3       4 GLP5        0.0000 
     49 CA         25.1724   47.3316   -0.5418 C.3       2 GLC5        0.0000 
     50 CA         23.8030   47.9900   -1.7000 C.3       4 GLP5        0.0000 
     51 CA         33.2117   39.3700   -1.7772 C.3       2 GLC5        0.0000 
     52 CA         34.4243   37.4620   -1.9512 C.3       2 GLC5        0.0000 
     53 CA         34.7970   38.5530   -0.4660 C.3       6 GLL5        0.0000 
     54 CA         34.6800   36.5370   -3.7810 C.3       4 GLP5        0.0000 
     55 CA         31.7780   37.0858   -0.5652 C.3       2 GLC5        0.0000 
     56 CA         30.1430   36.6390   -1.5610 C.3       4 GLP5        0.0000 
     57 CA         35.8053   39.0580    0.8410 C.3       2 GLC5        0.0000 
     58 CA         35.8180   37.4490   -0.7200 C.3       6 GLL5        0.0000 
     59 CA         36.3030   40.1150    2.2750 C.3       4 GLP5        0.0000 
     60 CA         37.1204   39.9947    0.0916 C.3       2 GLC5        0.0000 
     61 CA         36.3880   40.2130   -1.5400 C.3       6 GLL5        0.0000 
     62 CA         37.4330   40.6380    1.7440 C.3       4 GLP5        0.0000 
     63 CA         34.8119   36.4068   -1.9146 C.3       2 GLC5        0.0000 
     64 CA         33.9488   36.3280    2.4197 C.3       2 GLC5        0.0000 
     65 CA         34.1330   36.3480    4.3210 C.3       4 GLP5        0.0000 
     66 CA         36.1786   37.0922   -2.6994 C.3       2 GLC5        0.0000 
     67 CA         37.0760   37.8110   -1.3770 C.3       6 GLL5        0.0000 
     68 CA         31.1435   42.6830    3.9238 C.3       2 GLC5        0.0000 
     69 CA         30.4800   40.8980    2.7620 C.3       6 GLL5        0.0000 
     70 CA         32.1860   43.8610    5.0160 C.3       4 GLP5        0.0000 
     71 CA         28.9740   40.5885    4.1377 C.3       2 GLC5        0.0000 
     72 CA         29.7220   42.1120    2.9010 C.3       6 GLL5        0.0000 
     73 CA         27.8470   39.6720    5.4440 C.3       4 GLP5        0.0000 
     74 CA         28.8075   42.0780   -1.3000 C.3       2 GLC5        0.0000 
     75 CA         29.7130   39.1645   -0.3683 C.3       2 GLC5        0.0000 
     76 CA         28.9910   37.6120   -1.5480 C.3       4 GLP5        0.0000 
@<TRIPOS>BOND
@<TRIPOS>SUBSTRUCTURE
     1 SEC2        4 GROUP        1 X    SEC  0     ROOT SEC X 2
     2 GLC5        1 GROUP        1 X    GLC  0     **** GLC X 6
     3 SEP2        6 GROUP        1 Y    SEP  0     ROOT SEP Y 9
     4 GLP5        3 GROUP        1 Y    GLP  0     **** GLP Y 13
     5 SEL2        5 GROUP        1 Z    SEL  0     ROOT SEL Z 16
     6 GLL5        2 GROUP        1 Z    GLL  0     **** GLL Z 20
@<TRIPOS>SET

