#    Name: 4dvi_2IW_2_ligand
#    Modification time : Tue Mar 25 10:14:05 2014

@<TRIPOS>MOLECULE
4dvi_2IW_2_ligand
   53    58     1     0     0
SMALL
NO_CHARGES


@<TRIPOS>ATOM
      1 C1         26.7520   45.4110    2.1860 C.3       1 2IW1402     0.0000 
      2 N1         28.5180   43.9020    1.8590 N.am      1 2IW1402     0.0000 
      3 O1         26.3090   43.0810    1.7930 O.2       1 2IW1402     0.0000 
      4 C2         26.1420   46.1150    0.9070 C.3       1 2IW1402     0.0000 
      5 N2         35.1830   39.8600   -0.9090 N.ar      1 2IW1402     0.0000 
      6 O2         30.3360   45.3850    2.0340 O.2       1 2IW1402     0.0000 
      7 C3         28.0790   46.1910    2.1500 C.3       1 2IW1402     0.0000 
      8 N3         32.6130   39.2230    0.5100 N.am      1 2IW1402     0.0000 
      9 O3         31.1120   38.1350    1.9100 O.2       1 2IW1402     0.0000 
     10 C4         27.1480   43.9660    1.9200 C.2       1 2IW1402     0.0000 
     11 C5         29.1430   45.1180    2.0010 C.2       1 2IW1402     0.0000 
     12 C6         28.1050   47.1970    0.8940 C.3       1 2IW1402     0.0000 
     13 C7         26.7890   45.5100   -0.3190 C.2       1 2IW1402     0.0000 
     14 C8         26.6180   47.5340    0.9390 C.3       1 2IW1402     0.0000 
     15 C9         27.9180   46.2510   -0.3430 C.2       1 2IW1402     0.0000 
     16 C10        33.5400   38.2210    0.2230 C.ar      1 2IW1402     0.0000 
     17 C11        31.4740   39.1520    1.3080 C.2       1 2IW1402     0.0000 
     18 C12        37.3790   39.1690   -1.7860 C.ar      1 2IW1402     0.0000 
     19 C13        37.0760   37.8110   -1.3770 C.ar      1 2IW1402     0.0000 
     20 C14        35.8180   37.4490   -0.7200 C.ar      1 2IW1402     0.0000 
     21 C15        34.7970   38.5530   -0.4660 C.ar      1 2IW1402     0.0000 
     22 C16        36.3880   40.2130   -1.5400 C.ar      1 2IW1402     0.0000 
     23 C17        35.4710   36.1130   -0.2710 C.ar      1 2IW1402     0.0000 
     24 C18        34.2430   35.7720    0.3990 C.ar      1 2IW1402     0.0000 
     25 C19        33.2860   36.8440    0.6380 C.ar      1 2IW1402     0.0000 
     26 C20        38.1270   36.8050   -1.6540 C.3       1 2IW1402     0.0000 
     27 C21        30.4800   40.8980    2.7620 C.ar      1 2IW1402     0.0000 
     28 C22        29.7220   42.1120    2.9010 C.ar      1 2IW1402     0.0000 
     29 C23        29.2170   42.7560    1.6910 C.ar      1 2IW1402     0.0000 
     30 C24        29.4230   42.2540    0.3460 C.ar      1 2IW1402     0.0000 
     31 C25        30.1830   41.0360    0.2100 C.ar      1 2IW1402     0.0000 
     32 C26        30.6870   40.3980    1.4130 C.ar      1 2IW1402     0.0000 
     33 H          26.2462   45.6075    2.9917 H         1 2IW1402     0.0000 
     34 H          25.1330   46.0373    0.9001 H         1 2IW1402     0.0000 
     35 H          28.2073   46.7251    3.0327 H         1 2IW1402     0.0000 
     36 H          32.8067   40.1902    0.0476 H         1 2IW1402     0.0000 
     37 H          28.6807   47.8369    0.8707 H         1 2IW1402     0.0000 
     38 H          26.4422   44.8675   -0.8001 H         1 2IW1402     0.0000 
     39 H          26.3885   47.9798    1.8446 H         1 2IW1402     0.0000 
     40 H          26.3471   48.0336    0.0739 H         1 2IW1402     0.0000 
     41 H          28.6185   46.2745   -1.0155 H         1 2IW1402     0.0000 
     42 H          38.2457   39.3902   -2.2268 H         1 2IW1402     0.0000 
     43 H          36.5871   41.1550   -1.8250 H         1 2IW1402     0.0000 
     44 H          36.1611   35.3515   -0.4479 H         1 2IW1402     0.0000 
     45 H          34.0486   34.8446    0.6899 H         1 2IW1402     0.0000 
     46 H          32.4070   36.6267    1.1118 H         1 2IW1402     0.0000 
     47 H          30.8474   40.4189    3.5451 H         1 2IW1402     0.0000 
     48 H          29.5402   42.5121    3.7953 H         1 2IW1402     0.0000 
     49 H          29.0571   42.7285   -0.4400 H         1 2IW1402     0.0000 
     50 H          30.3608   40.6375   -0.6875 H         1 2IW1402     0.0000 
     51 H          38.9854   37.0278   -1.1919 H         1 2IW1402     0.0000 
     52 H          37.8574   35.8922   -1.3474 H         1 2IW1402     0.0000 
     53 H          38.3289   36.7382   -2.6311 H         1 2IW1402     0.0000 
@<TRIPOS>BOND
     1    4    1 1    
     2    7    1 1    
     3   10    1 1    
     4   33    1 1    
     5   10    2 am   
     6   11    2 am   
     7   29    2 1    
     8   10    3 2    
     9   13    4 1    
    10   14    4 1    
    11   34    4 1    
    12   21    5 ar   
    13   22    5 ar   
    14   11    6 2    
    15   11    7 1    
    16   12    7 1    
    17   35    7 1    
    18   16    8 1    
    19   17    8 am   
    20   36    8 1    
    21   17    9 2    
    22   14   12 1    
    23   15   12 1    
    24   37   12 1    
    25   15   13 2    
    26   38   13 1    
    27   39   14 1    
    28   40   14 1    
    29   41   15 1    
    30   21   16 ar   
    31   25   16 ar   
    32   32   17 1    
    33   19   18 ar   
    34   22   18 ar   
    35   42   18 1    
    36   20   19 ar   
    37   26   19 1    
    38   21   20 ar   
    39   23   20 ar   
    40   43   22 1    
    41   24   23 ar   
    42   44   23 1    
    43   25   24 ar   
    44   45   24 1    
    45   46   25 1    
    46   51   26 1    
    47   52   26 1    
    48   53   26 1    
    49   28   27 ar   
    50   32   27 ar   
    51   47   27 1    
    52   29   28 ar   
    53   48   28 1    
    54   30   29 ar   
    55   31   30 ar   
    56   49   30 1    
    57   32   31 ar   
    58   50   31 1    
@<TRIPOS>SUBSTRUCTURE
     1 2IW1402     1 GROUP   
@<TRIPOS>SET

