#    Name: 3gvh_NAD_2_INTS_M
#    Modification time : Tue Mar 25 13:00:48 2014

@<TRIPOS>MOLECULE
3gvh_NAD_2_INTS_M
   72     0     9     0     0
SMALL
NO_CHARGES


@<TRIPOS>ATOM
      1 N          -7.4050    9.2155   24.8090 N.am      2 SEC2        0.0000 
      2 N          -6.0970   10.2610   25.1830 N.am      8 SEL2        0.0000 
      3 N          -8.7130    8.1700   24.4350 N.am      5 SEP2        0.0000 
      4 CA         -8.4355   13.8630   20.9590 C.3       3 GLC5        0.0000 
      5 CA         -6.5070   13.5020   21.9720 C.3       9 GLL5        0.0000 
      6 CA        -10.3640   14.2240   19.9460 C.3       6 GLP5        0.0000 
      7 CA         -7.3190   11.5285   22.2690 C.3       3 GLC5        0.0000 
      8 CA         -8.1310    9.5550   22.5660 C.3       6 GLP5        0.0000 
      9 O          -6.4595   12.2085   19.5695 O.2       1 ALC1        0.0000 
     10 O          -5.5390   11.6860   20.6250 O.2       7 ALL1        0.0000 
     11 O          -7.3800   12.7310   18.5140 O.2       4 ALP1        0.0000 
     12 O          -4.7200   13.3450   18.3915 O.2       1 ALC1        0.0000 
     13 O          -3.7960   13.3840   19.5310 O.2       7 ALL1        0.0000 
     14 O          -5.6440   13.3060   17.2520 O.2       4 ALP1        0.0000 
     15 CA         -3.8805   17.8385   17.9070 C.3       3 GLC5        0.0000 
     16 CA         -5.2670   18.2000   19.1040 C.3       9 GLL5        0.0000 
     17 CA         -2.4940   17.4770   16.7100 C.3       6 GLP5        0.0000 
     18 CA         -5.2245   18.5975   16.4410 C.3       3 GLC5        0.0000 
     19 CA         -5.7620   19.1040   18.1720 C.3       9 GLL5        0.0000 
     20 CA         -4.6870   18.0910   14.7100 C.3       6 GLP5        0.0000 
     21 CA         -7.6560   15.7860   16.4295 C.3       3 GLC5        0.0000 
     22 CA         -7.2290   17.4570   17.3820 C.3       9 GLL5        0.0000 
     23 CA         -8.0830   14.1150   15.4770 C.3       6 GLP5        0.0000 
     24 CA         -5.9580   17.7740   16.0460 C.3       3 GLC5        0.0000 
     25 CA         -8.0380   18.0235   19.1435 C.3       3 GLC5        0.0000 
     26 CA         -8.8470   18.5900   20.9050 C.3       6 GLP5        0.0000 
     27 CA         -4.6390   16.6805   17.6390 C.3       3 GLC5        0.0000 
     28 CA         -5.8140   16.9220   19.1120 C.3       9 GLL5        0.0000 
     29 CA         -3.4640   16.4390   16.1660 C.3       6 GLP5        0.0000 
     30 N         -10.0300   10.2585   25.8615 N.am      2 SEC2        0.0000 
     31 N          -8.9600   11.5020   25.9470 N.am      8 SEL2        0.0000 
     32 N         -11.1000    9.0150   25.7760 N.am      5 SEP2        0.0000 
     33 CA        -10.3025   13.3540   27.8840 C.3       3 GLC5        0.0000 
     34 CA         -8.8040   14.5080   26.8940 C.3       9 GLL5        0.0000 
     35 CA        -11.8010   12.2000   28.8740 C.3       6 GLP5        0.0000 
     36 CA        -10.3415   14.7025   25.5965 C.3       3 GLC5        0.0000 
     37 CA        -11.8790   14.8970   24.2990 C.3       6 GLP5        0.0000 
     38 CA        -10.4200   16.0915   25.9470 C.3       3 GLC5        0.0000 
     39 CA         -9.1000   15.7760   27.7090 C.3       9 GLL5        0.0000 
     40 CA        -11.7400   16.4070   24.1850 C.3       6 GLP5        0.0000 
     41 CA         -9.9140   17.8560   27.7065 C.3       3 GLC5        0.0000 
     42 CA        -10.7280   19.9360   27.7040 C.3       6 GLP5        0.0000 
     43 N          -8.6150   19.0565   29.1285 N.am      2 SEC2        0.0000 
     44 N          -7.7830   17.7040   28.5270 N.am      8 SEL2        0.0000 
     45 N          -9.4470   20.4090   29.7300 N.am      5 SEP2        0.0000 
     46 N          -8.5060   17.3615   31.8545 N.am      2 SEC2        0.0000 
     47 N          -7.7000   16.5790   31.0230 N.am      8 SEL2        0.0000 
     48 N          -9.3120   18.1440   32.6860 N.am      5 SEP2        0.0000 
     49 CA        -10.8195   14.1310   29.3835 C.3       3 GLC5        0.0000 
     50 CA         -9.8380   16.0620   29.8930 C.3       9 GLL5        0.0000 
     51 CA        -11.7770   16.1040   29.3530 C.3       3 GLC5        0.0000 
     52 CA        -13.7160   16.1460   28.8130 C.3       6 GLP5        0.0000 
     53 CA        -14.5630   15.6160   32.0920 C.3       3 GLC5        0.0000 
     54 CA        -12.4910   15.9170   32.4970 C.3       9 GLL5        0.0000 
     55 CA        -16.6350   15.3150   31.6870 C.3       6 GLP5        0.0000 
     56 O         -13.1615   18.3305   31.0230 O.2       1 ALC1        0.0000 
     57 O         -13.9160   17.9960   32.4830 O.2       7 ALL1        0.0000 
     58 O         -12.4070   18.6650   29.5630 O.2       4 ALP1        0.0000 
     59 O         -15.3730   18.4285   32.3085 O.2       1 ALC1        0.0000 
     60 O         -16.8300   18.8610   32.1340 O.2       4 ALP1        0.0000 
     61 CA         -6.2557   20.2510   19.8285 C.3       3 GLC5        0.0000 
     62 CA         -6.9970   21.8500   21.0190 C.3       6 GLP5        0.0000 
     63 CA         -7.2556   18.1885   19.8900 C.3       3 GLC5        0.0000 
     64 CA        -12.8935   16.1300   30.3968 C.3       3 GLC5        0.0000 
     65 CA        -11.6510   16.3110   31.4640 C.3       9 GLL5        0.0000 
     66 CA        -13.7188   14.4790   34.0880 C.3       3 GLC5        0.0000 
     67 CA        -15.0540   13.6620   35.4020 C.3       6 GLP5        0.0000 
     68 CA        -12.8382   12.6175   32.6773 C.3       3 GLC5        0.0000 
     69 CA        -12.2760   14.6750   33.0510 C.3       9 GLL5        0.0000 
     70 CA        -13.9180   10.9610   32.5420 C.3       6 GLP5        0.0000 
     71 CA        -11.3173   13.1495   30.4647 C.3       3 GLC5        0.0000 
     72 CA        -11.2410   13.8730   32.5740 C.3       9 GLL5        0.0000 
@<TRIPOS>BOND
@<TRIPOS>SUBSTRUCTURE
     1 ALC1        9 GROUP        1 X    ALC  0     ROOT ALC X 1
     2 SEC2        1 GROUP        1 X    SEC  0     **** SEC X 2
     3 GLC5        4 GROUP        1 X    GLC  0     **** GLC X 6
     4 ALP1       11 GROUP        1 Y    ALP  0     ROOT ALP Y 8
     5 SEP2        3 GROUP        1 Y    SEP  0     **** SEP Y 9
     6 GLP5        6 GROUP        1 Y    GLP  0     **** GLP Y 13
     7 ALL1       10 GROUP        1 Z    ALL  0     ROOT ALL Z 15
     8 SEL2        2 GROUP        1 Z    SEL  0     **** SEL Z 16
     9 GLL5        5 GROUP        1 Z    GLL  0     **** GLL Z 20
@<TRIPOS>SET

