#    Name: 3gvh_NAD_2_ligand
#    Modification time : Tue Mar 25 13:00:48 2014

@<TRIPOS>MOLECULE
3gvh_NAD_2_ligand
   70    74     1     0     0
SMALL
NO_CHARGES


@<TRIPOS>ATOM
      1 PA         -6.0000   11.7920   25.2510 P.3       1 NAD400      0.0000 
      2 O1A        -4.6500   12.4640   25.1400 O.co2     1 NAD400      0.0000 
      3 O2A        -6.0970   10.2610   25.1830 O.co2     1 NAD400      0.0000 
      4 O5B        -6.9330   12.4790   24.1290 O.3       1 NAD400      0.0000 
      5 C5B        -6.5430   13.6880   23.4840 C.3       1 NAD400      0.0000 
      6 C4B        -6.5070   13.5020   21.9720 C.3       1 NAD400      0.0000 
      7 O4B        -6.5520   14.7970   21.3690 O.3       1 NAD400      0.0000 
      8 C3B        -5.2320   12.8150   21.4620 C.3       1 NAD400      0.0000 
      9 O3B        -5.5390   11.6860   20.6250 O.3       1 NAD400      0.0000 
     10 C2B        -4.4750   13.8870   20.6890 C.3       1 NAD400      0.0000 
     11 O2B        -3.7960   13.3840   19.5310 O.3       1 NAD400      0.0000 
     12 C1B        -5.5960   14.8400   20.3130 C.3       1 NAD400      0.0000 
     13 N9A        -5.2010   16.2380   20.0690 N.pl3     1 NAD400      0.0000 
     14 C8A        -4.2840   17.0190   20.6730 C.2       1 NAD400      0.0000 
     15 N7A        -4.3150   18.2390   20.0780 N.2       1 NAD400      0.0000 
     16 C5A        -5.2670   18.2000   19.1040 C.ar      1 NAD400      0.0000 
     17 C6A        -5.7620   19.1040   18.1720 C.ar      1 NAD400      0.0000 
     18 N6A        -5.2810   20.3570   18.0910 N.pl3     1 NAD400      0.0000 
     19 N1A        -6.7410   18.7140   17.3390 N.ar      1 NAD400      0.0000 
     20 C2A        -7.2290   17.4570   17.3820 C.ar      1 NAD400      0.0000 
     21 N3A        -6.7850   16.5500   18.2430 N.ar      1 NAD400      0.0000 
     22 C4A        -5.8140   16.9220   19.1120 C.ar      1 NAD400      0.0000 
     23 O3         -6.6470   12.3100   26.6470 O.3       1 NAD400      0.0000 
     24 PN         -8.1480   11.9290   27.1520 P.3       1 NAD400      0.0000 
     25 O1N        -8.0260   10.9770   28.3380 O.co2     1 NAD400      0.0000 
     26 O2N        -8.9600   11.5020   25.9470 O.co2     1 NAD400      0.0000 
     27 O5D        -8.7010   13.3430   27.7160 O.3       1 NAD400      0.0000 
     28 C5D        -8.8040   14.5080   26.8940 C.3       1 NAD400      0.0000 
     29 C4D        -9.1000   15.7760   27.7090 C.3       1 NAD400      0.0000 
     30 O4D       -10.2000   15.5360   28.6030 O.3       1 NAD400      0.0000 
     31 C3D        -7.9240   16.2670   28.5680 C.3       1 NAD400      0.0000 
     32 O3D        -7.7830   17.7040   28.5270 O.3       1 NAD400      0.0000 
     33 C2D        -8.3310   15.8230   29.9710 C.3       1 NAD400      0.0000 
     34 O2D        -7.7000   16.5790   31.0230 O.3       1 NAD400      0.0000 
     35 C1D        -9.8380   16.0620   29.8930 C.3       1 NAD400      0.0000 
     36 N1N       -10.6530   15.5280   31.0010 N.pl3     1 NAD400      0.0000 
     37 C2N       -11.6510   16.3110   31.4640 C.ar      1 NAD400      0.0000 
     38 C3N       -12.4910   15.9170   32.4970 C.ar      1 NAD400      0.0000 
     39 C7N       -13.6240   16.7950   32.9950 C.2       1 NAD400      0.0000 
     40 O7N       -14.3160   16.3550   33.8880 O.2       1 NAD400      0.0000 
     41 N7N       -13.9160   17.9960   32.4830 N.am      1 NAD400      0.0000 
     42 C4N       -12.2760   14.6750   33.0510 C.ar      1 NAD400      0.0000 
     43 C5N       -11.2410   13.8730   32.5740 C.ar      1 NAD400      0.0000 
     44 C6N       -10.4260   14.3250   31.5370 C.ar      1 NAD400      0.0000 
     45 H          -5.5426   14.0158   23.8048 H         1 NAD400      0.0000 
     46 H          -7.2413   14.5098   23.7036 H         1 NAD400      0.0000 
     47 H          -7.3559   12.9183   21.6671 H         1 NAD400      0.0000 
     48 H          -4.6432   12.5451   22.3172 H         1 NAD400      0.0000 
     49 H          -3.8370   14.3966   21.3764 H         1 NAD400      0.0000 
     50 H          -6.0719   14.4360   19.4024 H         1 NAD400      0.0000 
     51 H          -3.7065   16.7631   21.3982 H         1 NAD400      0.0000 
     52 H          -4.5520   20.5909   18.7343 H         1 NAD400      0.0000 
     53 H          -5.6952   20.9432   17.3947 H         1 NAD400      0.0000 
     54 H          -7.9971   17.1926   16.6973 H         1 NAD400      0.0000 
     55 H          -9.6091   14.4048   26.1421 H         1 NAD400      0.0000 
     56 H          -7.8703   14.6905   26.3291 H         1 NAD400      0.0000 
     57 H          -9.3614   16.5760   27.0188 H         1 NAD400      0.0000 
     58 H          -7.0586   15.7402   28.2892 H         1 NAD400      0.0000 
     59 H          -8.1791   14.7717   30.0328 H         1 NAD400      0.0000 
     60 H          -9.9591   17.1690   29.8413 H         1 NAD400      0.0000 
     61 H         -11.8115   17.2596   31.0359 H         1 NAD400      0.0000 
     62 H         -13.3302   18.3101   31.7359 H         1 NAD400      0.0000 
     63 H         -14.6939   18.4719   32.8933 H         1 NAD400      0.0000 
     64 H         -12.8738   14.3331   33.8154 H         1 NAD400      0.0000 
     65 H         -11.0778   12.9459   32.9875 H         1 NAD400      0.0000 
     66 H          -9.6608   13.7160   31.2048 H         1 NAD400      0.0000 
     67 H          -6.1899   12.0337   19.9502 H         1 NAD400      0.0000 
     68 H          -4.4893   13.3698   18.8105 H         1 NAD400      0.0000 
     69 H          -6.8269   17.8632   28.2807 H         1 NAD400      0.0000 
     70 H          -7.4893   17.4666   30.6132 H         1 NAD400      0.0000 
@<TRIPOS>BOND
     1    2    1 ar   
     2    3    1 ar   
     3    4    1 1    
     4   23    1 1    
     5    5    4 1    
     6    6    5 1    
     7   45    5 1    
     8   46    5 1    
     9    7    6 1    
    10    8    6 1    
    11   47    6 1    
    12   12    7 1    
    13    9    8 1    
    14   10    8 1    
    15   48    8 1    
    16   67    9 1    
    17   11   10 1    
    18   12   10 1    
    19   49   10 1    
    20   68   11 1    
    21   13   12 1    
    22   50   12 1    
    23   14   13 1    
    24   22   13 1    
    25   15   14 2    
    26   51   14 1    
    27   16   15 1    
    28   17   16 ar   
    29   22   16 ar   
    30   18   17 1    
    31   19   17 ar   
    32   52   18 1    
    33   53   18 1    
    34   20   19 ar   
    35   21   20 ar   
    36   54   20 1    
    37   22   21 ar   
    38   24   23 1    
    39   25   24 ar   
    40   26   24 ar   
    41   27   24 1    
    42   28   27 1    
    43   29   28 1    
    44   55   28 1    
    45   56   28 1    
    46   30   29 1    
    47   31   29 1    
    48   57   29 1    
    49   35   30 1    
    50   32   31 1    
    51   33   31 1    
    52   58   31 1    
    53   69   32 1    
    54   34   33 1    
    55   35   33 1    
    56   59   33 1    
    57   70   34 1    
    58   36   35 1    
    59   60   35 1    
    60   37   36 ar   
    61   44   36 ar   
    62   38   37 ar   
    63   61   37 1    
    64   39   38 1    
    65   42   38 ar   
    66   40   39 2    
    67   41   39 am   
    68   62   41 1    
    69   63   41 1    
    70   43   42 ar   
    71   64   42 1    
    72   44   43 ar   
    73   65   43 1    
    74   66   44 1    
@<TRIPOS>SUBSTRUCTURE
     1 NAD400      1 GROUP   
@<TRIPOS>SET

