#    Name: 3uel_A1R_3_INTS_M
#    Modification time : Mon Mar 24 22:15:35 2014

@<TRIPOS>MOLECULE
3uel_A1R_3_INTS_M
   73     0     9     0     0
SMALL
NO_CHARGES


@<TRIPOS>ATOM
      1 CA         93.4905  -40.2320   34.6445 C.3       3 GLC5        0.0000 
      2 CA         94.1280  -40.9020   36.3550 C.3       9 GLL5        0.0000 
      3 CA         92.8530  -39.5620   32.9340 C.3       6 GLP5        0.0000 
      4 CA         94.7340  -42.3330   34.7605 C.3       3 GLC5        0.0000 
      5 CA         95.3400  -43.7640   33.1660 C.3       6 GLP5        0.0000 
      6 CA         95.2940  -42.3525   37.6065 C.3       3 GLC5        0.0000 
      7 CA         96.4600  -43.8030   38.8580 C.3       6 GLP5        0.0000 
      8 CA         95.1625  -42.2475   38.7605 C.3       3 GLC5        0.0000 
      9 CA         93.8650  -40.6920   38.6630 C.3       9 GLL5        0.0000 
     10 O          95.8830  -36.7615   35.7755 O.2       1 ALC1        0.0000 
     11 O          95.4030  -37.5850   37.1440 O.2       7 ALL1        0.0000 
     12 O          96.3630  -35.9380   34.4070 O.2       4 ALP1        0.0000 
     13 CA         91.4755  -41.2045   39.1895 C.3       3 GLC5        0.0000 
     14 CA         92.9930  -42.1820   40.4230 C.3       9 GLL5        0.0000 
     15 CA         89.9580  -40.2270   37.9560 C.3       6 GLP5        0.0000 
     16 CA         91.8435  -43.7800   40.0465 C.3       3 GLC5        0.0000 
     17 CA         90.6940  -45.3780   39.6700 C.3       6 GLP5        0.0000 
     18 O          90.7650  -44.4650   43.9585 O.2       1 ALC1        0.0000 
     19 O          92.0890  -43.9760   43.1800 O.2       7 ALL1        0.0000 
     20 O          89.4410  -44.9540   44.7370 O.2       4 ALP1        0.0000 
     21 CA         90.5045  -41.3095   39.8275 C.3       3 GLC5        0.0000 
     22 CA         91.0510  -42.3920   41.6990 C.3       9 GLL5        0.0000 
     23 CA         89.7220  -40.2735   40.4235 C.3       3 GLC5        0.0000 
     24 CA         90.0870  -41.2910   42.1260 C.3       9 GLL5        0.0000 
     25 CA         89.3570  -39.2560   38.7210 C.3       6 GLP5        0.0000 
     26 N          91.2210  -36.3560   42.3405 N.am      2 SEC2        0.0000 
     27 N          90.1100  -37.5050   42.5540 N.am      8 SEL2        0.0000 
     28 N          92.3320  -35.2070   42.1270 N.am      5 SEP2        0.0000 
     29 N          91.6480  -37.9600   43.1945 N.am      2 SEC2        0.0000 
     30 N          93.1860  -38.4150   43.8350 N.am      5 SEP2        0.0000 
     31 N          89.2550  -39.8600   45.6765 N.am      2 SEC2        0.0000 
     32 N          89.8640  -39.3040   44.4590 N.am      8 SEL2        0.0000 
     33 N          88.6460  -40.4160   46.8940 N.am      5 SEP2        0.0000 
     34 N          87.7530  -41.7790   44.5095 N.am      2 SEC2        0.0000 
     35 N          87.0290  -40.6370   44.2330 N.am      8 SEL2        0.0000 
     36 N          88.4770  -42.9210   44.7860 N.am      5 SEP2        0.0000 
     37 N          86.4680  -40.5910   45.5740 N.am      2 SEC2        0.0000 
     38 N          85.9070  -40.5450   46.9150 N.am      5 SEP2        0.0000 
     39 CA         84.8670  -37.6715   45.1375 C.3       3 GLC5        0.0000 
     40 CA         86.0020  -37.0740   43.9020 C.3       9 GLL5        0.0000 
     41 CA         83.7320  -38.2690   46.3730 C.3       6 GLP5        0.0000 
     42 CA         89.2675  -34.5830   44.3015 C.3       3 GLC5        0.0000 
     43 CA         87.8170  -34.2320   43.6830 C.3       9 GLL5        0.0000 
     44 CA         90.7180  -34.9340   44.9200 C.3       6 GLP5        0.0000 
     45 O          85.9390  -31.9470   42.4260 O.2       1 ALC1        0.0000 
     46 O          86.1680  -32.3360   43.7710 O.2       7 ALL1        0.0000 
     47 O          85.7100  -31.5580   41.0810 O.2       4 ALP1        0.0000 
     48 CA         85.2880  -33.8975   41.4195 C.3       3 GLC5        0.0000 
     49 CA         86.4050  -33.7040   43.3610 C.3       9 GLL5        0.0000 
     50 CA         84.1710  -34.0910   39.4780 C.3       6 GLP5        0.0000 
     51 N          83.1760  -33.2515   45.3100 N.am      2 SEC2        0.0000 
     52 N          84.5340  -33.9630   44.9320 N.am      8 SEL2        0.0000 
     53 N          81.8180  -32.5400   45.6880 N.am      5 SEP2        0.0000 
     54 CA         83.8505  -35.6530   44.6710 C.3       3 GLC5        0.0000 
     55 CA         85.4020  -34.6570   44.0180 C.3       9 GLL5        0.0000 
     56 CA         82.2990  -36.6490   45.3240 C.3       6 GLP5        0.0000 
     57 CA         87.1125  -37.0035   46.2095 C.3       3 GLC5        0.0000 
     58 CA         86.2320  -35.7900   44.6410 C.3       9 GLL5        0.0000 
     59 CA         87.9930  -38.2170   47.7780 C.3       6 GLP5        0.0000 
     60 CA         84.7210  -36.3870   45.4760 C.3       3 GLC5        0.0000 
     61 CA         83.2100  -36.9840   46.3110 C.3       6 GLP5        0.0000 
     62 CA         93.1611  -38.1169   38.3300 C.3       3 GLC5        0.0000 
     63 CA         94.8590  -38.8330   37.2900 C.3       9 GLL5        0.0000 
     64 CA         91.8170  -36.8080   38.6960 C.3       6 GLP5        0.0000 
     65 CA         94.8377  -43.0840   39.9963 C.3       3 GLC5        0.0000 
     66 CA         91.1583  -43.9483   40.9288 C.3       3 GLC5        0.0000 
     67 CA         92.1940  -42.6450   42.6760 C.3       9 GLL5        0.0000 
     68 CA         90.1639  -42.1149   43.9139 C.3       3 GLC5        0.0000 
     69 CA         89.4730  -42.3250   45.6710 C.3       6 GLP5        0.0000 
     70 CA         87.7665  -33.1675   41.9095 C.3       3 GLC5        0.0000 
     71 CA         88.4220  -32.3670   40.2970 C.3       6 GLP5        0.0000 
     72 CA         84.2537  -33.0763   43.5823 C.3       3 GLC5        0.0000 
     73 CA         82.6040  -31.9720   43.4750 C.3       6 GLP5        0.0000 
@<TRIPOS>BOND
@<TRIPOS>SUBSTRUCTURE
     1 ALC1       10 GROUP        1 X    ALC  0     ROOT ALC X 1
     2 SEC2       26 GROUP        1 X    SEC  0     **** SEC X 2
     3 GLC5        1 GROUP        1 X    GLC  0     **** GLC X 6
     4 ALP1       12 GROUP        1 Y    ALP  0     ROOT ALP Y 8
     5 SEP2       28 GROUP        1 Y    SEP  0     **** SEP Y 9
     6 GLP5        3 GROUP        1 Y    GLP  0     **** GLP Y 13
     7 ALL1       11 GROUP        1 Z    ALL  0     ROOT ALL Z 15
     8 SEL2       27 GROUP        1 Z    SEL  0     **** SEL Z 16
     9 GLL5        2 GROUP        1 Z    GLL  0     **** GLL Z 20
@<TRIPOS>SET

