#    Name: 3uel_A1R_3_ligand
#    Modification time : Mon Mar 24 22:15:35 2014

@<TRIPOS>MOLECULE
3uel_A1R_3_ligand
   56    59     1     0     0
SMALL
NO_CHARGES


@<TRIPOS>ATOM
      1 N1         94.6650  -39.6640   36.2360 N.ar      1 A1R1001     0.0000 
      2 C2         94.1280  -40.9020   36.3550 C.ar      1 A1R1001     0.0000 
      3 N3         93.7330  -41.4180   37.5280 N.ar      1 A1R1001     0.0000 
      4 C4         93.8650  -40.6920   38.6630 C.ar      1 A1R1001     0.0000 
      5 C5         94.4380  -39.3450   38.6130 C.ar      1 A1R1001     0.0000 
      6 C6         94.8590  -38.8330   37.2900 C.ar      1 A1R1001     0.0000 
      7 N6         95.4030  -37.5850   37.1440 N.pl3     1 A1R1001     0.0000 
      8 N7         94.4270  -38.8750   39.8710 N.2       1 A1R1001     0.0000 
      9 C8         93.9030  -39.8330   40.6650 C.2       1 A1R1001     0.0000 
     10 N9         93.5750  -40.9110   39.9370 N.pl3     1 A1R1001     0.0000 
     11 C1'        92.9930  -42.1820   40.4230 C.3       1 A1R1001     0.0000 
     12 C2'        93.4380  -42.5480   41.8460 C.3       1 A1R1001     0.0000 
     13 O2'        94.0430  -43.8400   41.8510 O.3       1 A1R1001     0.0000 
     14 C3'        92.1940  -42.6450   42.6760 C.3       1 A1R1001     0.0000 
     15 O3'        92.0890  -43.9760   43.1800 O.3       1 A1R1001     0.0000 
     16 O4'        91.5850  -42.0710   40.4080 O.3       1 A1R1001     0.0000 
     17 C4'        91.0510  -42.3920   41.6990 C.3       1 A1R1001     0.0000 
     18 C5'        90.0870  -41.2910   42.1260 C.3       1 A1R1001     0.0000 
     19 O5'        90.6760  -39.9950   42.2160 O.3       1 A1R1001     0.0000 
     20 PA         89.7910  -38.9150   43.0080 P.3       1 A1R1001     0.0000 
     21 O1A        90.1100  -37.5050   42.5540 O.co2     1 A1R1001     0.0000 
     22 O2A        89.8640  -39.3040   44.4590 O.co2     1 A1R1001     0.0000 
     23 O3A        88.3220  -39.2650   42.4800 O.3       1 A1R1001     0.0000 
     24 PB         86.9820  -39.3940   43.3630 P.3       1 A1R1001     0.0000 
     25 O1B        87.0290  -40.6370   44.2330 O.co2     1 A1R1001     0.0000 
     26 O2B        85.8610  -39.2080   42.3580 O.co2     1 A1R1001     0.0000 
     27 O5N        86.9660  -38.0530   44.2540 O.3       1 A1R1001     0.0000 
     28 C5N        86.0020  -37.0740   43.9020 C.3       1 A1R1001     0.0000 
     29 N4N        87.6070  -35.4590   44.4140 N.4       1 A1R1001     0.0000 
     30 C1N        87.8170  -34.2320   43.6830 C.3       1 A1R1001     0.0000 
     31 O2N        86.1680  -32.3360   43.7710 O.3       1 A1R1001     0.0000 
     32 C2N        86.4050  -33.7040   43.3610 C.3       1 A1R1001     0.0000 
     33 O3N        84.5340  -33.9630   44.9320 O.3       1 A1R1001     0.0000 
     34 C3N        85.4020  -34.6570   44.0180 C.3       1 A1R1001     0.0000 
     35 C4N        86.2320  -35.7900   44.6410 C.3       1 A1R1001     0.0000 
     36 H          94.0170  -41.4872   35.4741 H         1 A1R1001     0.0000 
     37 H          95.6941  -37.3372   36.2199 H         1 A1R1001     0.0000 
     38 H          95.4615  -37.0306   37.9742 H         1 A1R1001     0.0000 
     39 H          93.7818  -39.7485   41.6325 H         1 A1R1001     0.0000 
     40 H          93.3088  -42.9933   39.7656 H         1 A1R1001     0.0000 
     41 H          94.0613  -41.7949   42.2230 H         1 A1R1001     0.0000 
     42 H          92.1927  -41.9092   43.4131 H         1 A1R1001     0.0000 
     43 H          90.4696  -43.3260   41.6204 H         1 A1R1001     0.0000 
     44 H          89.6420  -41.6000   43.1021 H         1 A1R1001     0.0000 
     45 H          89.2355  -41.2973   41.4041 H         1 A1R1001     0.0000 
     46 H          84.9749  -37.4208   44.1263 H         1 A1R1001     0.0000 
     47 H          86.0269  -36.8557   42.8171 H         1 A1R1001     0.0000 
     48 H          88.3302  -34.3988   42.7534 H         1 A1R1001     0.0000 
     49 H          88.3227  -33.4910   44.2751 H         1 A1R1001     0.0000 
     50 H          86.2659  -33.8142   42.2757 H         1 A1R1001     0.0000 
     51 H          84.8292  -35.1062   43.1913 H         1 A1R1001     0.0000 
     52 H          86.0075  -35.8891   45.6506 H         1 A1R1001     0.0000 
     53 H          93.5397  -44.3587   42.5421 H         1 A1R1001     0.0000 
     54 H          91.1126  -44.1892   43.1461 H         1 A1R1001     0.0000 
     55 H          85.9753  -31.8416   42.9234 H         1 A1R1001     0.0000 
     56 H          84.9276  -33.0478   45.0181 H         1 A1R1001     0.0000 
@<TRIPOS>BOND
     1    2    1 ar   
     2    6    1 ar   
     3    3    2 ar   
     4   36    2 1    
     5    4    3 ar   
     6    5    4 ar   
     7   10    4 1    
     8    6    5 ar   
     9    8    5 1    
    10    7    6 1    
    11   37    7 1    
    12   38    7 1    
    13    9    8 2    
    14   10    9 1    
    15   39    9 1    
    16   11   10 1    
    17   12   11 1    
    18   16   11 1    
    19   40   11 1    
    20   13   12 1    
    21   14   12 1    
    22   41   12 1    
    23   53   13 1    
    24   15   14 1    
    25   17   14 1    
    26   42   14 1    
    27   54   15 1    
    28   17   16 1    
    29   18   17 1    
    30   43   17 1    
    31   19   18 1    
    32   44   18 1    
    33   45   18 1    
    34   20   19 1    
    35   21   20 ar   
    36   22   20 ar   
    37   23   20 1    
    38   24   23 1    
    39   25   24 ar   
    40   26   24 ar   
    41   27   24 1    
    42   28   27 1    
    43   35   28 1    
    44   46   28 1    
    45   47   28 1    
    46   30   29 1    
    47   35   29 1    
    48   32   30 1    
    49   48   30 1    
    50   49   30 1    
    51   32   31 1    
    52   55   31 1    
    53   34   32 1    
    54   50   32 1    
    55   34   33 1    
    56   56   33 1    
    57   35   34 1    
    58   51   34 1    
    59   52   35 1    
@<TRIPOS>SUBSTRUCTURE
     1 A1R1001     1 GROUP   
@<TRIPOS>SET

