#    Name: 1lik_ADN_2_INTS_M
#    Modification time : Mon Apr  7 14:05:49 2014

@<TRIPOS>MOLECULE
1lik_ADN_2_INTS_M
   44     0     9     0     0
SMALL
NO_CHARGES


@<TRIPOS>ATOM
      1 CA        150.9045   19.1675   -5.5660 C.3       3 GLC5        0.0000 
      2 CA        149.2140   17.8840   -5.4040 C.3       9 GLL5        0.0000 
      3 CA        152.5950   20.4510   -5.7280 C.3       6 GLP5        0.0000 
      4 CA        147.2455   17.4590   -5.4800 C.3       3 GLC5        0.0000 
      5 CA        145.2770   17.0340   -5.5560 C.3       6 GLP5        0.0000 
      6 CA        148.6140   16.3170   -2.9355 C.3       3 GLC5        0.0000 
      7 CA        149.6550   16.7330   -4.5110 C.3       9 GLL5        0.0000 
      8 CA        147.5730   15.9010   -1.3600 C.3       6 GLP5        0.0000 
      9 CA        151.4655   15.8300   -6.8755 C.3       3 GLC5        0.0000 
     10 CA        151.0790   16.2580   -4.7400 C.3       9 GLL5        0.0000 
     11 CA        151.8520   15.4020   -9.0110 C.3       6 GLP5        0.0000 
     12 O         153.1230   16.9210   -4.9725 O.2       1 ALC1        0.0000 
     13 O         151.9700   17.0300   -3.9310 O.2       7 ALL1        0.0000 
     14 O         154.2760   16.8120   -6.0140 O.2       4 ALP1        0.0000 
     15 O         152.1155   15.3470   -1.8250 O.2       1 ALC1        0.0000 
     16 O         151.1090   14.7770   -2.8240 O.2       7 ALL1        0.0000 
     17 O         153.1220   15.9170   -0.8260 O.2       4 ALP1        0.0000 
     18 CA        148.5840   15.1385   -3.0055 C.3       3 GLC5        0.0000 
     19 CA        149.5950   14.3760   -4.6510 C.3       9 GLL5        0.0000 
     20 CA        151.7690   10.9560   -8.3200 C.3       3 GLC5        0.0000 
     21 CA        150.1270   10.9770   -8.0160 C.3       9 GLL5        0.0000 
     22 CA        153.4110   10.9350   -8.6240 C.3       6 GLP5        0.0000 
     23 CA        148.7330    9.4460   -7.9415 C.3       3 GLC5        0.0000 
     24 CA        147.3390    7.9150   -7.8670 C.3       6 GLP5        0.0000 
     25 CA        152.1300   10.7015   -7.2420 C.3       3 GLC5        0.0000 
     26 CA        150.8490   10.4680   -5.8600 C.3       9 GLL5        0.0000 
     27 CA        152.4000   11.0825   -4.8560 C.3       3 GLC5        0.0000 
     28 CA        153.9510   11.6970   -3.8520 C.3       6 GLP5        0.0000 
     29 CA        150.1010    8.6170   -4.8315 C.3       3 GLC5        0.0000 
     30 CA        149.3530    6.7660   -3.8030 C.3       6 GLP5        0.0000 
     31 CA        148.7625   10.7040   -5.3275 C.3       3 GLC5        0.0000 
     32 CA        146.6760   10.9400   -4.7950 C.3       6 GLP5        0.0000 
     33 N         150.8705   11.2165   -3.7920 N.am      2 SEC2        0.0000 
     34 N         150.5240   11.6240   -5.2870 N.am      8 SEL2        0.0000 
     35 N         151.2170   10.8090   -2.2970 N.am      5 SEP2        0.0000 
     36 CA        152.6447   14.6840   -3.6242 C.3       3 GLC5        0.0000 
     37 CA        151.0020   14.8180   -4.2350 C.3       9 GLL5        0.0000 
     38 CA        154.2490   13.8300   -2.7610 C.3       6 GLP5        0.0000 
     39 CA        150.8540   13.8790   -7.9335 C.3       3 GLC5        0.0000 
     40 CA        149.9720   12.4690   -6.1840 C.3       9 GLL5        0.0000 
     41 CA        151.7575   12.3020   -7.4080 C.3       3 GLC5        0.0000 
     42 CA        149.7400   12.2430   -7.5280 C.3       9 GLL5        0.0000 
     43 CA        153.6590   12.2480   -7.9600 C.3       6 GLP5        0.0000 
     44 CA        148.2660   11.6480   -5.8255 C.3       3 GLC5        0.0000 
@<TRIPOS>BOND
@<TRIPOS>SUBSTRUCTURE
     1 ALC1       12 GROUP        1 X    ALC  0     ROOT ALC X 1
     2 SEC2       33 GROUP        1 X    SEC  0     **** SEC X 2
     3 GLC5        1 GROUP        1 X    GLC  0     **** GLC X 6
     4 ALP1       14 GROUP        1 Y    ALP  0     ROOT ALP Y 8
     5 SEP2       35 GROUP        1 Y    SEP  0     **** SEP Y 9
     6 GLP5        3 GROUP        1 Y    GLP  0     **** GLP Y 13
     7 ALL1       13 GROUP        1 Z    ALL  0     ROOT ALL Z 15
     8 SEL2       34 GROUP        1 Z    SEL  0     **** SEL Z 16
     9 GLL5        2 GROUP        1 Z    GLL  0     **** GLL Z 20
@<TRIPOS>SET

