#    Name: 1lik_ADN_2_ligand
#    Modification time : Mon Apr  7 14:05:50 2014

@<TRIPOS>MOLECULE
1lik_ADN_2_ligand
   32    34     1     0     0
SMALL
NO_CHARGES


@<TRIPOS>ATOM
      1 O5'       149.2040   17.4810   -6.7680 O.3       1 ADN799      0.0000 
      2 C5'       149.2140   17.8840   -5.4040 C.3       1 ADN799      0.0000 
      3 C4'       149.6550   16.7330   -4.5110 C.3       1 ADN799      0.0000 
      4 O4'       148.8200   15.5550   -4.7120 O.3       1 ADN799      0.0000 
      5 C3'       151.0790   16.2580   -4.7400 C.3       1 ADN799      0.0000 
      6 O3'       151.9700   17.0300   -3.9310 O.3       1 ADN799      0.0000 
      7 C2'       151.0020   14.8180   -4.2350 C.3       1 ADN799      0.0000 
      8 O2'       151.1090   14.7770   -2.8240 O.3       1 ADN799      0.0000 
      9 C1'       149.5950   14.3760   -4.6510 C.3       1 ADN799      0.0000 
     10 N9        149.5240   13.7410   -5.9520 N.pl3     1 ADN799      0.0000 
     11 C8        149.0420   14.2190   -7.1440 C.2       1 ADN799      0.0000 
     12 N7        149.1450   13.3520   -8.1280 N.2       1 ADN799      0.0000 
     13 C5        149.7400   12.2430   -7.5280 C.ar      1 ADN799      0.0000 
     14 C6        150.1270   10.9770   -8.0160 C.ar      1 ADN799      0.0000 
     15 N6        149.9620   10.5960   -9.2890 N.pl3     1 ADN799      0.0000 
     16 N1        150.6840   10.1030   -7.1370 N.ar      1 ADN799      0.0000 
     17 C2        150.8490   10.4680   -5.8600 C.ar      1 ADN799      0.0000 
     18 N3        150.5240   11.6240   -5.2870 N.ar      1 ADN799      0.0000 
     19 C4        149.9720   12.4690   -6.1840 C.ar      1 ADN799      0.0000 
     20 H         148.2171   18.2065   -5.0670 H         1 ADN799      0.0000 
     21 H         149.9037   18.7244   -5.2324 H         1 ADN799      0.0000 
     22 H         149.5741   17.0402   -3.4666 H         1 ADN799      0.0000 
     23 H         151.2839   16.2584   -5.7549 H         1 ADN799      0.0000 
     24 H         151.7020   14.2357   -4.7494 H         1 ADN799      0.0000 
     25 H         149.2114   13.7251   -3.8814 H         1 ADN799      0.0000 
     26 H         148.6575   15.1370   -7.2259 H         1 ADN799      0.0000 
     27 H         150.2479    9.6635   -9.5098 H         1 ADN799      0.0000 
     28 H         149.5677   11.2781   -9.9049 H         1 ADN799      0.0000 
     29 H         151.3129    9.7139   -5.2024 H         1 ADN799      0.0000 
     30 H         149.8245   18.1150   -7.2296 H         1 ADN799      0.0000 
     31 H         152.8182   17.0826   -4.4581 H         1 ADN799      0.0000 
     32 H         151.8157   15.4477   -2.5986 H         1 ADN799      0.0000 
@<TRIPOS>BOND
     1    2    1 1    
     2   30    1 1    
     3    3    2 1    
     4   20    2 1    
     5   21    2 1    
     6    4    3 1    
     7    5    3 1    
     8   22    3 1    
     9    9    4 1    
    10    6    5 1    
    11    7    5 1    
    12   23    5 1    
    13   31    6 1    
    14    8    7 1    
    15    9    7 1    
    16   24    7 1    
    17   32    8 1    
    18   10    9 1    
    19   25    9 1    
    20   11   10 1    
    21   19   10 1    
    22   12   11 2    
    23   26   11 1    
    24   13   12 1    
    25   14   13 ar   
    26   19   13 ar   
    27   15   14 1    
    28   16   14 ar   
    29   27   15 1    
    30   28   15 1    
    31   17   16 ar   
    32   18   17 ar   
    33   29   17 1    
    34   19   18 ar   
@<TRIPOS>SUBSTRUCTURE
     1 ADN799      1 GROUP   
@<TRIPOS>SET

