#    Name: 1sqp_MYX_1_INTS_M
#    Modification time : Tue Mar 25 02:39:54 2014

@<TRIPOS>MOLECULE
1sqp_MYX_1_INTS_M
   92     0     9     0     0
SMALL
NO_CHARGES


@<TRIPOS>ATOM
      1 N          65.2345   58.0180  168.3795 N.am      2 SEC2        0.0000 
      2 N          66.4770   58.6540  168.1130 N.am      8 SEL2        0.0000 
      3 N          63.9920   57.3820  168.6460 N.am      5 SEP2        0.0000 
      4 O          65.9780   61.3895  166.5455 O.2       1 ALC1        0.0000 
      5 O          67.0800   60.6070  167.2990 O.2       7 ALL1        0.0000 
      6 O          64.8760   62.1720  165.7920 O.2       4 ALP1        0.0000 
      7 CA         69.9820   60.4300  167.6090 C.3       3 GLC5        0.0000 
      8 CA         68.5770   59.5160  168.9290 C.3       9 GLL5        0.0000 
      9 CA         71.3870   61.3440  166.2890 C.3       6 GLP5        0.0000 
     10 CA         68.2660   61.2435  169.4745 C.3       3 GLC5        0.0000 
     11 CA         67.9550   62.9710  170.0200 C.3       6 GLP5        0.0000 
     12 CA         68.4155   58.4925  167.0720 C.3       3 GLC5        0.0000 
     13 CA         68.2540   57.4690  165.2150 C.3       6 GLP5        0.0000 
     14 CA         67.9390   59.9440  170.7625 C.3       3 GLC5        0.0000 
     15 CA         68.9790   58.5510  169.8500 C.3       9 GLL5        0.0000 
     16 CA         66.8990   61.3370  171.6750 C.3       6 GLP5        0.0000 
     17 CA         72.1360   59.4300  169.1445 C.3       3 GLC5        0.0000 
     18 CA         71.0910   59.8200  170.5010 C.3       9 GLL5        0.0000 
     19 CA         73.1810   59.0400  167.7880 C.3       6 GLP5        0.0000 
     20 CA         69.5230   61.3955  170.2605 C.3       3 GLC5        0.0000 
     21 CA         72.0685   61.2160  171.0110 C.3       3 GLC5        0.0000 
     22 CA         73.0460   62.6120  171.5210 C.3       6 GLP5        0.0000 
     23 CA         70.9185   58.1725  172.0100 C.3       3 GLC5        0.0000 
     24 CA         70.7460   56.5250  173.5190 C.3       6 GLP5        0.0000 
     25 CA         72.5830   59.0740  171.7225 C.3       3 GLC5        0.0000 
     26 CA         74.0750   58.3280  172.9440 C.3       6 GLP5        0.0000 
     27 CA         67.2330   59.3515  171.5890 C.3       3 GLC5        0.0000 
     28 CA         67.5670   57.3660  171.5030 C.3       9 GLL5        0.0000 
     29 CA         66.4855   57.5800  173.3370 C.3       3 GLC5        0.0000 
     30 CA         65.4040   57.7940  175.1710 C.3       6 GLP5        0.0000 
     31 CA         70.2020   55.2760  172.3310 C.3       3 GLC5        0.0000 
     32 CA         69.6580   54.0270  171.1430 C.3       9 GLL5        0.0000 
     33 CA         70.9435   52.7510  171.7060 C.3       3 GLC5        0.0000 
     34 CA         72.2290   51.4750  172.2690 C.3       6 GLP5        0.0000 
     35 CA         71.0455   53.6290  169.9215 C.3       3 GLC5        0.0000 
     36 CA         72.4330   53.2310  168.7000 C.3       6 GLP5        0.0000 
     37 CA         69.1655   53.3580  173.1355 C.3       3 GLC5        0.0000 
     38 CA         68.6730   52.6890  175.1280 C.3       6 GLP5        0.0000 
     39 CA         67.8970   53.7370  170.0965 C.3       3 GLC5        0.0000 
     40 CA         66.1360   53.4470  169.0500 C.3       6 GLP5        0.0000 
     41 CA         69.4510   52.1105  170.6215 C.3       3 GLC5        0.0000 
     42 CA         69.2440   50.1940  170.1000 C.3       6 GLP5        0.0000 
     43 CA         68.4920   51.9865  166.2210 C.3       3 GLC5        0.0000 
     44 CA         69.8170   53.6910  165.6560 C.3       9 GLL5        0.0000 
     45 CA         67.1670   50.2820  166.7860 C.3       6 GLP5        0.0000 
     46 CA         74.0860   56.0605  166.0105 C.3       3 GLC5        0.0000 
     47 CA         73.2610   56.8890  164.3330 C.3       9 GLL5        0.0000 
     48 CA         74.9110   55.2320  167.6880 C.3       6 GLP5        0.0000 
     49 CA         72.2950   55.9930  159.2515 C.3       3 GLC5        0.0000 
     50 CA         73.7770   55.0990  159.7700 C.3       9 GLL5        0.0000 
     51 CA         70.8130   56.8870  158.7330 C.3       6 GLP5        0.0000 
     52 CA         72.4580   54.0165  158.3905 C.3       3 GLC5        0.0000 
     53 CA         71.1390   52.9340  157.0110 C.3       6 GLP5        0.0000 
     54 CA         75.8965   58.6665  157.4785 C.3       3 GLC5        0.0000 
     55 CA         76.9030   58.6870  159.1660 C.3       9 GLL5        0.0000 
     56 CA         74.8900   58.6460  155.7910 C.3       6 GLP5        0.0000 
     57 CA         77.3885   61.3715  160.1435 C.3       3 GLC5        0.0000 
     58 CA         79.3620   61.0460  159.3630 C.3       9 GLL5        0.0000 
     59 CA         75.4150   61.6970  160.9240 C.3       6 GLP5        0.0000 
     60 CA         68.7750   54.5635  164.5905 C.3       3 GLC5        0.0000 
     61 CA         70.7080   53.7470  164.2160 C.3       9 GLL5        0.0000 
     62 CA         66.8420   55.3800  164.9650 C.3       6 GLP5        0.0000 
     63 CA         69.6160   52.5985  162.9460 C.3       3 GLC5        0.0000 
     64 CA         68.5240   51.4500  161.6760 C.3       6 GLP5        0.0000 
     65 CA         71.4825   52.4040  163.2655 C.3       3 GLC5        0.0000 
     66 CA         72.2570   51.0610  162.3150 C.3       6 GLP5        0.0000 
     67 CA         74.2990   59.4635  162.4595 C.3       3 GLC5        0.0000 
     68 CA         74.4640   57.3670  163.2160 C.3       9 GLL5        0.0000 
     69 CA         74.1340   61.5600  161.7030 C.3       6 GLP5        0.0000 
     70 CA         66.4723   56.3828  170.2295 C.3       3 GLC5        0.0000 
     71 CA         65.0600   55.4460  169.6510 C.3       6 GLP5        0.0000 
     72 CA         69.6259   56.6091  171.9555 C.3       3 GLC5        0.0000 
     73 CA         68.2020   57.2730  170.1130 C.3       9 GLL5        0.0000 
     74 CA         71.1300   55.3515  169.1587 C.3       3 GLC5        0.0000 
     75 CA         69.1270   56.0670  169.9760 C.3       9 GLL5        0.0000 
     76 CA         72.8590   54.7180  169.0490 C.3       6 GLP5        0.0000 
     77 CA         68.8915   56.4303  166.6850 C.3       3 GLC5        0.0000 
     78 CA         69.3830   54.8800  167.7490 C.3       9 GLL5        0.0000 
     79 CA         67.7640   54.4398  168.7794 C.3       3 GLC5        0.0000 
     80 CA         68.4017   54.7965  165.5060 C.3       3 GLC5        0.0000 
     81 CA         70.1060   54.7350  166.4380 C.3       9 GLL5        0.0000 
     82 CA         71.1069   53.7401  167.5374 C.3       3 GLC5        0.0000 
     83 CA         73.0437   58.6540  164.7448 C.3       3 GLC5        0.0000 
     84 CA         72.2250   60.1800  165.7150 C.3       6 GLP5        0.0000 
     85 CA         74.6977   55.8750  158.3173 C.3       3 GLC5        0.0000 
     86 CA         74.6260   55.9310  160.7130 C.3       9 GLL5        0.0000 
     87 CA         75.1940   56.2350  156.3930 C.3       6 GLP5        0.0000 
     88 CA         73.0870   57.4275  160.0910 C.3       3 GLC5        0.0000 
     89 CA         75.0820   57.2190  160.0430 C.3       9 GLL5        0.0000 
     90 CA         71.3200   58.2800  159.8040 C.3       6 GLP5        0.0000 
     91 CA         75.4748   56.7728  158.1643 C.3       3 GLC5        0.0000 
     92 CA         76.4963   60.2362  159.9920 C.3       3 GLC5        0.0000 
@<TRIPOS>BOND
@<TRIPOS>SUBSTRUCTURE
     1 ALC1        4 GROUP        1 X    ALC  0     ROOT ALC X 1
     2 SEC2        1 GROUP        1 X    SEC  0     **** SEC X 2
     3 GLC5        7 GROUP        1 X    GLC  0     **** GLC X 6
     4 ALP1        6 GROUP        1 Y    ALP  0     ROOT ALP Y 8
     5 SEP2        3 GROUP        1 Y    SEP  0     **** SEP Y 9
     6 GLP5        9 GROUP        1 Y    GLP  0     **** GLP Y 13
     7 ALL1        5 GROUP        1 Z    ALL  0     ROOT ALL Z 15
     8 SEL2        2 GROUP        1 Z    SEL  0     **** SEL Z 16
     9 GLL5        8 GROUP        1 Z    GLL  0     **** GLL Z 20
@<TRIPOS>SET

