#    Name: 1sqp_MYX_1_ligand
#    Modification time : Tue Mar 25 02:39:54 2014

@<TRIPOS>MOLECULE
1sqp_MYX_1_ligand
   66    67     1     0     0
SMALL
NO_CHARGES


@<TRIPOS>ATOM
      1 O1         66.4770   58.6540  168.1130 O.2       1 MYX383      0.0000 
      2 C1         67.2970   59.5610  168.0940 C.2       1 MYX383      0.0000 
      3 N1         67.0800   60.6070  167.2990 N.am      1 MYX383      0.0000 
      4 C2         68.5770   59.5160  168.9290 C.2       1 MYX383      0.0000 
      5 C3         68.9790   58.5510  169.8500 C.2       1 MYX383      0.0000 
      6 O2         70.2340   58.6990  170.5960 O.3       1 MYX383      0.0000 
      7 C4         71.0910   59.8200  170.5010 C.3       1 MYX383      0.0000 
      8 C5         68.2020   57.2730  170.1130 C.3       1 MYX383      0.0000 
      9 C6         67.5670   57.3660  171.5030 C.3       1 MYX383      0.0000 
     10 C7         69.1270   56.0670  169.9760 C.3       1 MYX383      0.0000 
     11 O3         68.6270   54.8540  170.5710 O.3       1 MYX383      0.0000 
     12 C8         69.6580   54.0270  171.1430 C.3       1 MYX383      0.0000 
     13 C9         69.6750   55.9030  168.5610 C.2       1 MYX383      0.0000 
     14 C10        69.3830   54.8800  167.7490 C.2       1 MYX383      0.0000 
     15 C11        70.1060   54.7350  166.4380 C.2       1 MYX383      0.0000 
     16 C12        69.8170   53.6910  165.6560 C.2       1 MYX383      0.0000 
     17 N2         71.0290   55.5970  165.9880 N.2       1 MYX383      0.0000 
     18 C13        71.4770   55.1940  164.6790 C.2       1 MYX383      0.0000 
     19 C14        72.4960   55.8270  163.8630 C.2       1 MYX383      0.0000 
     20 C15        73.2610   56.8890  164.3330 C.2       1 MYX383      0.0000 
     21 N3         72.8590   55.3700  162.5920 N.2       1 MYX383      0.0000 
     22 C16        73.9370   56.1800  162.0650 C.2       1 MYX383      0.0000 
     23 C17        74.6260   55.9310  160.7130 C.3       1 MYX383      0.0000 
     24 C18        73.7770   55.0990  159.7700 C.3       1 MYX383      0.0000 
     25 C19        75.0820   57.2190  160.0430 C.2       1 MYX383      0.0000 
     26 C20        76.4290   57.4020  159.8280 C.2       1 MYX383      0.0000 
     27 C21        76.9030   58.6870  159.1660 C.2       1 MYX383      0.0000 
     28 C22        78.2520   58.8640  158.9540 C.2       1 MYX383      0.0000 
     29 C23        78.7640   60.1350  158.3020 C.3       1 MYX383      0.0000 
     30 C24        79.3620   61.0460  159.3630 C.3       1 MYX383      0.0000 
     31 C25        79.8150   59.8170  157.2440 C.3       1 MYX383      0.0000 
     32 S1         70.7080   53.7470  164.2160 S.3       1 MYX383      0.0000 
     33 S2         74.4640   57.3670  163.2160 S.3       1 MYX383      0.0000 
     34 H          67.7538   61.3443  167.3481 H         1 MYX383      0.0000 
     35 H          66.2628   60.5610  166.7245 H         1 MYX383      0.0000 
     36 H          69.2153   60.3559  168.7480 H         1 MYX383      0.0000 
     37 H          67.4133   57.1990  169.3783 H         1 MYX383      0.0000 
     38 H          70.0665   56.3722  170.5979 H         1 MYX383      0.0000 
     39 H          70.3171   56.6833  168.2746 H         1 MYX383      0.0000 
     40 H          68.6861   54.1637  167.9509 H         1 MYX383      0.0000 
     41 H          69.2491   52.9519  165.7174 H         1 MYX383      0.0000 
     42 H          73.2506   57.3829  165.1181 H         1 MYX383      0.0000 
     43 H          75.5475   55.3372  160.9276 H         1 MYX383      0.0000 
     44 H          74.3707   57.8732  159.7908 H         1 MYX383      0.0000 
     45 H          77.1386   56.7381  160.0800 H         1 MYX383      0.0000 
     46 H          76.1968   59.3509  158.9135 H         1 MYX383      0.0000 
     47 H          78.9541   58.1803  159.2120 H         1 MYX383      0.0000 
     48 H          77.9402   60.6466  157.8329 H         1 MYX383      0.0000 
     49 H          71.8946   59.7240  171.0884 H         1 MYX383      0.0000 
     50 H          71.4244   59.9546  169.5679 H         1 MYX383      0.0000 
     51 H          70.6292   60.6646  170.7719 H         1 MYX383      0.0000 
     52 H          68.2558   57.4783  172.2192 H         1 MYX383      0.0000 
     53 H          66.9410   58.1425  171.5741 H         1 MYX383      0.0000 
     54 H          67.0421   56.5449  171.7272 H         1 MYX383      0.0000 
     55 H          70.3315   53.7468  170.4590 H         1 MYX383      0.0000 
     56 H          70.1566   54.5029  171.8675 H         1 MYX383      0.0000 
     57 H          69.2835   53.1915  171.5451 H         1 MYX383      0.0000 
     58 H          74.2367   54.9436  158.8956 H         1 MYX383      0.0000 
     59 H          73.5670   54.2001  160.1546 H         1 MYX383      0.0000 
     60 H          72.9038   55.5423  159.5674 H         1 MYX383      0.0000 
     61 H          80.1263   60.6105  159.8385 H         1 MYX383      0.0000 
     62 H          79.7086   61.8973  158.9691 H         1 MYX383      0.0000 
     63 H          78.6891   61.2976  160.0586 H         1 MYX383      0.0000 
     64 H          80.1649   60.6457  156.8072 H         1 MYX383      0.0000 
     65 H          80.6009   59.3370  157.6337 H         1 MYX383      0.0000 
     66 H          79.4472   59.2359  156.5180 H         1 MYX383      0.0000 
@<TRIPOS>BOND
     1    2    1 2    
     2    3    2 am   
     3    4    2 1    
     4   34    3 1    
     5   35    3 1    
     6    5    4 2    
     7   36    4 1    
     8    6    5 1    
     9    8    5 1    
    10    7    6 1    
    11   49    7 1    
    12   50    7 1    
    13   51    7 1    
    14    9    8 1    
    15   10    8 1    
    16   37    8 1    
    17   52    9 1    
    18   53    9 1    
    19   54    9 1    
    20   11   10 1    
    21   13   10 1    
    22   38   10 1    
    23   12   11 1    
    24   55   12 1    
    25   56   12 1    
    26   57   12 1    
    27   14   13 2    
    28   39   13 1    
    29   15   14 1    
    30   40   14 1    
    31   16   15 2    
    32   17   15 1    
    33   32   16 1    
    34   41   16 1    
    35   18   17 2    
    36   19   18 1    
    37   32   18 1    
    38   20   19 2    
    39   21   19 1    
    40   33   20 1    
    41   42   20 1    
    42   22   21 2    
    43   23   22 1    
    44   33   22 1    
    45   24   23 1    
    46   25   23 1    
    47   43   23 1    
    48   58   24 1    
    49   59   24 1    
    50   60   24 1    
    51   26   25 2    
    52   44   25 1    
    53   27   26 1    
    54   45   26 1    
    55   28   27 2    
    56   46   27 1    
    57   29   28 1    
    58   47   28 1    
    59   30   29 1    
    60   31   29 1    
    61   48   29 1    
    62   61   30 1    
    63   62   30 1    
    64   63   30 1    
    65   64   31 1    
    66   65   31 1    
    67   66   31 1    
@<TRIPOS>SUBSTRUCTURE
     1 MYX383      1 GROUP   
@<TRIPOS>SET

