#    Name: 3nwz_COA_1_INTS_M
#    Modification time : Tue Mar 25 02:52:17 2014

@<TRIPOS>MOLECULE
3nwz_COA_1_INTS_M
   74     0     9     0     0
SMALL
NO_CHARGES


@<TRIPOS>ATOM
      1 N          29.3725    9.5275   29.2025 N.am      2 SEC2        0.0000 
      2 N          28.5990   10.5410   29.7950 N.am      8 SEL2        0.0000 
      3 N          30.1460    8.5140   28.6100 N.am      5 SEP2        0.0000 
      4 CA         29.6385   11.7005   29.9590 C.3       3 GLC5        0.0000 
      5 CA         28.4750   10.9400   31.0490 C.3       9 GLL5        0.0000 
      6 CA         30.8020   12.4610   28.8690 C.3       6 GLP5        0.0000 
      7 CA         29.4055    9.4475   31.0160 C.3       3 GLC5        0.0000 
      8 CA         30.3360    7.9550   30.9830 C.3       6 GLP5        0.0000 
      9 CA         29.1745   11.2620   28.9920 C.3       3 GLC5        0.0000 
     10 CA         27.5470   10.0630   29.1150 C.3       9 GLL5        0.0000 
     11 CA         28.9375    8.7565   29.3220 C.3       3 GLC5        0.0000 
     12 CA         30.3280    7.4500   29.5290 C.3       6 GLP5        0.0000 
     13 CA         27.3855   11.5440   27.6875 C.3       3 GLC5        0.0000 
     14 CA         27.2240   13.0250   26.2600 C.3       6 GLP5        0.0000 
     15 O          28.9150    9.0835   28.2340 O.2       1 ALC1        0.0000 
     16 O          27.6840    9.6530   27.8580 O.2       7 ALL1        0.0000 
     17 O          30.1460    8.5140   28.6100 O.2       4 ALP1        0.0000 
     18 CA         24.0950   12.4505   31.6930 C.3       3 GLC5        0.0000 
     19 CA         24.4070   10.5310   32.7920 C.3       9 GLL5        0.0000 
     20 CA         23.7830   14.3700   30.5940 C.3       6 GLP5        0.0000 
     21 N          26.9560   14.1535   39.7725 N.am      2 SEC2        0.0000 
     22 N          26.8200   13.9060   38.4160 N.am      8 SEL2        0.0000 
     23 N          27.0920   14.4010   41.1290 N.am      5 SEP2        0.0000 
     24 N          25.5465   17.8505   37.5375 N.am      2 SEC2        0.0000 
     25 N          26.8120   17.6110   36.8300 N.am      8 SEL2        0.0000 
     26 N          24.2810   18.0900   38.2450 N.am      5 SEP2        0.0000 
     27 N          26.9645   19.2590   36.8085 N.am      2 SEC2        0.0000 
     28 N          27.1170   20.9070   36.7870 N.am      5 SEP2        0.0000 
     29 N          28.9465   15.8275   39.5005 N.am      2 SEC2        0.0000 
     30 N          28.2080   16.0820   38.3030 N.am      8 SEL2        0.0000 
     31 N          29.6850   15.5730   40.6980 N.am      5 SEP2        0.0000 
     32 CA         30.7470   18.9340   34.8345 C.3       3 GLC5        0.0000 
     33 CA         29.0890   17.8430   35.1190 C.3       9 GLL5        0.0000 
     34 CA         32.4050   20.0250   34.5500 C.3       6 GLP5        0.0000 
     35 CA         29.0435   19.2655   36.7600 C.3       3 GLC5        0.0000 
     36 CA         28.9980   20.6880   38.4010 C.3       6 GLP5        0.0000 
     37 CA         29.9360   16.6575   31.4205 C.3       3 GLC5        0.0000 
     38 CA         29.2950   16.2370   33.2210 C.3       9 GLL5        0.0000 
     39 CA         30.5770   17.0780   29.6200 C.3       6 GLP5        0.0000 
     40 CA         31.1600   17.2080   33.1025 C.3       3 GLC5        0.0000 
     41 CA         33.0250   18.1790   32.9840 C.3       6 GLP5        0.0000 
     42 CA         29.7275   17.8685   31.1950 C.3       3 GLC5        0.0000 
     43 CA         28.8780   18.6590   32.7700 C.3       9 GLL5        0.0000 
     44 CA         29.6225   20.5470   32.7205 C.3       3 GLC5        0.0000 
     45 CA         30.3670   22.4350   32.6710 C.3       6 GLP5        0.0000 
     46 CA         30.9515   18.4190   32.8770 C.3       3 GLC5        0.0000 
     47 O          25.8610   19.5230   32.2725 O.2       1 ALC1        0.0000 
     48 O          26.2420   17.9810   31.5960 O.2       7 ALL1        0.0000 
     49 O          25.4800   21.0650   32.9490 O.2       4 ALP1        0.0000 
     50 CA         24.0665   17.1755   31.1655 C.3       3 GLC5        0.0000 
     51 CA         25.7510   17.8510   30.2170 C.3       9 GLL5        0.0000 
     52 CA         22.3820   16.5000   32.1140 C.3       6 GLP5        0.0000 
     53 CA         24.7670   16.1105   30.4055 C.3       3 GLC5        0.0000 
     54 CA         28.5810   17.8635   28.6710 C.3       3 GLC5        0.0000 
     55 CA         26.7160   18.5310   29.2420 C.3       9 GLL5        0.0000 
     56 CA         30.4460   17.1960   28.1000 C.3       6 GLP5        0.0000 
     57 CA         26.4310   16.8280   25.7380 C.3       3 GLC5        0.0000 
     58 CA         26.5590   18.9310   25.4530 C.3       9 GLL5        0.0000 
     59 CA         26.3030   14.7250   26.0230 C.3       6 GLP5        0.0000 
     60 CA         30.3815   18.4875   26.0585 C.3       3 GLC5        0.0000 
     61 CA         29.2310   18.8300   24.5960 C.3       9 GLL5        0.0000 
     62 CA         31.5320   18.1450   27.5210 C.3       6 GLP5        0.0000 
     63 CA         26.5018    8.1240   31.0228 C.3       3 GLC5        0.0000 
     64 CA         26.3130    9.9940   29.7520 C.3       9 GLL5        0.0000 
     65 CA         26.7350    6.0400   31.6350 C.3       6 GLP5        0.0000 
     66 CA         25.4187   12.0330   29.9047 C.3       3 GLC5        0.0000 
     67 CA         24.5690   13.8580   29.3990 C.3       6 GLP5        0.0000 
     68 CA         25.7572   19.9560   29.9053 C.3       3 GLC5        0.0000 
     69 CA         25.2810   21.7210   30.0810 C.3       6 GLP5        0.0000 
     70 CA         26.1242   20.5865   24.0922 C.3       3 GLC5        0.0000 
     71 CA         25.1730   21.8860   23.1690 C.3       6 GLP5        0.0000 
     72 CA         29.0828   20.8923   25.7120 C.3       3 GLC5        0.0000 
     73 CA         27.5920   19.6430   24.5780 C.3       9 GLL5        0.0000 
     74 CA         29.7540   22.5480   26.8370 C.3       6 GLP5        0.0000 
@<TRIPOS>BOND
@<TRIPOS>SUBSTRUCTURE
     1 ALC1       15 GROUP        1 X    ALC  0     ROOT ALC X 1
     2 SEC2        1 GROUP        1 X    SEC  0     **** SEC X 2
     3 GLC5        4 GROUP        1 X    GLC  0     **** GLC X 6
     4 ALP1       17 GROUP        1 Y    ALP  0     ROOT ALP Y 8
     5 SEP2        3 GROUP        1 Y    SEP  0     **** SEP Y 9
     6 GLP5        6 GROUP        1 Y    GLP  0     **** GLP Y 13
     7 ALL1       16 GROUP        1 Z    ALL  0     ROOT ALL Z 15
     8 SEL2        2 GROUP        1 Z    SEL  0     **** SEL Z 16
     9 GLL5        5 GROUP        1 Z    GLL  0     **** GLL Z 20
@<TRIPOS>SET

