#    Name: 3nwz_COA_1_ligand
#    Modification time : Tue Mar 25 02:52:17 2014

@<TRIPOS>MOLECULE
3nwz_COA_1_ligand
   79    81     1     0     0
SMALL
NO_CHARGES


@<TRIPOS>ATOM
      1 N1A        28.5990   10.5410   29.7950 N.ar      1 COA270      0.0000 
      2 C2A        28.4750   10.9400   31.0490 C.ar      1 COA270      0.0000 
      3 N3A        27.3180   10.8880   31.6860 N.ar      1 COA270      0.0000 
      4 C4A        26.2240   10.4220   31.0690 C.ar      1 COA270      0.0000 
      5 C5A        26.3130    9.9940   29.7520 C.ar      1 COA270      0.0000 
      6 C6A        27.5470   10.0630   29.1150 C.ar      1 COA270      0.0000 
      7 N6A        27.6840    9.6530   27.8580 N.pl3     1 COA270      0.0000 
      8 N7A        25.1050    9.5840   29.3820 N.2       1 COA270      0.0000 
      9 C8A        24.2860    9.7420   30.4200 C.2       1 COA270      0.0000 
     10 N9A        24.9620   10.2480   31.4490 N.pl3     1 COA270      0.0000 
     11 C1B        24.4070   10.5310   32.7920 C.3       1 COA270      0.0000 
     12 C2B        25.2190    9.9040   33.9230 C.3       1 COA270      0.0000 
     13 O2B        25.0020    8.4900   33.9450 O.3       1 COA270      0.0000 
     14 C3B        24.5190   10.6020   35.0850 C.3       1 COA270      0.0000 
     15 O3B        23.2170   10.0410   35.2800 O.3       1 COA270      0.0000 
     16 P3B        22.5100   10.1540   36.7220 P.3       1 COA270      0.0000 
     17 O7A        21.8020   11.4410   36.9030 O.co2     1 COA270      0.0000 
     18 O8A        21.5240    8.8880   36.8520 O.co2     1 COA270      0.0000 
     19 O9A        23.6910    9.9440   37.7960 O.co2     1 COA270      0.0000 
     20 C4B        24.4330   12.0360   34.5580 C.3       1 COA270      0.0000 
     21 O4B        24.3980   11.9310   33.1210 O.3       1 COA270      0.0000 
     22 C5B        25.7110   12.7980   34.9200 C.3       1 COA270      0.0000 
     23 O5B        25.7920   13.0150   36.3310 O.3       1 COA270      0.0000 
     24 P1A        27.0760   13.7520   36.9660 P.3       1 COA270      0.0000 
     25 O1A        28.2990   13.0350   36.5400 O.co2     1 COA270      0.0000 
     26 O2A        26.8200   13.9060   38.4160 O.co2     1 COA270      0.0000 
     27 O3A        27.0350   15.1980   36.2590 O.3       1 COA270      0.0000 
     28 P2A        27.7430   16.4670   36.9510 P.3       1 COA270      0.0000 
     29 O4A        26.8120   17.6110   36.8300 O.co2     1 COA270      0.0000 
     30 O5A        28.2080   16.0820   38.3030 O.co2     1 COA270      0.0000 
     31 O6A        29.0250   16.7250   36.0090 O.3       1 COA270      0.0000 
     32 CBP        28.5800   17.4950   33.7180 C.3       1 COA270      0.0000 
     33 CCP        29.0890   17.8430   35.1190 C.3       1 COA270      0.0000 
     34 CDP        29.2950   16.2370   33.2210 C.3       1 COA270      0.0000 
     35 CEP        28.8780   18.6590   32.7700 C.3       1 COA270      0.0000 
     36 CAP        27.0730   17.2290   33.7420 C.3       1 COA270      0.0000 
     37 OAP        26.3900   18.3830   34.2400 O.3       1 COA270      0.0000 
     38 C9P        26.5880   16.9220   32.3230 C.2       1 COA270      0.0000 
     39 O9P        26.5490   15.7660   31.9040 O.2       1 COA270      0.0000 
     40 N8P        26.2420   17.9810   31.5960 N.am      1 COA270      0.0000 
     41 C7P        25.7510   17.8510   30.2170 C.3       1 COA270      0.0000 
     42 C6P        26.7160   18.5310   29.2420 C.3       1 COA270      0.0000 
     43 C5P        26.1900   18.4270   27.8080 C.2       1 COA270      0.0000 
     44 O5P        25.1180   17.8710   27.5740 O.2       1 COA270      0.0000 
     45 N4P        26.9600   18.9690   26.8670 N.am      1 COA270      0.0000 
     46 C3P        26.5590   18.9310   25.4530 C.3       1 COA270      0.0000 
     47 C2P        27.5920   19.6430   24.5780 C.3       1 COA270      0.0000 
     48 S1P        29.2310   18.8300   24.5960 S.3       1 COA270      0.0000 
     49 H          29.3299   11.3133   31.5597 H         1 COA270      0.0000 
     50 H          28.5796    9.2832   27.6110 H         1 COA270      0.0000 
     51 H          26.8790    9.7514   27.2729 H         1 COA270      0.0000 
     52 H          23.3314    9.5196   30.4253 H         1 COA270      0.0000 
     53 H          23.3972   10.1357   32.8799 H         1 COA270      0.0000 
     54 H          26.1891   10.2275   33.8590 H         1 COA270      0.0000 
     55 H          25.1438   10.5814   35.9169 H         1 COA270      0.0000 
     56 H          23.5979   12.5155   34.9457 H         1 COA270      0.0000 
     57 H          25.7013   13.7468   34.3632 H         1 COA270      0.0000 
     58 H          26.5644   12.2106   34.5499 H         1 COA270      0.0000 
     59 H          30.1240   18.2170   35.0127 H         1 COA270      0.0000 
     60 H          28.4848   18.6911   35.4905 H         1 COA270      0.0000 
     61 H          26.8917   16.3666   34.3544 H         1 COA270      0.0000 
     62 H          26.2992   18.9543   31.9605 H         1 COA270      0.0000 
     63 H          24.7688   18.3185   30.1097 H         1 COA270      0.0000 
     64 H          25.6629   16.7987   29.9346 H         1 COA270      0.0000 
     65 H          27.6874   18.0482   29.3036 H         1 COA270      0.0000 
     66 H          26.8187   19.5786   29.5112 H         1 COA270      0.0000 
     67 H          27.8586   19.4346   27.0699 H         1 COA270      0.0000 
     68 H          25.5914   19.4233   25.3122 H         1 COA270      0.0000 
     69 H          26.4676   17.8971   25.1047 H         1 COA270      0.0000 
     70 H          27.8314   20.6342   24.9136 H         1 COA270      0.0000 
     71 H          27.3505   19.6341   23.5321 H         1 COA270      0.0000 
     72 H          30.2852   16.3675   33.1721 H         1 COA270      0.0000 
     73 H          29.1318   15.4549   33.8224 H         1 COA270      0.0000 
     74 H          28.9887   15.9725   32.3066 H         1 COA270      0.0000 
     75 H          29.8580   18.8491   32.7119 H         1 COA270      0.0000 
     76 H          28.5601   18.4717   31.8406 H         1 COA270      0.0000 
     77 H          28.4328   19.5036   33.0675 H         1 COA270      0.0000 
     78 H          24.0427    8.3796   34.2052 H         1 COA270      0.0000 
     79 H          26.3407   18.2475   35.2295 H         1 COA270      0.0000 
@<TRIPOS>BOND
     1    2    1 ar   
     2    6    1 ar   
     3    3    2 ar   
     4   49    2 1    
     5    4    3 ar   
     6    5    4 ar   
     7   10    4 1    
     8    6    5 ar   
     9    8    5 1    
    10    7    6 1    
    11   50    7 1    
    12   51    7 1    
    13    9    8 2    
    14   10    9 1    
    15   52    9 1    
    16   11   10 1    
    17   12   11 1    
    18   21   11 1    
    19   53   11 1    
    20   13   12 1    
    21   14   12 1    
    22   54   12 1    
    23   78   13 1    
    24   15   14 1    
    25   20   14 1    
    26   55   14 1    
    27   16   15 1    
    28   17   16 ar   
    29   18   16 ar   
    30   19   16 ar   
    31   21   20 1    
    32   22   20 1    
    33   56   20 1    
    34   23   22 1    
    35   57   22 1    
    36   58   22 1    
    37   24   23 1    
    38   25   24 ar   
    39   26   24 ar   
    40   27   24 1    
    41   28   27 1    
    42   29   28 ar   
    43   30   28 ar   
    44   31   28 1    
    45   33   31 1    
    46   33   32 1    
    47   34   32 1    
    48   35   32 1    
    49   36   32 1    
    50   59   33 1    
    51   60   33 1    
    52   72   34 1    
    53   73   34 1    
    54   74   34 1    
    55   75   35 1    
    56   76   35 1    
    57   77   35 1    
    58   37   36 1    
    59   38   36 1    
    60   61   36 1    
    61   79   37 1    
    62   39   38 2    
    63   40   38 am   
    64   41   40 1    
    65   62   40 1    
    66   42   41 1    
    67   63   41 1    
    68   64   41 1    
    69   43   42 1    
    70   65   42 1    
    71   66   42 1    
    72   44   43 2    
    73   45   43 am   
    74   46   45 1    
    75   67   45 1    
    76   47   46 1    
    77   68   46 1    
    78   69   46 1    
    79   48   47 1    
    80   70   47 1    
    81   71   47 1    
@<TRIPOS>SUBSTRUCTURE
     1 COA270      1 GROUP   
@<TRIPOS>SET

