#    Name: 3gfb_NAD_4_INTS_M
#    Modification time : Tue Mar 25 07:43:50 2014

@<TRIPOS>MOLECULE
3gfb_NAD_4_INTS_M
   90     0    12     0     0
SMALL
NO_CHARGES


@<TRIPOS>ATOM
      1 NZ         -8.7275  -39.3760  -22.3355 N.4       3 LYC4        0.0000 
      2 NZ         -9.8310  -40.2100  -22.1270 N.4      11 LYL4        0.0000 
      3 NZ         -8.2620  -37.3940  -22.2290 N.4       7 LYP4        0.0000 
      4 N          -8.7275  -39.3760  -22.3355 N.am      2 SEC2        0.0000 
      5 N          -9.8310  -40.2100  -22.1270 N.am     10 SEL2        0.0000 
      6 N          -7.6240  -38.5420  -22.5440 N.am      6 SEP2        0.0000 
      7 N          -9.7360  -38.7665  -22.2145 N.am      2 SEC2        0.0000 
      8 N          -9.6410  -37.3230  -22.3020 N.am      6 SEP2        0.0000 
      9 N          -7.5380  -39.9400  -22.4790 N.am      2 SEC2        0.0000 
     10 N          -7.4520  -41.3380  -22.4140 N.am     10 SEL2        0.0000 
     11 CA         -6.8240  -40.7415  -20.7490 C.3       4 GLC5        0.0000 
     12 CA         -6.3270  -42.2280  -22.3510 C.3      12 GLL5        0.0000 
     13 CA         -7.3210  -39.2550  -19.1470 C.3       8 GLP5        0.0000 
     14 CA         -5.4000  -43.8295  -22.2250 C.3       4 GLC5        0.0000 
     15 CA         -4.4730  -45.4310  -22.0990 C.3       8 GLP5        0.0000 
     16 CA         -4.2700  -43.3380  -23.1805 C.3       4 GLC5        0.0000 
     17 CA         -5.2430  -41.7760  -23.4450 C.3      12 GLL5        0.0000 
     18 CA         -3.2970  -44.9000  -22.9160 C.3       8 GLP5        0.0000 
     19 N          -6.6790  -38.9860  -22.7565 N.am      2 SEC2        0.0000 
     20 N          -5.7340  -39.4300  -22.9690 N.am     10 SEL2        0.0000 
     21 CA         -2.6420  -39.5645  -25.5170 C.3       4 GLC5        0.0000 
     22 CA         -4.4130  -40.0810  -24.8290 C.3      12 GLL5        0.0000 
     23 CA         -0.8710  -39.0480  -26.2050 C.3       8 GLP5        0.0000 
     24 O          -3.4715  -38.1585  -24.2130 O.2       1 ALC1        0.0000 
     25 O          -4.3080  -38.5980  -24.9260 O.2       9 ALL1        0.0000 
     26 O          -2.6350  -37.7190  -23.5000 O.2       5 ALP1        0.0000 
     27 CA         -2.8030  -41.5760  -22.0130 C.3       4 GLC5        0.0000 
     28 CA         -3.2920  -40.8950  -23.9960 C.3      12 GLL5        0.0000 
     29 CA         -2.3140  -42.2570  -20.0300 C.3       8 GLP5        0.0000 
     30 CA         -1.8095  -40.0890  -24.3955 C.3       4 GLC5        0.0000 
     31 CA         -0.3270  -39.2830  -24.7950 C.3       8 GLP5        0.0000 
     32 CA         -3.2945  -42.8975  -23.4560 C.3       4 GLC5        0.0000 
     33 CA          2.0260  -42.1440  -25.6860 C.3       4 GLC5        0.0000 
     34 CA          0.4580  -43.5030  -25.8480 C.3      12 GLL5        0.0000 
     35 CA          3.5940  -40.7850  -25.5240 C.3       8 GLP5        0.0000 
     36 CA          0.5485  -45.2565  -24.8330 C.3       4 GLC5        0.0000 
     37 CA          0.6390  -47.0100  -23.8180 C.3       8 GLP5        0.0000 
     38 CA          0.9395  -44.1495  -21.9840 C.3       4 GLC5        0.0000 
     39 CA          0.8570  -42.8300  -23.6300 C.3      12 GLL5        0.0000 
     40 CA          1.0220  -45.4690  -20.3380 C.3       8 GLP5        0.0000 
     41 CA          2.4215  -42.4010  -22.3040 C.3       4 GLC5        0.0000 
     42 CA          3.9860  -41.9720  -20.9780 C.3       8 GLP5        0.0000 
     43 CA          0.8180  -40.7090  -22.8845 C.3       4 GLC5        0.0000 
     44 CA          0.7790  -38.5880  -22.1390 C.3       8 GLP5        0.0000 
     45 CA          0.2650  -41.0565  -24.2125 C.3       4 GLC5        0.0000 
     46 CA          2.2255  -41.8075  -24.5770 C.3       4 GLC5        0.0000 
     47 CA          0.7480  -44.9200  -23.7240 C.3       4 GLC5        0.0000 
     48 N          -7.6640  -42.2190  -17.2350 N.am      2 SEC2        0.0000 
     49 N          -8.5220  -42.4100  -18.7030 N.am     10 SEL2        0.0000 
     50 N          -6.8060  -42.0280  -15.7670 N.am      6 SEP2        0.0000 
     51 CA         -9.3390  -44.2790  -17.4980 C.3       4 GLC5        0.0000 
     52 CA         -9.0890  -44.8680  -19.1520 C.3      12 GLL5        0.0000 
     53 CA         -9.5890  -43.6900  -15.8440 C.3       8 GLP5        0.0000 
     54 CA        -10.5025  -45.8615  -17.5935 C.3       4 GLC5        0.0000 
     55 CA         -9.8560  -46.1480  -19.2120 C.3      12 GLL5        0.0000 
     56 CA        -11.1490  -45.5750  -15.9750 C.3       8 GLP5        0.0000 
     57 CA         -8.6465  -47.9475  -20.5505 C.3       4 GLC5        0.0000 
     58 CA        -10.2680  -46.4260  -20.6900 C.3      12 GLL5        0.0000 
     59 CA         -7.0250  -49.4690  -20.4110 C.3       8 GLP5        0.0000 
     60 CA        -11.7595  -49.6050  -20.9950 C.3       4 GLC5        0.0000 
     61 CA        -11.1430  -47.5530  -20.4210 C.3      12 GLL5        0.0000 
     62 CA        -12.3760  -51.6570  -21.5690 C.3       8 GLP5        0.0000 
     63 CA         -9.2600  -48.8660  -17.5660 C.3       4 GLC5        0.0000 
     64 CA        -10.2290  -48.3090  -19.4740 C.3      12 GLL5        0.0000 
     65 CA         -8.2910  -49.4230  -15.6580 C.3       8 GLP5        0.0000 
     66 CA         -8.6270  -48.8890  -19.9425 C.3       4 GLC5        0.0000 
     67 CA        -10.5430  -50.1195  -20.5715 C.3       4 GLC5        0.0000 
     68 CA        -10.8570  -51.9300  -21.6690 C.3       8 GLP5        0.0000 
     69 CA         -9.6160  -49.8530  -17.0055 C.3       4 GLC5        0.0000 
     70 CA        -10.9410  -50.2830  -18.3530 C.3      12 GLL5        0.0000 
     71 CA         -8.9830  -49.8760  -19.3820 C.3       4 GLC5        0.0000 
     72 CA        -10.8990  -51.1065  -20.0110 C.3       4 GLC5        0.0000 
     73 CA        -12.0885  -51.3345  -19.5610 C.3       4 GLC5        0.0000 
     74 CA        -11.8010  -51.0120  -17.5530 C.3      12 GLL5        0.0000 
     75 N         -12.6205  -54.2210  -16.4825 N.am      2 SEC2        0.0000 
     76 N         -12.1790  -53.2300  -17.0270 N.am     10 SEL2        0.0000 
     77 N         -13.0620  -55.2120  -15.9380 N.am      6 SEP2        0.0000 
     78 O          -9.2180  -51.8825  -18.2505 O.2       1 ALC1        0.0000 
     79 O         -10.1780  -52.6190  -17.7840 O.2       9 ALL1        0.0000 
     80 O          -8.2580  -51.1460  -18.7170 O.2       5 ALP1        0.0000 
     81 CA         -2.1307  -43.7343  -24.0640 C.3       4 GLC5        0.0000 
     82 CA         -1.1640  -42.2610  -24.6280 C.3      12 GLL5        0.0000 
     83 CA         -1.0683  -44.7458  -26.2050 C.3       4 GLC5        0.0000 
     84 CA         -0.7650  -42.8760  -25.7960 C.3      12 GLL5        0.0000 
     85 CA         -1.9830  -46.3020  -26.5880 C.3       8 GLP5        0.0000 
     86 CA         -0.4929  -41.0041  -25.0100 C.3       4 GLC5        0.0000 
     87 CA        -10.7823  -50.5820  -16.0825 C.3       4 GLC5        0.0000 
     88 CA         -9.1790  -50.4090  -14.8520 C.3       8 GLP5        0.0000 
     89 CA        -11.9925  -47.1628  -16.8723 C.3       4 GLC5        0.0000 
     90 CA        -13.2610  -49.1520  -17.3710 C.3      12 GLL5        0.0000 
@<TRIPOS>BOND
@<TRIPOS>SUBSTRUCTURE
     1 ALC1       24 GROUP        1 X    ALC  0     ROOT ALC X 1
     2 SEC2        4 GROUP        1 X    SEC  0     **** SEC X 2
     3 LYC4        1 GROUP        1 X    LYC  0     **** LYC X 4
     4 GLC5       11 GROUP        1 X    GLC  0     **** GLC X 6
     5 ALP1       26 GROUP        1 Y    ALP  0     ROOT ALP Y 8
     6 SEP2        6 GROUP        1 Y    SEP  0     **** SEP Y 9
     7 LYP4        3 GROUP        1 Y    LYP  0     **** LYP Y 11
     8 GLP5       13 GROUP        1 Y    GLP  0     **** GLP Y 13
     9 ALL1       25 GROUP        1 Z    ALL  0     ROOT ALL Z 15
    10 SEL2        5 GROUP        1 Z    SEL  0     **** SEL Z 16
    11 LYL4        2 GROUP        1 Z    LYL  0     **** LYL Z 18
    12 GLL5       12 GROUP        1 Z    GLL  0     **** GLL Z 20
@<TRIPOS>SET

