#    Name: 3gfb_NAD_4_ligand
#    Modification time : Tue Mar 25 07:43:50 2014

@<TRIPOS>MOLECULE
3gfb_NAD_4_ligand
   70    74     1     0     0
SMALL
NO_CHARGES


@<TRIPOS>ATOM
      1 PA         -9.0910  -41.5160  -22.2360 P.3       1 NAD503      0.0000 
      2 O1A        -9.6020  -42.3490  -23.4410 O.co2     1 NAD503      0.0000 
      3 O2A        -9.8310  -40.2100  -22.1270 O.co2     1 NAD503      0.0000 
      4 O5B        -7.4520  -41.3380  -22.4140 O.3       1 NAD503      0.0000 
      5 C5B        -6.3270  -42.2280  -22.3510 C.3       1 NAD503      0.0000 
      6 C4B        -5.2430  -41.7760  -23.4450 C.3       1 NAD503      0.0000 
      7 O4B        -3.9540  -41.4950  -22.9270 O.3       1 NAD503      0.0000 
      8 C3B        -5.6290  -40.4070  -24.0150 C.3       1 NAD503      0.0000 
      9 O3B        -5.7340  -39.4300  -22.9690 O.3       1 NAD503      0.0000 
     10 C2B        -4.4130  -40.0810  -24.8290 C.3       1 NAD503      0.0000 
     11 O2B        -4.3080  -38.5980  -24.9260 O.3       1 NAD503      0.0000 
     12 C1B        -3.2920  -40.8950  -23.9960 C.3       1 NAD503      0.0000 
     13 N9A        -2.3960  -41.7640  -24.8910 N.pl3     1 NAD503      0.0000 
     14 C8A        -2.7280  -42.1060  -26.1670 C.2       1 NAD503      0.0000 
     15 N7A        -1.7270  -42.7810  -26.7010 N.2       1 NAD503      0.0000 
     16 C5A        -0.7650  -42.8760  -25.7960 C.ar      1 NAD503      0.0000 
     17 C6A         0.4580  -43.5030  -25.8480 C.ar      1 NAD503      0.0000 
     18 N6A         0.7470  -44.1250  -26.9920 N.pl3     1 NAD503      0.0000 
     19 N1A         1.2660  -43.4710  -24.7370 N.ar      1 NAD503      0.0000 
     20 C2A         0.8570  -42.8300  -23.6300 C.ar      1 NAD503      0.0000 
     21 N3A        -0.3190  -42.2370  -23.5710 N.ar      1 NAD503      0.0000 
     22 C4A        -1.1640  -42.2610  -24.6280 C.ar      1 NAD503      0.0000 
     23 O3         -9.4790  -42.5970  -21.1200 O.3       1 NAD503      0.0000 
     24 PN         -9.8810  -42.5190  -19.5750 P.3       1 NAD503      0.0000 
     25 O1N        -8.5220  -42.4100  -18.7030 O.co2     1 NAD503      0.0000 
     26 O2N       -11.1660  -42.0250  -19.0850 O.co2     1 NAD503      0.0000 
     27 O5D       -10.1980  -43.9910  -19.4870 O.3       1 NAD503      0.0000 
     28 C5D        -9.0890  -44.8680  -19.1520 C.3       1 NAD503      0.0000 
     29 C4D        -9.8560  -46.1480  -19.2120 C.3       1 NAD503      0.0000 
     30 O4D        -9.2430  -47.3300  -18.8150 O.3       1 NAD503      0.0000 
     31 C3D       -10.2680  -46.4260  -20.6900 C.3       1 NAD503      0.0000 
     32 O3D        -9.2750  -47.0260  -21.5200 O.3       1 NAD503      0.0000 
     33 C2D       -11.1430  -47.5530  -20.4210 C.3       1 NAD503      0.0000 
     34 O2D       -11.2200  -48.1720  -21.6970 O.3       1 NAD503      0.0000 
     35 C1D       -10.2290  -48.3090  -19.4740 C.3       1 NAD503      0.0000 
     36 N1N       -11.2270  -48.9510  -18.6450 N.pl3     1 NAD503      0.0000 
     37 C2N       -10.9410  -50.2830  -18.3530 C.ar      1 NAD503      0.0000 
     38 C3N       -11.8010  -51.0120  -17.5530 C.ar      1 NAD503      0.0000 
     39 C7N       -11.3790  -52.3890  -17.3710 C.2       1 NAD503      0.0000 
     40 O7N       -12.1790  -53.2300  -17.0270 O.2       1 NAD503      0.0000 
     41 N7N       -10.1780  -52.6190  -17.7840 N.am      1 NAD503      0.0000 
     42 C4N       -12.9700  -50.4980  -17.0730 C.ar      1 NAD503      0.0000 
     43 C5N       -13.2610  -49.1520  -17.3710 C.ar      1 NAD503      0.0000 
     44 C6N       -12.4110  -48.3490  -18.1680 C.ar      1 NAD503      0.0000 
     45 H          -6.5865  -43.2536  -22.5910 H         1 NAD503      0.0000 
     46 H          -5.8181  -42.1976  -21.3934 H         1 NAD503      0.0000 
     47 H          -5.2336  -42.4679  -24.2363 H         1 NAD503      0.0000 
     48 H          -6.4515  -40.4989  -24.6233 H         1 NAD503      0.0000 
     49 H          -4.5150  -40.5647  -25.7670 H         1 NAD503      0.0000 
     50 H          -2.6397  -40.0507  -23.6022 H         1 NAD503      0.0000 
     51 H          -3.5711  -41.8785  -26.5930 H         1 NAD503      0.0000 
     52 H           1.6395  -44.5740  -27.0355 H         1 NAD503      0.0000 
     53 H           0.0452  -44.0864  -27.7033 H         1 NAD503      0.0000 
     54 H           1.5019  -42.8064  -22.7907 H         1 NAD503      0.0000 
     55 H          -8.7479  -44.7023  -18.1759 H         1 NAD503      0.0000 
     56 H          -8.3521  -44.8588  -19.8960 H         1 NAD503      0.0000 
     57 H         -10.8249  -46.0135  -18.6968 H         1 NAD503      0.0000 
     58 H         -10.7913  -45.6519  -21.0696 H         1 NAD503      0.0000 
     59 H         -11.9939  -47.2721  -19.9884 H         1 NAD503      0.0000 
     60 H          -9.7075  -49.0304  -20.0707 H         1 NAD503      0.0000 
     61 H         -10.0910  -50.7183  -18.7340 H         1 NAD503      0.0000 
     62 H          -9.6872  -51.8367  -18.1675 H         1 NAD503      0.0000 
     63 H          -9.8499  -53.5581  -17.6821 H         1 NAD503      0.0000 
     64 H         -13.6186  -51.0461  -16.5211 H         1 NAD503      0.0000 
     65 H         -14.1320  -48.7307  -16.9925 H         1 NAD503      0.0000 
     66 H         -12.6399  -47.4007  -18.3819 H         1 NAD503      0.0000 
     67 H          -6.3694  -39.8272  -22.3068 H         1 NAD503      0.0000 
     68 H          -4.0269  -38.2984  -24.0143 H         1 NAD503      0.0000 
     69 H          -8.8249  -46.2604  -21.9795 H         1 NAD503      0.0000 
     70 H         -10.4718  -47.7702  -22.2250 H         1 NAD503      0.0000 
@<TRIPOS>BOND
     1    2    1 ar   
     2    3    1 ar   
     3    4    1 1    
     4   23    1 1    
     5    5    4 1    
     6    6    5 1    
     7   45    5 1    
     8   46    5 1    
     9    7    6 1    
    10    8    6 1    
    11   47    6 1    
    12   12    7 1    
    13    9    8 1    
    14   10    8 1    
    15   48    8 1    
    16   67    9 1    
    17   11   10 1    
    18   12   10 1    
    19   49   10 1    
    20   68   11 1    
    21   13   12 1    
    22   50   12 1    
    23   14   13 1    
    24   22   13 1    
    25   15   14 2    
    26   51   14 1    
    27   16   15 1    
    28   17   16 ar   
    29   22   16 ar   
    30   18   17 1    
    31   19   17 ar   
    32   52   18 1    
    33   53   18 1    
    34   20   19 ar   
    35   21   20 ar   
    36   54   20 1    
    37   22   21 ar   
    38   24   23 1    
    39   25   24 ar   
    40   26   24 ar   
    41   27   24 1    
    42   28   27 1    
    43   29   28 1    
    44   55   28 1    
    45   56   28 1    
    46   30   29 1    
    47   31   29 1    
    48   57   29 1    
    49   35   30 1    
    50   32   31 1    
    51   33   31 1    
    52   58   31 1    
    53   69   32 1    
    54   34   33 1    
    55   35   33 1    
    56   59   33 1    
    57   70   34 1    
    58   36   35 1    
    59   60   35 1    
    60   37   36 ar   
    61   44   36 ar   
    62   38   37 ar   
    63   61   37 1    
    64   39   38 1    
    65   42   38 ar   
    66   40   39 2    
    67   41   39 am   
    68   62   41 1    
    69   63   41 1    
    70   43   42 ar   
    71   64   42 1    
    72   44   43 ar   
    73   65   43 1    
    74   66   44 1    
@<TRIPOS>SUBSTRUCTURE
     1 NAD503      1 GROUP   
@<TRIPOS>SET

