#    Name: 2vgp_AD6_2_INTS_M
#    Modification time : Tue Mar 25 01:41:08 2014

@<TRIPOS>MOLECULE
2vgp_AD6_2_INTS_M
   42     0     9     0     0
SMALL
NO_CHARGES


@<TRIPOS>ATOM
      1 N          37.2435   48.3230   60.6560 N.am      2 SEC2        0.0000 
      2 N          37.7130   49.7930   60.7740 N.am      8 SEL2        0.0000 
      3 N          36.7740   46.8530   60.5380 N.am      5 SEP2        0.0000 
      4 CA         34.9545   50.9395   61.8455 C.3       3 GLC5        0.0000 
      5 CA         37.0370   50.5960   61.6100 C.3       9 GLL5        0.0000 
      6 CA         32.8720   51.2830   62.0810 C.3       6 GLP5        0.0000 
      7 CA         37.1135   48.5825   62.2610 C.3       3 GLC5        0.0000 
      8 CA         37.1900   46.5690   62.9120 C.3       6 GLP5        0.0000 
      9 O          38.8955   48.4430   58.5605 O.2       1 ALC1        0.0000 
     10 O          39.3020   49.7200   59.0650 O.2       7 ALL1        0.0000 
     11 O          38.4890   47.1660   58.0560 O.2       4 ALP1        0.0000 
     12 CA         40.9175   50.4445   60.4800 C.3       3 GLC5        0.0000 
     13 CA         40.3980   50.1490   58.3980 C.3       9 GLL5        0.0000 
     14 CA         41.4370   50.7400   62.5620 C.3       6 GLP5        0.0000 
     15 O          44.5640   52.6565   57.7365 O.2       1 ALC1        0.0000 
     16 O          44.4950   52.2110   56.5340 O.2       7 ALL1        0.0000 
     17 O          44.6330   53.1020   58.9390 O.2       4 ALP1        0.0000 
     18 CA         37.2830   54.4200   61.0925 C.3       3 GLC5        0.0000 
     19 CA         36.5510   53.2410   62.4790 C.3       9 GLL5        0.0000 
     20 CA         38.0150   55.5990   59.7060 C.3       6 GLP5        0.0000 
     21 CA         34.7115   52.2620   62.2800 C.3       3 GLC5        0.0000 
     22 CA         35.6725   53.4265   64.1685 C.3       3 GLC5        0.0000 
     23 CA         34.7940   53.6120   65.8580 C.3       6 GLP5        0.0000 
     24 CA         35.8485   52.4280   60.5340 C.3       3 GLC5        0.0000 
     25 CA         35.1460   51.6150   58.5890 C.3       6 GLP5        0.0000 
     26 CA         37.8977   50.6660   63.3960 C.3       3 GLC5        0.0000 
     27 CA         37.3460   51.8860   61.4660 C.3       9 GLL5        0.0000 
     28 CA         38.6040   50.0910   65.2540 C.3       6 GLP5        0.0000 
     29 CA         39.6777   51.3630   61.7205 C.3       3 GLC5        0.0000 
     30 CA         38.3543   53.0472   63.3272 C.3       3 GLC5        0.0000 
     31 CA         39.7600   53.5310   64.6820 C.3       6 GLP5        0.0000 
     32 CA         36.4936   51.6392   59.7520 C.3       3 GLC5        0.0000 
     33 CA         38.4910   52.0860   60.2920 C.3       9 GLL5        0.0000 
     34 CA         39.9970   49.4320   56.5450 C.3       3 GLC5        0.0000 
     35 CA         39.1850   49.2200   54.9450 C.3       6 GLP5        0.0000 
     36 CA         40.8645   49.6598   56.0003 C.3       3 GLC5        0.0000 
     37 CA         42.3720   49.4340   57.1740 C.3       9 GLL5        0.0000 
     38 CA         42.2290   51.9347   59.6163 C.3       3 GLC5        0.0000 
     39 CA         41.8950   51.7910   57.4330 C.3       9 GLL5        0.0000 
     40 CA         43.1450   52.2310   61.4380 C.3       6 GLP5        0.0000 
     41 CA         40.2490   50.4292   56.3697 C.3       3 GLC5        0.0000 
     42 CA         40.7310   51.4860   58.1560 C.3       9 GLL5        0.0000 
@<TRIPOS>BOND
@<TRIPOS>SUBSTRUCTURE
     1 ALC1        9 GROUP        1 X    ALC  0     ROOT ALC X 1
     2 SEC2        1 GROUP        1 X    SEC  0     **** SEC X 2
     3 GLC5        4 GROUP        1 X    GLC  0     **** GLC X 6
     4 ALP1       11 GROUP        1 Y    ALP  0     ROOT ALP Y 8
     5 SEP2        3 GROUP        1 Y    SEP  0     **** SEP Y 9
     6 GLP5        6 GROUP        1 Y    GLP  0     **** GLP Y 13
     7 ALL1       10 GROUP        1 Z    ALL  0     ROOT ALL Z 15
     8 SEL2        2 GROUP        1 Z    SEL  0     **** SEL Z 16
     9 GLL5        5 GROUP        1 Z    GLL  0     **** GLL Z 20
@<TRIPOS>SET

