#    Name: 2vgp_AD6_2_ligand
#    Modification time : Tue Mar 25 01:41:09 2014

@<TRIPOS>MOLECULE
2vgp_AD6_2_ligand
   27    28     1     0     0
SMALL
NO_CHARGES


@<TRIPOS>ATOM
      1 NAI        37.7130   49.7930   60.7740 N.2       1 AD61356     0.0000 
      2 CAH        37.0370   50.5960   61.6100 C.2       1 AD61356     0.0000 
      3 CAN        37.3460   51.8860   61.4660 C.2       1 AD61356     0.0000 
      4 SAL        38.4910   52.0860   60.2920 S.3       1 AD61356     0.0000 
      5 CAQ        38.5760   50.4240   59.9610 C.2       1 AD61356     0.0000 
      6 NAK        39.3020   49.7200   59.0650 N.pl3     1 AD61356     0.0000 
      7 CAO        40.3980   50.1490   58.3980 C.ar      1 AD61356     0.0000 
      8 CAE        41.2200   49.1390   57.8920 C.ar      1 AD61356     0.0000 
      9 CAG        42.3720   49.4340   57.1740 C.ar      1 AD61356     0.0000 
     10 CAD        40.7310   51.4860   58.1560 C.ar      1 AD61356     0.0000 
     11 CAF        41.8950   51.7910   57.4330 C.ar      1 AD61356     0.0000 
     12 CAP        42.7160   50.7650   56.9370 C.ar      1 AD61356     0.0000 
     13 CAM        43.8870   51.0460   56.2170 C.2       1 AD61356     0.0000 
     14 OAB        44.2950   50.2750   55.3490 O.2       1 AD61356     0.0000 
     15 NAJ        44.4950   52.2110   56.5340 N.am      1 AD61356     0.0000 
     16 CAA        45.7260   52.5800   55.8110 C.3       1 AD61356     0.0000 
     17 BR         36.5510   53.2410   62.4790 Br        1 AD61356     0.0000 
     18 H          36.3686   50.2572   62.2738 H         1 AD61356     0.0000 
     19 H          38.9722   48.7048   58.8584 H         1 AD61356     0.0000 
     20 H          40.9614   48.1479   58.0580 H         1 AD61356     0.0000 
     21 H          42.9683   48.6791   56.8189 H         1 AD61356     0.0000 
     22 H          40.1319   52.2378   58.5026 H         1 AD61356     0.0000 
     23 H          42.1487   52.7724   57.2652 H         1 AD61356     0.0000 
     24 H          44.1590   52.8521   57.2401 H         1 AD61356     0.0000 
     25 H          46.0922   53.4563   56.1242 H         1 AD61356     0.0000 
     26 H          46.4480   51.8993   55.9354 H         1 AD61356     0.0000 
     27 H          45.5680   52.6632   54.8271 H         1 AD61356     0.0000 
@<TRIPOS>BOND
     1    2    1 1    
     2    5    1 2    
     3    3    2 2    
     4   18    2 1    
     5    4    3 1    
     6   17    3 1    
     7    5    4 1    
     8    6    5 1    
     9    7    6 1    
    10   19    6 1    
    11    8    7 ar   
    12   10    7 ar   
    13    9    8 ar   
    14   20    8 1    
    15   12    9 ar   
    16   21    9 1    
    17   11   10 ar   
    18   22   10 1    
    19   12   11 ar   
    20   23   11 1    
    21   13   12 1    
    22   14   13 2    
    23   15   13 am   
    24   16   15 1    
    25   24   15 1    
    26   25   16 1    
    27   26   16 1    
    28   27   16 1    
@<TRIPOS>SUBSTRUCTURE
     1 AD61356     1 GROUP   
@<TRIPOS>SET

