#    Name: 2xab_VHD_1_INTS_M
#    Modification time : Tue Mar 25 05:40:40 2014

@<TRIPOS>MOLECULE
2xab_VHD_1_INTS_M
   62     0     9     0     0
SMALL
NO_CHARGES


@<TRIPOS>ATOM
      1 CA          1.0495   31.3090   -1.3075 C.3       3 GLC5        0.0000 
      2 CA          1.5700   31.0780    0.7170 C.3       9 GLL5        0.0000 
      3 CA          0.5290   31.5400   -3.3320 C.3       6 GLP5        0.0000 
      4 CA          2.8730   30.3410   -0.1110 C.3       3 GLC5        0.0000 
      5 CA          4.1760   29.6040   -0.9390 C.3       6 GLP5        0.0000 
      6 CA          0.8810   29.4945   -0.4615 C.3       3 GLC5        0.0000 
      7 CA          0.1920   27.9110   -1.6400 C.3       6 GLP5        0.0000 
      8 CA         -0.0250   29.8945    1.5685 C.3       3 GLC5        0.0000 
      9 CA         -1.6200   28.7110    2.4200 C.3       6 GLP5        0.0000 
     10 CA          3.6080   32.6870   -0.4425 C.3       3 GLC5        0.0000 
     11 CA          2.3800   33.4510    0.8000 C.3       9 GLL5        0.0000 
     12 CA          4.8360   31.9230   -1.6850 C.3       6 GLP5        0.0000 
     13 CA          4.2225   34.6795    0.7540 C.3       3 GLC5        0.0000 
     14 CA          6.0650   35.9080    0.7080 C.3       6 GLP5        0.0000 
     15 CA          3.4000   32.9440    2.3770 C.3       3 GLC5        0.0000 
     16 CA          4.4200   32.4370    3.9540 C.3       6 GLP5        0.0000 
     17 N          -2.8950   32.8125   -3.0535 N.am      2 SEC2        0.0000 
     18 N          -2.3910   34.0190   -2.9760 N.am      8 SEL2        0.0000 
     19 N          -3.3990   31.6060   -3.1310 N.am      5 SEP2        0.0000 
     20 N          -3.8500   34.1285   -2.9665 N.am      2 SEC2        0.0000 
     21 N          -5.3090   34.2380   -2.9570 N.am      5 SEP2        0.0000 
     22 CA         -0.5225   35.1435   -4.3180 C.3       3 GLC5        0.0000 
     23 CA         -1.4720   36.6600   -3.4400 C.3       9 GLL5        0.0000 
     24 CA          0.4270   33.6270   -5.1960 C.3       6 GLP5        0.0000 
     25 O          -4.9520   33.4740    0.3190 O.2       1 ALC1        0.0000 
     26 O          -3.9690   34.0230   -0.2640 O.2       7 ALL1        0.0000 
     27 O          -5.9350   32.9250    0.9020 O.2       4 ALP1        0.0000 
     28 CA         -1.4170   30.7040    2.0800 C.3       3 GLC5        0.0000 
     29 CA         -1.2140   32.6970    1.7400 C.3       9 GLL5        0.0000 
     30 CA          2.3215   31.0153    2.2363 C.3       3 GLC5        0.0000 
     31 CA          3.2090   30.2530    3.4810 C.3       6 GLP5        0.0000 
     32 CA         -1.4638   31.7103   -0.5040 C.3       3 GLC5        0.0000 
     33 CA         -0.3330   33.5240   -0.3600 C.3       9 GLL5        0.0000 
     34 CA         -2.7100   30.1890   -1.2730 C.3       6 GLP5        0.0000 
     35 CA         -3.3417   35.4273   -0.8075 C.3       3 GLC5        0.0000 
     36 CA         -1.6150   33.9090   -0.7520 C.3       9 GLL5        0.0000 
     37 CA         -4.5230   37.0630   -1.2970 C.3       6 GLP5        0.0000 
     38 CA         -0.1936   32.5551   -1.7877 C.3       3 GLC5        0.0000 
     39 CA         -3.0282   32.3762   -1.1295 C.3       3 GLC5        0.0000 
     40 CA         -3.8960   30.9610   -1.9410 C.3       6 GLP5        0.0000 
     41 CA         -2.9928   39.2203   -2.2812 C.3       3 GLC5        0.0000 
     42 CA         -1.3730   39.2700   -3.6300 C.3       9 GLL5        0.0000 
     43 CA         -4.7400   38.5750   -1.2580 C.3       6 GLP5        0.0000 
     44 CA         -2.9287   40.8163   -3.7742 C.3       3 GLC5        0.0000 
     45 CA         -4.6120   41.7670   -4.2440 C.3       6 GLP5        0.0000 
     46 CA         -2.7077   38.2010   -4.4784 C.3       3 GLC5        0.0000 
     47 CA         -4.0470   38.0860   -5.5450 C.3       6 GLP5        0.0000 
     48 CA         -1.5350   40.2858    0.3048 C.3       3 GLC5        0.0000 
     49 CA         -0.7460   40.4580   -1.6500 C.3       9 GLL5        0.0000 
     50 CA         -2.3860   40.7100    1.9170 C.3       6 GLP5        0.0000 
     51 CA         -2.7120   39.2182   -1.2828 C.3       3 GLC5        0.0000 
     52 CA         -0.6220   39.2650   -0.9650 C.3       9 GLL5        0.0000 
     53 CA         -1.7212   34.4120    2.2335 C.3       3 GLC5        0.0000 
     54 CA         -2.7060   33.6740    0.1160 C.3       9 GLL5        0.0000 
     55 CA         -0.8390   35.4560    3.7360 C.3       6 GLP5        0.0000 
     56 CA         -3.9172   34.5220    1.8270 C.3       3 GLC5        0.0000 
     57 CA         -2.5010   33.0620    1.3460 C.3       9 GLL5        0.0000 
     58 CA         -5.2310   35.6760    2.9230 C.3       6 GLP5        0.0000 
     59 CA         -2.2837   31.5343    0.1350 C.3       3 GLC5        0.0000 
     60 CA         -0.5735   34.0793    2.5725 C.3       3 GLC5        0.0000 
     61 CA         -2.8096   37.2114   -1.7854 C.3       3 GLC5        0.0000 
     62 CA         -0.8740   38.0600   -1.6150 C.3       9 GLL5        0.0000 
@<TRIPOS>BOND
@<TRIPOS>SUBSTRUCTURE
     1 ALC1       25 GROUP        1 X    ALC  0     ROOT ALC X 1
     2 SEC2       17 GROUP        1 X    SEC  0     **** SEC X 2
     3 GLC5        1 GROUP        1 X    GLC  0     **** GLC X 6
     4 ALP1       27 GROUP        1 Y    ALP  0     ROOT ALP Y 8
     5 SEP2       19 GROUP        1 Y    SEP  0     **** SEP Y 9
     6 GLP5        3 GROUP        1 Y    GLP  0     **** GLP Y 13
     7 ALL1       26 GROUP        1 Z    ALL  0     ROOT ALL Z 15
     8 SEL2       18 GROUP        1 Z    SEL  0     **** SEL Z 16
     9 GLL5        2 GROUP        1 Z    GLL  0     **** GLL Z 20
@<TRIPOS>SET

