#    Name: 2xab_VHD_1_ligand
#    Modification time : Tue Mar 25 05:40:40 2014

@<TRIPOS>MOLECULE
2xab_VHD_1_ligand
   41    43     1     0     0
SMALL
NO_CHARGES


@<TRIPOS>ATOM
      1 C1          1.5700   31.0780    0.7170 C.3       1 VHD1224     0.0000 
      2 C2          1.2980   32.4770    1.2660 C.3       1 VHD1224     0.0000 
      3 C3          2.3800   33.4510    0.8000 C.3       1 VHD1224     0.0000 
      4 C4         -0.1020   32.9390    0.8900 C.ar      1 VHD1224     0.0000 
      5 C5         -0.3330   33.5240   -0.3600 C.ar      1 VHD1224     0.0000 
      6 C6         -1.6150   33.9090   -0.7520 C.ar      1 VHD1224     0.0000 
      7 C7         -1.7930   34.5850   -2.0730 C.2       1 VHD1224     0.0000 
      8 O8         -2.3910   34.0190   -2.9760 O.2       1 VHD1224     0.0000 
      9 N9         -1.3150   35.8650   -2.2110 N.am      1 VHD1224     0.0000 
     10 C10        -1.4720   36.6600   -3.4400 C.3       1 VHD1224     0.0000 
     11 C11        -1.2560   38.0640   -2.9470 C.ar      1 VHD1224     0.0000 
     12 C12        -1.3730   39.2700   -3.6300 C.ar      1 VHD1224     0.0000 
     13 C13        -1.1180   40.4610   -2.9790 C.ar      1 VHD1224     0.0000 
     14 C14        -0.7460   40.4580   -1.6500 C.ar      1 VHD1224     0.0000 
     15 C15        -0.6220   39.2650   -0.9650 C.ar      1 VHD1224     0.0000 
     16 C16        -0.8740   38.0600   -1.6150 C.ar      1 VHD1224     0.0000 
     17 C17        -0.7830   36.6550   -1.0930 C.3       1 VHD1224     0.0000 
     18 C18        -2.7060   33.6740    0.1160 C.ar      1 VHD1224     0.0000 
     19 O19        -3.9690   34.0230   -0.2640 O.3       1 VHD1224     0.0000 
     20 C20        -2.5010   33.0620    1.3460 C.ar      1 VHD1224     0.0000 
     21 C21        -1.2140   32.6970    1.7400 C.ar      1 VHD1224     0.0000 
     22 O22        -1.0260   32.1340    2.9650 O.3       1 VHD1224     0.0000 
     23 H           1.3530   32.4144    2.3613 H         1 VHD1224     0.0000 
     24 H           0.4631   33.6729   -1.0039 H         1 VHD1224     0.0000 
     25 H          -2.4573   36.5656   -3.8312 H         1 VHD1224     0.0000 
     26 H          -0.7216   36.4114   -4.1526 H         1 VHD1224     0.0000 
     27 H          -1.6503   39.2702   -4.6221 H         1 VHD1224     0.0000 
     28 H          -1.2059   41.3550   -3.4878 H         1 VHD1224     0.0000 
     29 H          -0.5594   41.3512   -1.1652 H         1 VHD1224     0.0000 
     30 H          -0.3436   39.2617    0.0261 H         1 VHD1224     0.0000 
     31 H           0.2358   36.4090   -0.9023 H         1 VHD1224     0.0000 
     32 H          -1.3964   36.5539   -0.2280 H         1 VHD1224     0.0000 
     33 H          -3.2982   32.8766    1.9691 H         1 VHD1224     0.0000 
     34 H           2.4551   30.7255    1.0207 H         1 VHD1224     0.0000 
     35 H           0.8759   30.4216    1.0127 H         1 VHD1224     0.0000 
     36 H           1.5773   31.0664   -0.2829 H         1 VHD1224     0.0000 
     37 H           3.2892   33.1715    1.1087 H         1 VHD1224     0.0000 
     38 H           2.4163   33.5165   -0.1972 H         1 VHD1224     0.0000 
     39 H           2.2232   34.3750    1.1489 H         1 VHD1224     0.0000 
     40 H          -4.5270   33.9097    0.5580 H         1 VHD1224     0.0000 
     41 H          -1.9469   31.9822    3.3240 H         1 VHD1224     0.0000 
@<TRIPOS>BOND
     1    2    1 1    
     2   34    1 1    
     3   35    1 1    
     4   36    1 1    
     5    3    2 1    
     6    4    2 1    
     7   23    2 1    
     8   37    3 1    
     9   38    3 1    
    10   39    3 1    
    11    5    4 ar   
    12   21    4 ar   
    13    6    5 ar   
    14   24    5 1    
    15    7    6 1    
    16   18    6 ar   
    17    8    7 2    
    18    9    7 am   
    19   10    9 1    
    20   17    9 1    
    21   11   10 1    
    22   25   10 1    
    23   26   10 1    
    24   12   11 ar   
    25   16   11 ar   
    26   13   12 ar   
    27   27   12 1    
    28   14   13 ar   
    29   28   13 1    
    30   15   14 ar   
    31   29   14 1    
    32   16   15 ar   
    33   30   15 1    
    34   17   16 1    
    35   31   17 1    
    36   32   17 1    
    37   19   18 1    
    38   20   18 ar   
    39   40   19 1    
    40   21   20 ar   
    41   33   20 1    
    42   22   21 1    
    43   41   22 1    
@<TRIPOS>SUBSTRUCTURE
     1 VHD1224     1 GROUP   
@<TRIPOS>SET

