#    Name: 3mj4_URM_1_INTS_M
#    Modification time : Mon Mar 24 23:15:29 2014

@<TRIPOS>MOLECULE
3mj4_URM_1_INTS_M
   76     0     9     0     0
SMALL
NO_CHARGES


@<TRIPOS>ATOM
      1 CA         79.5175  -70.1030   33.7940 C.3       3 GLC5        0.0000 
      2 CA         79.3880  -69.6760   35.7150 C.3       9 GLL5        0.0000 
      3 CA         79.6470  -70.5300   31.8730 C.3       6 GLP5        0.0000 
      4 CA         81.1285  -69.6990   34.8280 C.3       3 GLC5        0.0000 
      5 CA         82.8690  -69.7220   33.9410 C.3       6 GLP5        0.0000 
      6 CA         79.3275  -71.8850   35.8935 C.3       3 GLC5        0.0000 
      7 CA         79.2670  -74.0940   36.0720 C.3       6 GLP5        0.0000 
      8 CA         77.6540  -68.3420   37.6565 C.3       3 GLC5        0.0000 
      9 CA         79.5880  -69.1560   38.0740 C.3       9 GLL5        0.0000 
     10 CA         75.7200  -67.5280   37.2390 C.3       6 GLP5        0.0000 
     11 CA         81.9515  -71.1400   36.4250 C.3       3 GLC5        0.0000 
     12 CA         80.3510  -70.4350   37.7400 C.3       9 GLL5        0.0000 
     13 CA         83.5520  -71.8450   35.1100 C.3       6 GLP5        0.0000 
     14 CA         81.4315  -73.4535   38.9115 C.3       3 GLC5        0.0000 
     15 CA         80.3870  -71.5420   38.8080 C.3       9 GLL5        0.0000 
     16 CA         82.4760  -75.3650   39.0150 C.3       6 GLP5        0.0000 
     17 N          81.1160  -67.1730   38.9725 N.am      2 SEC2        0.0000 
     18 N          80.3770  -68.3400   38.9170 N.am      8 SEL2        0.0000 
     19 N          81.8550  -66.0060   39.0280 N.am      5 SEP2        0.0000 
     20 N          76.9590  -74.3280   38.9520 N.am      2 SEC2        0.0000 
     21 N          78.2230  -74.3220   39.7630 N.am      8 SEL2        0.0000 
     22 N          75.6950  -74.3340   38.1410 N.am      5 SEP2        0.0000 
     23 N          76.3310  -73.1890   38.9025 N.am      2 SEC2        0.0000 
     24 N          76.9670  -72.0440   39.6640 N.am      8 SEL2        0.0000 
     25 O          76.0545  -69.0610   32.4475 O.2       1 ALC1        0.0000 
     26 O          76.2590  -69.4230   33.8440 O.2       7 ALL1        0.0000 
     27 O          75.8500  -68.6990   31.0510 O.2       4 ALP1        0.0000 
     28 CA         75.2470  -71.9900   33.9630 C.3       3 GLC5        0.0000 
     29 CA         76.0370  -71.1050   35.5780 C.3       9 GLL5        0.0000 
     30 CA         74.4570  -72.8750   32.3480 C.3       6 GLP5        0.0000 
     31 CA         78.3820  -71.3635   34.1115 C.3       3 GLC5        0.0000 
     32 CA         77.3070  -70.8890   35.9450 C.3       9 GLL5        0.0000 
     33 CA         79.4570  -71.8380   32.2780 C.3       6 GLP5        0.0000 
     34 N          79.4600  -67.3560   33.8255 N.am      2 SEC2        0.0000 
     35 N          78.2320  -68.4030   33.6460 N.am      8 SEL2        0.0000 
     36 N          80.6880  -66.3090   34.0050 N.am      5 SEP2        0.0000 
     37 N          73.2075  -70.8560   35.3000 N.am      2 SEC2        0.0000 
     38 N          74.2960  -70.4960   34.1480 N.am      8 SEL2        0.0000 
     39 N          72.1190  -71.2160   36.4520 N.am      5 SEP2        0.0000 
     40 N          81.2050  -66.7935   37.7275 N.am      2 SEC2        0.0000 
     41 N          80.5550  -67.5810   36.4270 N.am      8 SEL2        0.0000 
     42 O          80.6215  -66.9450   35.2160 O.2       1 ALC1        0.0000 
     43 O          80.5550  -67.5810   36.4270 O.2       7 ALL1        0.0000 
     44 O          80.6880  -66.3090   34.0050 O.2       4 ALP1        0.0000 
     45 N          74.7410  -69.2205   39.2110 N.am      2 SEC2        0.0000 
     46 N          75.4970  -70.1060   39.7330 N.am      8 SEL2        0.0000 
     47 N          73.9850  -68.3350   38.6890 N.am      5 SEP2        0.0000 
     48 CA         75.3935  -73.0830   46.5240 C.3       3 GLC5        0.0000 
     49 CA         75.1090  -73.9580   44.5000 C.3       9 GLL5        0.0000 
     50 CA         75.6780  -72.2080   48.5480 C.3       6 GLP5        0.0000 
     51 CA         74.8170  -71.7380   46.4745 C.3       3 GLC5        0.0000 
     52 CA         74.5130  -72.5170   44.6230 C.3       9 GLL5        0.0000 
     53 CA         75.1210  -70.9590   48.3260 C.3       6 GLP5        0.0000 
     54 CA         72.7200  -70.5795   42.2840 C.3       3 GLC5        0.0000 
     55 CA         73.7550  -72.1430   43.3220 C.3       9 GLL5        0.0000 
     56 CA         71.6850  -69.0160   41.2460 C.3       6 GLP5        0.0000 
     57 O          73.9845  -75.2730   45.7815 O.2       1 ALC1        0.0000 
     58 O          74.0430  -74.9480   44.4240 O.2       7 ALL1        0.0000 
     59 O          73.9260  -75.5980   47.1390 O.2       4 ALP1        0.0000 
     60 O          73.7515  -74.0130   46.4295 O.2       1 ALC1        0.0000 
     61 O          73.5770  -72.4280   45.7200 O.2       7 ALL1        0.0000 
     62 O          74.3060  -72.8740   46.8865 O.2       1 ALC1        0.0000 
     63 O          75.0350  -73.3200   48.0530 O.2       4 ALP1        0.0000 
     64 CA         76.2460  -77.1065   42.8980 C.3       3 GLC5        0.0000 
     65 CA         76.7870  -75.3550   43.0600 C.3       9 GLL5        0.0000 
     66 CA         75.7050  -78.8580   42.7360 C.3       6 GLP5        0.0000 
     67 CA         77.7700  -68.0255   36.1218 C.3       3 GLC5        0.0000 
     68 CA         76.1010  -66.9650   36.0310 C.3       6 GLP5        0.0000 
     69 CA         81.9162  -69.2837   37.9655 C.3       3 GLC5        0.0000 
     70 CA         83.8630  -68.7720   38.0240 C.3       6 GLP5        0.0000 
     71 CA         79.8180  -72.5412   37.1730 C.3       3 GLC5        0.0000 
     72 CA         76.1960  -69.2625   36.5003 C.3       3 GLC5        0.0000 
     73 CA         77.9695  -72.5455   35.9168 C.3       3 GLC5        0.0000 
     74 CA         75.7883  -75.4290   41.3635 C.3       3 GLC5        0.0000 
     75 CA         76.0820  -73.9790   43.2780 C.3       9 GLL5        0.0000 
     76 CA         75.1420  -76.1910   39.5580 C.3       6 GLP5        0.0000 
@<TRIPOS>BOND
@<TRIPOS>SUBSTRUCTURE
     1 ALC1       25 GROUP        1 X    ALC  0     ROOT ALC X 1
     2 SEC2       17 GROUP        1 X    SEC  0     **** SEC X 2
     3 GLC5        1 GROUP        1 X    GLC  0     **** GLC X 6
     4 ALP1       27 GROUP        1 Y    ALP  0     ROOT ALP Y 8
     5 SEP2       19 GROUP        1 Y    SEP  0     **** SEP Y 9
     6 GLP5        3 GROUP        1 Y    GLP  0     **** GLP Y 13
     7 ALL1       26 GROUP        1 Z    ALL  0     ROOT ALL Z 15
     8 SEL2       18 GROUP        1 Z    SEL  0     **** SEL Z 16
     9 GLL5        2 GROUP        1 Z    GLL  0     **** GLL Z 20
@<TRIPOS>SET

