#    Name: 3mj4_URM_1_ligand
#    Modification time : Mon Mar 24 23:15:29 2014

@<TRIPOS>MOLECULE
3mj4_URM_1_ligand
   60    62     1     0     0
SMALL
NO_CHARGES


@<TRIPOS>ATOM
      1 C1         79.3880  -69.6760   35.7150 C.3       1 URM600      0.0000 
      2 C2         79.4900  -68.4960   36.7100 C.3       1 URM600      0.0000 
      3 C3         79.5880  -69.1560   38.0740 C.3       1 URM600      0.0000 
      4 C4         80.3510  -70.4350   37.7400 C.3       1 URM600      0.0000 
      5 C5         80.3870  -71.5420   38.8080 C.3       1 URM600      0.0000 
      6 O6         80.0490  -70.7750   36.3830 O.3       1 URM600      0.0000 
      7 O7         80.3770  -68.3400   38.9170 O.3       1 URM600      0.0000 
      8 O8         79.2670  -72.4040   38.5980 O.3       1 URM600      0.0000 
      9 P9         78.3390  -72.8360   39.8130 P.3       1 URM600      0.0000 
     10 O10        79.0200  -72.4850   41.0980 O.co2     1 URM600      0.0000 
     11 O11        78.2230  -74.3220   39.7630 O.co2     1 URM600      0.0000 
     12 O12        76.9670  -72.0440   39.6640 O.3       1 URM600      0.0000 
     13 N13        78.0480  -69.9720   35.2650 N.am      1 URM600      0.0000 
     14 N15        76.2590  -69.4230   33.8440 N.am      1 URM600      0.0000 
     15 C17        76.0370  -71.1050   35.5780 C.2       1 URM600      0.0000 
     16 C18        77.3070  -70.8890   35.9450 C.2       1 URM600      0.0000 
     17 C19        77.4260  -69.3720   34.3350 C.2       1 URM600      0.0000 
     18 O19        78.2320  -68.4030   33.6460 O.2       1 URM600      0.0000 
     19 C20        75.4690  -70.3270   34.4630 C.2       1 URM600      0.0000 
     20 O20        74.2960  -70.4960   34.1480 O.2       1 URM600      0.0000 
     21 O21        80.5550  -67.5810   36.4270 O.3       1 URM600      0.0000 
     22 P22        76.4810  -70.8310   40.5910 P.3       1 URM600      0.0000 
     23 O23        77.4930  -69.8030   40.9900 O.co2     1 URM600      0.0000 
     24 O24        75.4970  -70.1060   39.7330 O.co2     1 URM600      0.0000 
     25 O36        75.3720  -73.6130   42.0570 O.3       1 URM600      0.0000 
     26 C37        76.0820  -73.9790   43.2780 C.3       1 URM600      0.0000 
     27 C38        75.1090  -73.9580   44.5000 C.3       1 URM600      0.0000 
     28 C39        74.5130  -72.5170   44.6230 C.3       1 URM600      0.0000 
     29 C40        73.7550  -72.1430   43.3220 C.3       1 URM600      0.0000 
     30 C41        74.6750  -72.3280   42.0740 C.3       1 URM600      0.0000 
     31 O42        74.0430  -74.9480   44.4240 O.3       1 URM600      0.0000 
     32 O43        73.5770  -72.4280   45.7200 O.3       1 URM600      0.0000 
     33 O44        73.1290  -70.8320   43.3790 O.3       1 URM600      0.0000 
     34 C45        75.7010  -71.3210   41.9110 C.3       1 URM600      0.0000 
     35 C46        76.7870  -75.3550   43.0600 C.3       1 URM600      0.0000 
     36 O47        77.4540  -75.8070   44.2620 O.3       1 URM600      0.0000 
     37 H          80.0266  -69.3758   34.8547 H         1 URM600      0.0000 
     38 H          78.5070  -67.9985   36.6780 H         1 URM600      0.0000 
     39 H          78.6473  -69.3901   38.4177 H         1 URM600      0.0000 
     40 H          81.4714  -70.0396   37.6994 H         1 URM600      0.0000 
     41 H          80.3556  -71.0601   39.7841 H         1 URM600      0.0000 
     42 H          81.3344  -72.0691   38.7053 H         1 URM600      0.0000 
     43 H          75.9134  -68.8677   33.0745 H         1 URM600      0.0000 
     44 H          75.4225  -71.7839   36.0249 H         1 URM600      0.0000 
     45 H          77.7294  -71.4088   36.7359 H         1 URM600      0.0000 
     46 H          76.8682  -73.2424   43.4721 H         1 URM600      0.0000 
     47 H          75.7190  -74.1092   45.3950 H         1 URM600      0.0000 
     48 H          75.3236  -71.8260   44.7397 H         1 URM600      0.0000 
     49 H          72.9523  -72.9231   43.2106 H         1 URM600      0.0000 
     50 H          74.0133  -72.2989   41.1811 H         1 URM600      0.0000 
     51 H          75.3283  -70.3076   42.3976 H         1 URM600      0.0000 
     52 H          76.5763  -71.5335   42.6800 H         1 URM600      0.0000 
     53 H          77.4930  -75.2276   42.2286 H         1 URM600      0.0000 
     54 H          76.0152  -76.0648   42.7338 H         1 URM600      0.0000 
     55 H          81.2937  -68.7376   38.8777 H         1 URM600      0.0000 
     56 H          80.4051  -67.2943   35.4808 H         1 URM600      0.0000 
     57 H          73.5485  -74.8627   45.2890 H         1 URM600      0.0000 
     58 H          73.9492  -73.0292   46.4271 H         1 URM600      0.0000 
     59 H          73.8577  -70.2096   43.6647 H         1 URM600      0.0000 
     60 H          77.6942  -74.9706   44.7547 H         1 URM600      0.0000 
@<TRIPOS>BOND
     1    2    1 1    
     2    6    1 1    
     3   13    1 1    
     4   37    1 1    
     5    3    2 1    
     6   21    2 1    
     7   38    2 1    
     8    4    3 1    
     9    7    3 1    
    10   39    3 1    
    11    5    4 1    
    12    6    4 1    
    13   40    4 1    
    14    8    5 1    
    15   41    5 1    
    16   42    5 1    
    17   55    7 1    
    18    9    8 1    
    19   10    9 ar   
    20   11    9 ar   
    21   12    9 1    
    22   22   12 1    
    23   16   13 1    
    24   17   13 1    
    25   17   14 1    
    26   19   14 1    
    27   43   14 1    
    28   16   15 2    
    29   19   15 1    
    30   44   15 1    
    31   45   16 1    
    32   18   17 2    
    33   20   19 2    
    34   56   21 1    
    35   23   22 ar   
    36   24   22 ar   
    37   34   22 1    
    38   26   25 1    
    39   30   25 1    
    40   27   26 1    
    41   35   26 1    
    42   46   26 1    
    43   28   27 1    
    44   31   27 1    
    45   47   27 1    
    46   29   28 1    
    47   32   28 1    
    48   48   28 1    
    49   30   29 1    
    50   33   29 1    
    51   49   29 1    
    52   34   30 1    
    53   50   30 1    
    54   57   31 1    
    55   58   32 1    
    56   59   33 1    
    57   51   34 1    
    58   52   34 1    
    59   36   35 1    
    60   53   35 1    
    61   54   35 1    
    62   60   36 1    
@<TRIPOS>SUBSTRUCTURE
     1 URM600      1 GROUP   
@<TRIPOS>SET

