#    Name: 4IMF_1_CAVITY_N1_6.mol2
#    Modification time : Tue Mar 11 05:42:17 2014

@<TRIPOS>MOLECULE
4IMF_1_CAVITY_N1_6.mol2
   88     0     6     0     0
SMALL
NO_CHARGES


@<TRIPOS>ATOM
      1 NZ         32.5605   26.7912   17.8763 N.2       3 LYS4        0.0000 
      2 NZ         30.1768   25.3623   19.7541 N.2       3 LYS4        0.0000 
      3 NZ         30.7056   25.9606   18.4843 N.2       3 LYS4        0.0000 
      4 NZ         32.8970   27.7808   20.2548 N.2       3 LYS4        0.0000 
      5 NZ         33.4259   28.3792   18.9851 N.2       3 LYS4        0.0000 
      6 CA         33.9548   28.9775   17.7153 C.3       5 GLY6        0.0000 
      7 CZ         31.0422   26.9503   20.8628 C.ar      4 PHE5        0.0000 
      8 NZ         31.5711   27.5486   19.5931 N.2       3 LYS4        0.0000 
      9 CA         32.0999   28.1469   18.3233 C.3       5 GLY6        0.0000 
     10 N          29.1873   26.1197   21.4709 N.2       2 ALA2        0.0000 
     11 N          29.7162   26.7180   20.2011 N.2       2 ALA2        0.0000 
     12 CA         30.2451   27.3163   18.9313 C.3       5 GLY6        0.0000 
     13 CA         30.7740   27.9147   17.6616 C.3       5 GLY6        0.0000 
     14 N          27.3325   25.2891   22.0789 N.2       2 ALA2        0.0000 
     15 N          27.8614   25.8874   20.8091 N.2       2 ALA2        0.0000 
     16 OG         28.3902   26.4858   19.5394 O.2       1 SER1        0.0000 
     17 OG         28.9191   27.0841   18.2696 O.2       1 SER1        0.0000 
     18 CZ         32.4365   29.1366   20.7018 C.ar      4 PHE5        0.0000 
     19 CZ         32.9654   29.7349   19.4321 C.ar      4 PHE5        0.0000 
     20 CA         33.4942   30.3332   18.1623 C.3       5 GLY6        0.0000 
     21 CZ         30.0527   27.7077   22.5796 C.ar      4 PHE5        0.0000 
     22 CZ         30.5816   28.3060   21.3099 C.ar      4 PHE5        0.0000 
     23 CZ         31.1105   28.9043   20.0401 C.ar      4 PHE5        0.0000 
     24 CA         31.6394   29.5027   18.7704 C.3       5 GLY6        0.0000 
     25 CA         32.1683   30.1010   17.5006 C.3       5 GLY6        0.0000 
     26 N          28.1979   26.8771   23.1876 N.2       2 ALA2        0.0000 
     27 N          28.7268   27.4754   21.9179 N.2       2 ALA2        0.0000 
     28 DU         29.2557   28.0738   20.6481 H         6 CUB7        0.0000 
     29 CA         29.7845   28.6721   19.3784 C.3       5 GLY6        0.0000 
     30 CA         30.3134   29.2704   18.1086 C.3       5 GLY6        0.0000 
     31 OG         26.3430   26.0465   23.7957 O.2       1 SER1        0.0000 
     32 N          26.8719   26.6449   22.5259 N.2       2 ALA2        0.0000 
     33 OG         27.4008   27.2432   21.2561 O.2       1 SER1        0.0000 
     34 OG         27.9297   27.8415   19.9864 O.2       1 SER1        0.0000 
     35 CA         28.4586   28.4399   18.7166 C.3       5 GLY6        0.0000 
     36 CA         25.0171   25.8143   23.1339 C.3       5 GLY6        0.0000 
     37 OG         25.5460   26.4126   21.8642 O.2       1 SER1        0.0000 
     38 OG         26.6037   27.6093   19.3247 O.2       1 SER1        0.0000 
     39 CZ         32.5048   31.0907   19.8791 C.ar      4 PHE5        0.0000 
     40 CZ         33.0337   31.6890   18.6094 C.ar      4 PHE5        0.0000 
     41 CZ         30.1211   29.6618   21.7569 C.ar      4 PHE5        0.0000 
     42 CZ         30.6500   30.2601   20.4871 C.ar      4 PHE5        0.0000 
     43 CZ         31.1788   30.8584   19.2174 C.ar      4 PHE5        0.0000 
     44 CA         31.7077   31.4568   17.9476 C.3       5 GLY6        0.0000 
     45 CA         32.2366   32.0551   16.6779 C.3       5 GLY6        0.0000 
     46 CA         28.2662   28.8312   22.3649 C.3       5 GLY6        0.0000 
     47 CZ         28.7951   29.4295   21.0951 C.ar      4 PHE5        0.0000 
     48 CZ         29.3240   30.0278   19.8254 C.ar      4 PHE5        0.0000 
     49 CA         29.8529   30.6262   18.5556 C.3       5 GLY6        0.0000 
     50 CA         30.3818   31.2245   17.2859 C.3       5 GLY6        0.0000 
     51 CA         30.9107   31.8228   16.0161 C.3       5 GLY6        0.0000 
     52 OG         25.8825   27.4023   24.2427 O.2       1 SER1        0.0000 
     53 OG         26.4114   28.0006   22.9729 O.2       1 SER1        0.0000 
     54 OG         26.9403   28.5989   21.7032 O.2       1 SER1        0.0000 
     55 OG         27.4691   29.1973   20.4334 O.2       1 SER1        0.0000 
     56 OG         27.9980   29.7956   19.1637 O.2       1 SER1        0.0000 
     57 OG         24.5565   27.1700   23.5809 O.2       1 SER1        0.0000 
     58 OG         25.0854   27.7684   22.3112 O.2       1 SER1        0.0000 
     59 CZ         32.5731   33.0447   19.0564 C.ar      4 PHE5        0.0000 
     60 CZ         31.2472   32.8125   18.3946 C.ar      4 PHE5        0.0000 
     61 CA         27.8057   30.1869   22.8119 C.3       5 GLY6        0.0000 
     62 CZ         28.3346   30.7853   21.5422 C.ar      4 PHE5        0.0000 
     63 CZ         28.8634   31.3836   20.2724 C.ar      4 PHE5        0.0000 
     64 CZ         29.3923   31.9819   19.0027 C.ar      4 PHE5        0.0000 
     65 CA         29.9212   32.5803   17.7329 C.3       5 GLY6        0.0000 
     66 OG         25.9508   29.3564   23.4199 O.2       1 SER1        0.0000 
     67 CA         26.4797   29.9547   22.1502 C.3       5 GLY6        0.0000 
     68 OG         27.0086   30.5530   20.8804 O.2       1 SER1        0.0000 
     69 OG         28.0664   31.7497   18.3409 O.2       1 SER1        0.0000 
     70 CA         28.5953   32.3480   17.0712 C.3       5 GLY6        0.0000 
     71 OG         24.6249   29.1241   22.7582 O.2       1 SER1        0.0000 
     72 CA         25.1537   29.7225   21.4885 C.3       5 GLY6        0.0000 
     73 CZ         27.2693   32.1158   16.4094 C.ar      4 PHE5        0.0000 
     74 CZ         30.7866   34.1683   18.8417 C.ar      4 PHE5        0.0000 
     75 CA         27.8740   32.1410   21.9892 C.3       5 GLY6        0.0000 
     76 CZ         28.4029   32.7394   20.7194 C.ar      4 PHE5        0.0000 
     77 CZ         28.9318   33.3377   19.4497 C.ar      4 PHE5        0.0000 
     78 DU         29.4607   33.9360   18.1799 H         6 CUB7        0.0000 
     79 CA         26.5480   31.9088   21.3275 C.3       5 GLY6        0.0000 
     80 OG         27.0769   32.5071   20.0577 O.2       1 SER1        0.0000 
     81 OG         27.6058   33.1054   18.7880 O.2       1 SER1        0.0000 
     82 OG         28.1347   33.7038   17.5182 O.2       1 SER1        0.0000 
     83 CZ         26.8087   33.4715   16.8565 C.ar      4 PHE5        0.0000 
     84 CA         28.4712   34.6934   19.8967 C.3       5 GLY6        0.0000 
     85 O          29.0001   35.2918   18.6270 O.2       2 ALA2        0.0000 
     86 CA         26.6164   33.8629   20.5047 C.3       5 GLY6        0.0000 
     87 CZ         27.1453   34.4612   19.2350 C.ar      4 PHE5        0.0000 
     88 CZ         27.6742   35.0595   17.9652 C.ar      4 PHE5        0.0000 
@<TRIPOS>BOND
@<TRIPOS>SUBSTRUCTURE
     1 SER1       16 GROUP   
     2 ALA2       10 GROUP   
     3 LYS4        1 GROUP   
     4 PHE5        7 GROUP   
     5 GLY6        6 GROUP   
     6 CUB7       28 GROUP   
@<TRIPOS>SET

