#    Name: 4imf_SI3_1_INTS_M
#    Modification time : Tue Mar 25 04:09:05 2014

@<TRIPOS>MOLECULE
4imf_SI3_1_INTS_M
   67     0     9     0     0
SMALL
NO_CHARGES


@<TRIPOS>ATOM
      1 N          22.4485   28.9075   21.6400 N.am      2 SEC2        0.0000 
      2 N          22.5880   27.9350   22.8820 N.am      8 SEL2        0.0000 
      3 N          22.3090   29.8800   20.3980 N.am      5 SEP2        0.0000 
      4 N          23.1845   29.4430   21.1305 N.am      2 SEC2        0.0000 
      5 N          24.0600   29.0060   21.8630 N.am      8 SEL2        0.0000 
      6 N          23.9915   28.2925   20.7680 N.am      2 SEC2        0.0000 
      7 N          23.9230   27.5790   19.6730 N.am      5 SEP2        0.0000 
      8 N          24.7905   29.2045   24.6120 N.am      2 SEC2        0.0000 
      9 N          25.4970   28.2910   24.1010 N.am      8 SEL2        0.0000 
     10 N          24.0840   30.1180   25.1230 N.am      5 SEP2        0.0000 
     11 CA         23.7360   25.4025   22.1165 C.3       3 GLC5        0.0000 
     12 CA         25.2910   26.1090   22.9130 C.3       9 GLL5        0.0000 
     13 CA         22.1810   24.6960   21.3200 C.3       6 GLP5        0.0000 
     14 CA         24.3625   24.6625   23.8840 C.3       3 GLC5        0.0000 
     15 CA         23.4340   23.2160   24.8550 C.3       6 GLP5        0.0000 
     16 N          27.6325   26.6825   25.2145 N.am      2 SEC2        0.0000 
     17 N          27.4210   26.3210   23.8330 N.am      8 SEL2        0.0000 
     18 N          27.8440   27.0440   26.5960 N.am      5 SEP2        0.0000 
     19 O          28.4955   25.5070   23.7145 O.2       1 ALC1        0.0000 
     20 O          27.4210   26.3210   23.8330 O.2       7 ALL1        0.0000 
     21 O          29.5700   24.6930   23.5960 O.2       4 ALP1        0.0000 
     22 CA         25.5325   31.2315   22.0225 C.3       3 GLC5        0.0000 
     23 CA         27.3320   30.5710   21.6600 C.3       9 GLL5        0.0000 
     24 CA         23.7330   31.8920   22.3850 C.3       6 GLP5        0.0000 
     25 CA         27.3655   31.0170   23.3720 C.3       3 GLC5        0.0000 
     26 CA         27.3990   31.4630   25.0840 C.3       6 GLP5        0.0000 
     27 CA         29.1235   31.4030   21.9010 C.3       3 GLC5        0.0000 
     28 CA         30.9150   32.2350   22.1420 C.3       6 GLP5        0.0000 
     29 CA         27.2740   32.5550   22.3095 C.3       3 GLC5        0.0000 
     30 CA         27.2160   34.5390   22.9590 C.3       6 GLP5        0.0000 
     31 N          26.2050   29.9950   19.2545 N.am      2 SEC2        0.0000 
     32 N          26.9370   28.9870   19.8410 N.am      8 SEL2        0.0000 
     33 N          25.4730   31.0030   18.6680 N.am      5 SEP2        0.0000 
     34 N          26.7880   24.1540   19.9675 N.am      2 SEC2        0.0000 
     35 N          27.9810   24.7820   20.5740 N.am      8 SEL2        0.0000 
     36 N          25.5950   23.5260   19.3610 N.am      5 SEP2        0.0000 
     37 O          28.7755   24.7375   22.0850 O.2       1 ALC1        0.0000 
     38 O          27.9810   24.7820   20.5740 O.2       7 ALL1        0.0000 
     39 O          28.5720   23.5900   20.7295 O.2       1 ALC1        0.0000 
     40 O          29.1630   22.3980   20.8850 O.2       4 ALP1        0.0000 
     41 CA         27.4435   25.9800   18.6915 C.3       3 GLC5        0.0000 
     42 CA         29.2890   26.6620   19.7470 C.3       9 GLL5        0.0000 
     43 CA         25.5980   25.2980   17.6360 C.3       6 GLP5        0.0000 
     44 N          27.6540   26.1280   18.0860 N.am      2 SEC2        0.0000 
     45 N          28.3050   27.0530   18.8070 N.am      8 SEL2        0.0000 
     46 N          27.0030   25.2030   17.3650 N.am      5 SEP2        0.0000 
     47 N          31.4240   23.7615   20.8725 N.am      2 SEC2        0.0000 
     48 N          31.0750   25.0640   20.1650 N.am      8 SEL2        0.0000 
     49 N          31.7730   22.4590   21.5800 N.am      5 SEP2        0.0000 
     50 O          32.2460   24.6870   19.8715 O.2       1 ALC1        0.0000 
     51 O          31.0750   25.0640   20.1650 O.2       7 ALL1        0.0000 
     52 O          33.4170   24.3100   19.5780 O.2       4 ALP1        0.0000 
     53 CA         32.5235   25.2445   16.7815 C.3       3 GLC5        0.0000 
     54 CA         31.3260   26.4290   18.2140 C.3       9 GLL5        0.0000 
     55 CA         33.7210   24.0600   15.3490 C.3       6 GLP5        0.0000 
     56 CA         31.9505   27.6955   16.6855 C.3       3 GLC5        0.0000 
     57 CA         32.5750   28.9620   15.1570 C.3       6 GLP5        0.0000 
     58 CA         30.0380   26.9615   16.4730 C.3       3 GLC5        0.0000 
     59 CA         28.7500   27.4940   14.7320 C.3       6 GLP5        0.0000 
     60 O          33.2220   26.8465   19.0960 O.2       1 ALC1        0.0000 
     61 O          31.8880   27.5510   18.8770 O.2       7 ALL1        0.0000 
     62 O          34.5560   26.1420   19.3150 O.2       4 ALP1        0.0000 
     63 CA         26.0205   24.0463   22.0012 C.3       3 GLC5        0.0000 
     64 CA         26.7590   25.8740   22.6220 C.3       9 GLL5        0.0000 
     65 CA         26.0160   22.1010   21.2350 C.3       6 GLP5        0.0000 
     66 CA         26.7492   25.8397   19.4100 C.3       3 GLC5        0.0000 
     67 CA         27.2830   26.7190   21.4320 C.3       9 GLL5        0.0000 
@<TRIPOS>BOND
@<TRIPOS>SUBSTRUCTURE
     1 ALC1       19 GROUP        1 X    ALC  0     ROOT ALC X 1
     2 SEC2        1 GROUP        1 X    SEC  0     **** SEC X 2
     3 GLC5       11 GROUP        1 X    GLC  0     **** GLC X 6
     4 ALP1       21 GROUP        1 Y    ALP  0     ROOT ALP Y 8
     5 SEP2        3 GROUP        1 Y    SEP  0     **** SEP Y 9
     6 GLP5       13 GROUP        1 Y    GLP  0     **** GLP Y 13
     7 ALL1       20 GROUP        1 Z    ALL  0     ROOT ALL Z 15
     8 SEL2        2 GROUP        1 Z    SEL  0     **** SEL Z 16
     9 GLL5       12 GROUP        1 Z    GLL  0     **** GLL Z 20
@<TRIPOS>SET

