#    Name: 4imf_SI3_1_ligand
#    Modification time : Tue Mar 25 04:09:05 2014

@<TRIPOS>MOLECULE
4imf_SI3_1_ligand
   39    38     1     0     0
SMALL
NO_CHARGES


@<TRIPOS>ATOM
      1 O1A        22.5880   27.9350   22.8820 O.co2     1 SI3301      0.0000 
      2 C1         23.8190   28.1160   22.6280 C.2       1 SI3301      0.0000 
      3 O1B        24.0600   29.0060   21.8630 O.co2     1 SI3301      0.0000 
      4 C2         24.9280   27.5310   23.2700 C.2       1 SI3301      0.0000 
      5 O2         25.4970   28.2910   24.1010 O.2       1 SI3301      0.0000 
      6 C3         25.2910   26.1090   22.9130 C.3       1 SI3301      0.0000 
      7 C4         26.7590   25.8740   22.6220 C.3       1 SI3301      0.0000 
      8 O4         27.4210   26.3210   23.8330 O.3       1 SI3301      0.0000 
      9 C5         27.2830   26.7190   21.4320 C.3       1 SI3301      0.0000 
     10 N5         27.5410   28.1320   21.8460 N.am      1 SI3301      0.0000 
     11 C10        27.2600   29.1830   21.0550 C.2       1 SI3301      0.0000 
     12 C11        27.3320   30.5710   21.6600 C.3       1 SI3301      0.0000 
     13 O10        26.9370   28.9870   19.8410 O.2       1 SI3301      0.0000 
     14 C6         28.5180   26.0440   20.9360 C.3       1 SI3301      0.0000 
     15 O6         27.9810   24.7820   20.5740 O.3       1 SI3301      0.0000 
     16 C7         29.2890   26.6620   19.7470 C.3       1 SI3301      0.0000 
     17 O7         28.3050   27.0530   18.8070 O.3       1 SI3301      0.0000 
     18 C8         30.3190   25.7470   19.1130 C.3       1 SI3301      0.0000 
     19 O8         31.0750   25.0640   20.1650 O.3       1 SI3301      0.0000 
     20 C9         31.3260   26.4290   18.2140 C.3       1 SI3301      0.0000 
     21 O9         31.8880   27.5510   18.8770 O.3       1 SI3301      0.0000 
     22 H          24.6964   25.7957   22.0287 H         1 SI3301      0.0000 
     23 H          24.9785   25.4379   23.7411 H         1 SI3301      0.0000 
     24 H          26.9353   24.8525   22.4511 H         1 SI3301      0.0000 
     25 H          26.5275   26.6855   20.6619 H         1 SI3301      0.0000 
     26 H          27.9549   28.2413   22.7935 H         1 SI3301      0.0000 
     27 H          29.1936   25.9023   21.7734 H         1 SI3301      0.0000 
     28 H          29.7983   27.5518   20.1344 H         1 SI3301      0.0000 
     29 H          29.7964   24.9870   18.5244 H         1 SI3301      0.0000 
     30 H          30.8105   26.7203   17.2871 H         1 SI3301      0.0000 
     31 H          32.0941   25.6897   17.9430 H         1 SI3301      0.0000 
     32 H          28.2457   30.7763   22.0107 H         1 SI3301      0.0000 
     33 H          27.1087   31.2798   20.9909 H         1 SI3301      0.0000 
     34 H          26.6945   30.6770   22.4231 H         1 SI3301      0.0000 
     35 H          27.9332   25.5254   24.1566 H         1 SI3301      0.0000 
     36 H          28.4011   24.1311   21.2063 H         1 SI3301      0.0000 
     37 H          27.5382   27.3833   19.3574 H         1 SI3301      0.0000 
     38 H          32.0346   25.2573   19.9609 H         1 SI3301      0.0000 
     39 H          32.8172   27.2705   19.1178 H         1 SI3301      0.0000 
@<TRIPOS>BOND
     1    2    1 ar   
     2    3    2 ar   
     3    4    2 1    
     4    5    4 2    
     5    6    4 1    
     6    7    6 1    
     7   22    6 1    
     8   23    6 1    
     9    8    7 1    
    10    9    7 1    
    11   24    7 1    
    12   35    8 1    
    13   10    9 1    
    14   14    9 1    
    15   25    9 1    
    16   11   10 am   
    17   26   10 1    
    18   12   11 1    
    19   13   11 2    
    20   32   12 1    
    21   33   12 1    
    22   34   12 1    
    23   15   14 1    
    24   16   14 1    
    25   27   14 1    
    26   36   15 1    
    27   17   16 1    
    28   18   16 1    
    29   28   16 1    
    30   37   17 1    
    31   19   18 1    
    32   20   18 1    
    33   29   18 1    
    34   38   19 1    
    35   21   20 1    
    36   30   20 1    
    37   31   20 1    
    38   39   21 1    
@<TRIPOS>SUBSTRUCTURE
     1 SI3301      1 GROUP   
@<TRIPOS>SET

