#    Name: 4BQY_1_CAVITY_N1_ALL.mol2
#    Modification time : Tue Mar 11 20:22:36 2014

@<TRIPOS>MOLECULE
4BQY_1_CAVITY_N1_ALL.mol2
   73     0     7     0     0
SMALL
NO_CHARGES


@<TRIPOS>ATOM
      1 OG        -46.7559  -19.2122    3.7557 O.2       1 SER1        0.0000 
      2 NZ        -44.9757  -17.7888    2.5087 N.2       4 LYS4        0.0000 
      3 CZ        -44.6771  -18.8968    3.4748 C.ar      5 PHE5        0.0000 
      4 CA        -43.7810  -22.2207    6.3728 C.3       6 GLY6        0.0000 
      5 OG        -45.7186  -19.7519    2.8160 O.2       1 SER1        0.0000 
      6 OG        -44.8226  -23.0758    5.7141 O.2       1 SER1        0.0000 
      7 CA        -44.5239  -24.1837    6.6802 C.3       6 GLY6        0.0000 
      8 CA        -47.0589  -19.4990    1.1913 C.3       6 GLY6        0.0000 
      9 N         -45.5655  -25.0388    6.0214 N.2       2 ALA2        0.0000 
     10 CZ        -41.2580  -18.8342    4.8186 C.ar      5 PHE5        0.0000 
     11 CZ        -42.5982  -18.5813    3.1938 C.ar      5 PHE5        0.0000 
     12 CZ        -42.2995  -19.6893    4.1599 C.ar      5 PHE5        0.0000 
     13 N         -42.0009  -20.7972    5.1259 N.2       2 ALA2        0.0000 
     14 CA        -43.9385  -18.3284    1.5691 C.3       6 GLY6        0.0000 
     15 CA        -43.6398  -19.4364    2.5351 C.3       6 GLY6        0.0000 
     16 OG        -43.3411  -20.5444    3.5012 O.2       1 SER1        0.0000 
     17 OG        -43.0424  -21.6523    4.4672 O.2       1 SER1        0.0000 
     18 CA        -42.7438  -22.7603    5.4332 C.3       6 GLY6        0.0000 
     19 CA        -44.9801  -19.1835    0.9104 C.3       6 GLY6        0.0000 
     20 CA        -44.6814  -20.2915    1.8764 C.3       6 GLY6        0.0000 
     21 OG        -44.3827  -21.3995    2.8424 O.2       1 SER1        0.0000 
     22 OG        -44.0840  -22.5074    3.8085 O.2       1 SER1        0.0000 
     23 NZ        -43.7854  -23.6154    4.7745 N.2       4 LYS4        0.0000 
     24 CA        -43.4867  -24.7234    5.7405 C.3       6 GLY6        0.0000 
     25 CA        -46.0216  -20.0386    0.2517 C.3       6 GLY6        0.0000 
     26 CA        -45.7230  -21.1466    1.2177 C.3       6 GLY6        0.0000 
     27 DU        -45.4243  -22.2546    2.1837 H         7 CUB7        0.0000 
     28 DU        -45.1256  -23.3625    3.1498 H         7 CUB7        0.0000 
     29 N         -44.8269  -24.4705    4.1158 N.2       2 ALA2        0.0000 
     30 OG        -38.4362  -16.5556    4.2303 O.2       1 SER1        0.0000 
     31 CA        -37.8389  -18.7716    6.1624 C.3       6 GLY6        0.0000 
     32 OG        -39.4778  -17.4107    3.5716 O.2       1 SER1        0.0000 
     33 OG        -39.1791  -18.5187    4.5377 O.2       1 SER1        0.0000 
     34 OD1       -38.8804  -19.6267    5.5037 O.3       3 ASP3        0.0000 
     35 OG        -40.5194  -18.2658    2.9129 O.2       1 SER1        0.0000 
     36 OD1       -40.2207  -19.3738    3.8789 O.3       3 ASP3        0.0000 
     37 CA        -41.5610  -19.1209    2.2542 C.3       6 GLY6        0.0000 
     38 CA        -41.2623  -20.2289    3.2202 C.3       6 GLY6        0.0000 
     39 CA        -42.3039  -21.0840    2.5615 C.3       6 GLY6        0.0000 
     40 OD1       -42.0052  -22.1920    3.5276 O.3       3 ASP3        0.0000 
     41 CZ        -43.3455  -21.9391    1.9028 C.ar      5 PHE5        0.0000 
     42 CZ        -43.0468  -23.0471    2.8688 C.ar      5 PHE5        0.0000 
     43 NZ        -42.7481  -24.1550    3.8349 N.2       4 LYS4        0.0000 
     44 CZ        -44.3870  -22.7942    1.2441 C.ar      5 PHE5        0.0000 
     45 CZ        -44.0884  -23.9022    2.2101 C.ar      5 PHE5        0.0000 
     46 O         -43.7897  -25.0101    3.1762 O.2       2 ALA2        0.0000 
     47 CZ        -45.7273  -22.5414   -0.3806 C.ar      5 PHE5        0.0000 
     48 O         -45.1299  -24.7573    1.5514 O.2       2 ALA2        0.0000 
     49 CA        -36.0587  -17.3481    4.9155 C.3       6 GLY6        0.0000 
     50 CA        -35.7600  -18.4561    5.8815 C.3       6 GLY6        0.0000 
     51 O         -37.3990  -17.0953    3.2907 O.2       2 ALA2        0.0000 
     52 CA        -37.1003  -18.2032    4.2567 C.3       6 GLY6        0.0000 
     53 CA        -36.8016  -19.3112    5.2228 C.3       6 GLY6        0.0000 
     54 CA        -36.5029  -20.4192    6.1888 C.3       6 GLY6        0.0000 
     55 CA        -38.7392  -16.8424    1.6660 C.3       6 GLY6        0.0000 
     56 CA        -38.4405  -17.9504    2.6320 C.3       6 GLY6        0.0000 
     57 CA        -38.1419  -19.0583    3.5980 C.3       6 GLY6        0.0000 
     58 OD1       -37.8432  -20.1663    4.5641 O.3       3 ASP3        0.0000 
     59 CA        -39.4821  -18.8055    1.9733 C.3       6 GLY6        0.0000 
     60 OD1       -39.1834  -19.9134    2.9393 O.3       3 ASP3        0.0000 
     61 OD1       -38.8848  -21.0214    3.9054 O.3       3 ASP3        0.0000 
     62 CA        -40.2250  -20.7685    2.2806 C.3       6 GLY6        0.0000 
     63 OD1       -39.9264  -21.8765    3.2466 O.3       3 ASP3        0.0000 
     64 CZ        -41.2666  -21.6236    1.6219 C.ar      5 PHE5        0.0000 
     65 CA        -35.7643  -19.8508    4.2831 C.3       6 GLY6        0.0000 
     66 CA        -35.4657  -20.9588    5.2492 C.3       6 GLY6        0.0000 
     67 CA        -36.8059  -20.7059    3.6244 C.3       6 GLY6        0.0000 
     68 CZ        -36.5073  -21.8139    4.5905 C.ar      5 PHE5        0.0000 
     69 OG        -38.1462  -20.4531    1.9997 O.2       1 SER1        0.0000 
     70 OD1       -37.8475  -21.5610    2.9657 O.3       3 ASP3        0.0000 
     71 OD1       -37.5488  -22.6690    3.9318 O.3       3 ASP3        0.0000 
     72 OG        -39.1878  -21.3082    1.3410 O.2       1 SER1        0.0000 
     73 CZ        -38.8891  -22.4161    2.3070 C.ar      5 PHE5        0.0000 
@<TRIPOS>BOND
@<TRIPOS>SUBSTRUCTURE
     1 SER1        1 GROUP   
     2 ALA2        9 GROUP   
     3 ASP3       34 GROUP   
     4 LYS4        2 GROUP   
     5 PHE5        3 GROUP   
     6 GLY6        4 GROUP   
     7 CUB7       27 GROUP   
@<TRIPOS>SET

