#    Name: 4bqy_FNT_1_INTS_M
#    Modification time : Tue Mar 25 08:08:22 2014

@<TRIPOS>MOLECULE
4bqy_FNT_1_INTS_M
   55     0    12     0     0
SMALL
NO_CHARGES


@<TRIPOS>ATOM
      1 CA        -43.7325  -20.9300    5.5020 C.3       4 GLC5        0.0000 
      2 CA        -42.9490  -22.6770    4.4560 C.3      12 GLL5        0.0000 
      3 CA        -44.5160  -19.1830    6.5480 C.3       8 GLP5        0.0000 
      4 CA        -42.0600  -23.4580    2.7330 C.3       4 GLC5        0.0000 
      5 CA        -41.1710  -24.2390    1.0100 C.3       8 GLP5        0.0000 
      6 CA        -44.1075  -19.8445    0.5145 C.3       4 GLC5        0.0000 
      7 CA        -44.7480  -19.4270    2.1880 C.3      12 GLL5        0.0000 
      8 CA        -43.4670  -20.2620   -1.1590 C.3       8 GLP5        0.0000 
      9 Zn        -40.3330  -21.7480    5.2000 Zn        3 ZIC7        0.0000 
     10 Zn        -40.9650  -20.9970    4.5890 Zn       11 ZIL7        0.0000 
     11 Zn        -39.7010  -22.4990    5.8110 Zn        7 ZIP7        0.0000 
     12 CA        -35.1155  -22.1550    4.6990 C.3       4 GLC5        0.0000 
     13 CA        -36.0820  -20.1730    4.5620 C.3      12 GLL5        0.0000 
     14 CA        -34.1490  -24.1370    4.8360 C.3       8 GLP5        0.0000 
     15 CA        -36.7625  -21.1835    6.2690 C.3       4 GLC5        0.0000 
     16 CA        -37.4430  -22.1940    7.9760 C.3       8 GLP5        0.0000 
     17 CA        -41.4185  -19.3685    1.6100 C.3       4 GLC5        0.0000 
     18 CA        -40.9070  -18.9010    3.6070 C.3      12 GLL5        0.0000 
     19 CA        -41.9300  -19.8360   -0.3870 C.3       8 GLP5        0.0000 
     20 Zn        -39.1535  -21.5145    5.8825 Zn        3 ZIC7        0.0000 
     21 Zn        -38.6060  -20.5300    5.9540 Zn       11 ZIL7        0.0000 
     22 CA        -37.2470  -17.6175    6.0105 C.3       4 GLC5        0.0000 
     23 CA        -36.7910  -18.8920    4.9250 C.3      12 GLL5        0.0000 
     24 CA        -37.7030  -16.3430    7.0960 C.3       8 GLP5        0.0000 
     25 NZ        -35.2935  -15.9710    4.1355 N.4       2 LYC4        0.0000 
     26 NZ        -36.5910  -17.0250    3.4350 N.4      10 LYL4        0.0000 
     27 NZ        -34.8650  -13.9780    4.5310 N.4       6 LYP4        0.0000 
     28 N         -36.1545  -15.6985    3.5150 N.am      1 SEC2        0.0000 
     29 N         -36.5910  -17.0250    3.4350 N.am      9 SEL2        0.0000 
     30 N         -35.7180  -14.3720    3.5950 N.am      5 SEP2        0.0000 
     31 NZ        -34.5635  -16.2255    4.9695 N.4       2 LYC4        0.0000 
     32 NZ        -34.8690  -17.5700    4.6760 N.4      10 LYL4        0.0000 
     33 N         -33.7150  -18.0190    4.2170 N.am      1 SEC2        0.0000 
     34 N         -34.8690  -17.5700    4.6760 N.am      9 SEL2        0.0000 
     35 N         -32.5610  -18.4680    3.7580 N.am      5 SEP2        0.0000 
     36 N         -35.2935  -15.9710    4.1355 N.am      1 SEC2        0.0000 
     37 N         -34.5635  -16.2255    4.9695 N.am      1 SEC2        0.0000 
     38 N         -34.2580  -14.8810    5.2630 N.am      5 SEP2        0.0000 
     39 N         -40.4675  -16.7105    4.1395 N.am      1 SEC2        0.0000 
     40 N         -40.2480  -17.7220    3.3270 N.am      9 SEL2        0.0000 
     41 N         -40.6870  -15.6990    4.9520 N.am      5 SEP2        0.0000 
     42 CA        -42.7058  -20.0755    1.3787 C.3       4 GLC5        0.0000 
     43 CA        -42.8390  -20.2120    3.3770 C.3      12 GLL5        0.0000 
     44 CA        -42.2380  -22.4547    6.1725 C.3       4 GLC5        0.0000 
     45 CA        -42.1930  -21.1720    4.1020 C.3      12 GLL5        0.0000 
     46 CA        -41.9050  -22.9850    8.0660 C.3       8 GLP5        0.0000 
     47 CA        -44.0080  -17.2435    0.4780 C.3       4 GLC5        0.0000 
     48 CA        -42.8240  -18.0690    2.4050 C.3      12 GLL5        0.0000 
     49 CA        -44.5530  -16.3280   -1.2150 C.3       8 GLP5        0.0000 
     50 CA        -42.6167  -19.1219    0.9816 C.3       4 GLC5        0.0000 
     51 CA        -44.1020  -18.2490    1.9370 C.3      12 GLL5        0.0000 
     52 CA        -35.8247  -19.4202    2.9903 C.3       4 GLC5        0.0000 
     53 CA        -35.2130  -19.3080    1.2370 C.3       8 GLP5        0.0000 
     54 CA        -35.4693  -19.5817    6.3658 C.3       4 GLC5        0.0000 
     55 CA        -34.5020  -19.6310    7.9880 C.3       8 GLP5        0.0000 
@<TRIPOS>BOND
@<TRIPOS>SUBSTRUCTURE
     1 SEC2       28 GROUP        1 X    SEC  0     ROOT SEC X 2
     2 LYC4       25 GROUP        1 X    LYC  0     **** LYC X 4
     3 ZIC7        9 GROUP        1 X    ZIC  0     **** ZIC X 5
     4 GLC5        1 GROUP        1 X    GLC  0     **** GLC X 6
     5 SEP2       30 GROUP        1 Y    SEP  0     ROOT SEP Y 9
     6 LYP4       27 GROUP        1 Y    LYP  0     **** LYP Y 11
     7 ZIP7       11 GROUP        1 Y    ZIP  0     **** ZIP Y 12
     8 GLP5        3 GROUP        1 Y    GLP  0     **** GLP Y 13
     9 SEL2       29 GROUP        1 Z    SEL  0     ROOT SEL Z 16
    10 LYL4       26 GROUP        1 Z    LYL  0     **** LYL Z 18
    11 ZIL7       10 GROUP        1 Z    ZIL  0     **** ZIL Z 19
    12 GLL5        2 GROUP        1 Z    GLL  0     **** GLL Z 20
@<TRIPOS>SET

