#    Name: 4bqy_FNT_1_ligand
#    Modification time : Tue Mar 25 08:08:22 2014

@<TRIPOS>MOLECULE
4bqy_FNT_1_ligand
   30    31     1     0     0
SMALL
NO_CHARGES


@<TRIPOS>ATOM
      1 C1        -44.1240  -20.4180    2.9120 C.ar      1 FNT601      0.0000 
      2 CL1       -42.9490  -22.6770    4.4560 Cl        1 FNT601      0.0000 
      3 C2        -42.8390  -20.2120    3.3770 C.ar      1 FNT601      0.0000 
      4 C3        -42.1860  -19.0640    3.1220 C.ar      1 FNT601      0.0000 
      5 C4        -42.8240  -18.0690    2.4050 C.ar      1 FNT601      0.0000 
      6 C5        -44.1020  -18.2490    1.9370 C.ar      1 FNT601      0.0000 
      7 C6        -44.7480  -19.4270    2.1880 C.ar      1 FNT601      0.0000 
      8 C7        -42.1930  -21.1720    4.1020 C.ar      1 FNT601      0.0000 
      9 N8        -40.9650  -20.9970    4.5890 N.ar      1 FNT601      0.0000 
     10 C9        -40.2730  -19.8940    4.3620 C.ar      1 FNT601      0.0000 
     11 C08       -36.0820  -20.1730    4.5620 C.3       1 FNT601      0.0000 
     12 C10       -40.9070  -18.9010    3.6070 C.ar      1 FNT601      0.0000 
     13 C12       -38.9780  -19.8150    4.9250 C.2       1 FNT601      0.0000 
     14 O13       -38.6060  -20.5300    5.9540 O.2       1 FNT601      0.0000 
     15 N14       -38.1100  -18.9330    4.4310 N.am      1 FNT601      0.0000 
     16 C15       -36.7910  -18.8920    4.9250 C.3       1 FNT601      0.0000 
     17 C16       -36.0290  -17.7360    4.2870 C.2       1 FNT601      0.0000 
     18 O17       -36.5910  -17.0250    3.4350 O.co2     1 FNT601      0.0000 
     19 O18       -34.8690  -17.5700    4.6760 O.co2     1 FNT601      0.0000 
     20 O19       -40.2480  -17.7220    3.3270 O.3       1 FNT601      0.0000 
     21 H         -44.6076  -21.3040    3.1062 H         1 FNT601      0.0000 
     22 H         -42.3271  -17.1764    2.2204 H         1 FNT601      0.0000 
     23 H         -44.5676  -17.5011    1.4017 H         1 FNT601      0.0000 
     24 H         -45.7097  -19.5790    1.8345 H         1 FNT601      0.0000 
     25 H         -38.3706  -18.2644    3.6851 H         1 FNT601      0.0000 
     26 H         -36.7551  -18.7715    5.9885 H         1 FNT601      0.0000 
     27 H         -35.1402  -20.1843    4.8980 H         1 FNT601      0.0000 
     28 H         -36.5405  -20.9735    4.9479 H         1 FNT601      0.0000 
     29 H         -36.0416  -20.3074    3.5719 H         1 FNT601      0.0000 
     30 H         -40.5355  -17.4787    2.4006 H         1 FNT601      0.0000 
@<TRIPOS>BOND
     1    3    1 ar   
     2    7    1 ar   
     3   21    1 1    
     4    8    2 1    
     5    4    3 ar   
     6    8    3 ar   
     7    5    4 ar   
     8   12    4 ar   
     9    6    5 ar   
    10   22    5 1    
    11    7    6 ar   
    12   23    6 1    
    13   24    7 1    
    14    9    8 ar   
    15   10    9 ar   
    16   12   10 ar   
    17   13   10 1    
    18   16   11 1    
    19   27   11 1    
    20   28   11 1    
    21   29   11 1    
    22   20   12 1    
    23   14   13 2    
    24   15   13 am   
    25   16   15 1    
    26   25   15 1    
    27   17   16 1    
    28   26   16 1    
    29   18   17 ar   
    30   19   17 ar   
    31   30   20 1    
@<TRIPOS>SUBSTRUCTURE
     1 FNT601      1 GROUP   
@<TRIPOS>SET

