#    Name: 1h37_R02_2_INTS_M
#    Modification time : Tue Mar 25 04:26:52 2014

@<TRIPOS>MOLECULE
1h37_R02_2_INTS_M
   71     0     3     0     0
SMALL
NO_CHARGES


@<TRIPOS>ATOM
      1 CA         46.7650   18.3320   73.5645 C.3       1 GLC5        0.0000 
      2 CA         47.1340   18.8340   71.4760 C.3       3 GLL5        0.0000 
      3 CA         46.3960   17.8300   75.6530 C.3       2 GLP5        0.0000 
      4 CA         49.9165   18.7895   66.4475 C.3       1 GLC5        0.0000 
      5 CA         48.3890   17.2140   66.6980 C.3       3 GLL5        0.0000 
      6 CA         51.4440   20.3650   66.1970 C.3       2 GLP5        0.0000 
      7 CA         50.9600   15.2045   65.6945 C.3       1 GLC5        0.0000 
      8 CA         49.2070   16.3120   65.7120 C.3       3 GLL5        0.0000 
      9 CA         52.7130   14.0970   65.6770 C.3       2 GLP5        0.0000 
     10 CA         50.4615   13.8445   65.8105 C.3       1 GLC5        0.0000 
     11 CA         48.8590   14.8090   65.8490 C.3       3 GLL5        0.0000 
     12 CA         52.0640   12.8800   65.7720 C.3       2 GLP5        0.0000 
     13 CA         46.0815   11.9255   61.4965 C.3       1 GLC5        0.0000 
     14 CA         46.5590   13.5750   61.5010 C.3       3 GLL5        0.0000 
     15 CA         45.6040   10.2760   61.4920 C.3       2 GLP5        0.0000 
     16 CA         45.7545   12.8280   63.3275 C.3       1 GLC5        0.0000 
     17 CA         44.9500   12.0810   65.1540 C.3       2 GLP5        0.0000 
     18 CA         46.4995   16.7440   61.9605 C.3       1 GLC5        0.0000 
     19 CA         47.1820   14.7950   62.1930 C.3       3 GLL5        0.0000 
     20 CA         45.8170   18.6930   61.7280 C.3       2 GLP5        0.0000 
     21 CA         51.0900   14.5225   63.2950 C.3       1 GLC5        0.0000 
     22 CA         49.3550   15.2030   63.3020 C.3       3 GLL5        0.0000 
     23 CA         52.8250   13.8420   63.2880 C.3       2 GLP5        0.0000 
     24 CA         47.5080   17.5435   60.7155 C.3       1 GLC5        0.0000 
     25 CA         48.8500   16.1250   61.0710 C.3       3 GLL5        0.0000 
     26 CA         46.1660   18.9620   60.3600 C.3       2 GLP5        0.0000 
     27 CA         49.0975   18.3535   59.8310 C.3       1 GLC5        0.0000 
     28 CA         50.7720   17.0790   59.7990 C.3       3 GLL5        0.0000 
     29 CA         47.4230   19.6280   59.8630 C.3       2 GLP5        0.0000 
     30 CA         52.0345   17.8240   61.3450 C.3       1 GLC5        0.0000 
     31 CA         53.2970   18.5690   62.8910 C.3       2 GLP5        0.0000 
     32 CA         50.5635   16.2315   70.0930 C.3       1 GLC5        0.0000 
     33 CA         48.9950   17.6420   70.3660 C.3       3 GLL5        0.0000 
     34 CA         52.1320   14.8210   69.8200 C.3       2 GLP5        0.0000 
     35 CA         48.2320   16.2035   71.9900 C.3       1 GLC5        0.0000 
     36 CA         48.4600   18.3120   71.5060 C.3       3 GLL5        0.0000 
     37 CA         48.0040   14.0950   72.4740 C.3       2 GLP5        0.0000 
     38 CA         47.9790   17.5780   73.4690 C.3       1 GLC5        0.0000 
     39 CA         47.4980   16.8440   75.4320 C.3       2 GLP5        0.0000 
     40 CA         44.8790   16.2780   72.7480 C.3       1 GLC5        0.0000 
     41 CA         44.2950   18.3770   72.9690 C.3       3 GLL5        0.0000 
     42 CA         45.4630   14.1790   72.5270 C.3       2 GLP5        0.0000 
     43 CA         40.8590   20.3030   75.8655 C.3       1 GLC5        0.0000 
     44 CA         40.4870   19.5480   74.1150 C.3       3 GLL5        0.0000 
     45 CA         41.2310   21.0580   77.6160 C.3       2 GLP5        0.0000 
     46 CA         39.7660   17.6805   73.4690 C.3       1 GLC5        0.0000 
     47 CA         39.0450   15.8130   72.8230 C.3       2 GLP5        0.0000 
     48 CA         47.1485   17.0285   64.3420 C.3       1 GLC5        0.0000 
     49 CA         48.4790   15.5490   64.5580 C.3       3 GLL5        0.0000 
     50 CA         45.8180   18.5080   64.1260 C.3       2 GLP5        0.0000 
     51 CA         45.3735   16.5380   61.3625 C.3       1 GLC5        0.0000 
     52 CA         46.2020   14.9820   61.0010 C.3       3 GLL5        0.0000 
     53 CA         44.5450   18.0940   61.7240 C.3       2 GLP5        0.0000 
     54 CA         45.4175   19.3085   74.5665 C.3       1 GLC5        0.0000 
     55 CA         44.4390   20.7870   73.4800 C.3       3 GLL5        0.0000 
     56 CA         48.3362   15.6790   70.3770 C.3       1 GLC5        0.0000 
     57 CA         48.0640   13.7950   70.9820 C.3       2 GLP5        0.0000 
     58 CA         47.3080   17.6355   65.1655 C.3       1 GLC5        0.0000 
     59 CA         46.8788   13.6337   59.4565 C.3       1 GLC5        0.0000 
     60 CA         47.3770   12.9890   57.6620 C.3       2 GLP5        0.0000 
     61 CA         44.4552   14.1047   61.3010 C.3       1 GLC5        0.0000 
     62 CA         42.5300   13.9310   61.3510 C.3       2 GLP5        0.0000 
     63 CA         51.4485   15.9872   58.6847 C.3       1 GLC5        0.0000 
     64 CA         50.1280   16.0040   60.2680 C.3       3 GLL5        0.0000 
     65 CA         52.4470   15.4330   57.3360 C.3       2 GLP5        0.0000 
     66 CA         50.5907   18.4830   71.5550 C.3       1 GLC5        0.0000 
     67 CA         52.4540   18.9890   72.1740 C.3       2 GLP5        0.0000 
     68 CA         43.1590   16.8443   71.6652 C.3       1 GLC5        0.0000 
     69 CA         42.7080   15.3080   70.2010 C.3       2 GLP5        0.0000 
     70 CA         45.0996   18.2546   74.4021 C.3       1 GLC5        0.0000 
     71 CA         42.9250   18.3840   73.2900 C.3       3 GLL5        0.0000 
@<TRIPOS>BOND
@<TRIPOS>SUBSTRUCTURE
     1 GLC5        1 GROUP        1 X    GLC  0     ROOT GLC X 6
     2 GLP5        3 GROUP        1 Y    GLP  0     ROOT GLP Y 13
     3 GLL5        2 GROUP        1 Z    GLL  0     ROOT GLL Z 20
@<TRIPOS>SET

