#    Name: 1h37_R02_2_ligand
#    Modification time : Tue Mar 25 04:26:53 2014

@<TRIPOS>MOLECULE
1h37_R02_2_ligand
   53    56     1     0     0
SMALL
NO_CHARGES


@<TRIPOS>ATOM
      1 C1G        45.0680   19.5720   73.0560 C.ar      1 R02800      0.0000 
      2 C1         46.5520   19.5630   72.7060 C.2       1 R02800      0.0000 
      3 O2         47.3160   20.1680   73.4520 O.2       1 R02800      0.0000 
      4 C1A        47.1340   18.8340   71.4760 C.ar      1 R02800      0.0000 
      5 C2A        46.3670   18.6710   70.2840 C.ar      1 R02800      0.0000 
      6 C3A        46.9010   18.0020   69.1500 C.ar      1 R02800      0.0000 
      7 C4A        48.2220   17.4840   69.1780 C.ar      1 R02800      0.0000 
      8 O1B        48.7810   16.8070   68.0550 O.3       1 R02800      0.0000 
      9 C2B        48.3890   17.2140   66.6980 C.3       1 R02800      0.0000 
     10 C3B        49.2070   16.3120   65.7120 C.3       1 R02800      0.0000 
     11 C5B        48.8590   14.8090   65.8490 C.3       1 R02800      0.0000 
     12 C2F        46.5590   13.5750   61.5010 C.3       1 R02800      0.0000 
     13 C1F        47.1820   14.7950   62.1930 C.3       1 R02800      0.0000 
     14 N1D        48.6400   15.0090   62.0010 N.4       1 R02800      0.0000 
     15 C1C        49.3550   15.2030   63.3020 C.3       1 R02800      0.0000 
     16 C1E        48.8500   16.1250   61.0710 C.3       1 R02800      0.0000 
     17 C2E        50.1280   16.0040   60.2680 C.2       1 R02800      0.0000 
     18 C3E        50.7720   17.0790   59.7990 C.2       1 R02800      0.0000 
     19 C5A        48.9950   17.6420   70.3660 C.ar      1 R02800      0.0000 
     20 C6A        48.4600   18.3120   71.5060 C.ar      1 R02800      0.0000 
     21 C6G        44.2950   18.3770   72.9690 C.ar      1 R02800      0.0000 
     22 C5G        42.9250   18.3840   73.2900 C.ar      1 R02800      0.0000 
     23 C4G        42.2950   19.5850   73.7080 C.ar      1 R02800      0.0000 
     24 BR25       40.4870   19.5480   74.1150 Br        1 R02800      0.0000 
     25 C3G        43.0550   20.7970   73.8060 C.ar      1 R02800      0.0000 
     26 C4B        48.4790   15.5490   64.5580 C.3       1 R02800      0.0000 
     27 C3F        46.2020   14.9820   61.0010 C.3       1 R02800      0.0000 
     28 C2G        44.4390   20.7870   73.4800 C.ar      1 R02800      0.0000 
     29 H          45.4121   19.0448   70.2476 H         1 R02800      0.0000 
     30 H          46.3303   17.8936   68.3100 H         1 R02800      0.0000 
     31 H          48.6497   18.2361   66.4995 H         1 R02800      0.0000 
     32 H          47.3462   17.0359   66.5160 H         1 R02800      0.0000 
     33 H          50.1124   16.3577   65.5012 H         1 R02800      0.0000 
     34 H          48.0829   14.7531   66.3828 H         1 R02800      0.0000 
     35 H          49.6508   14.3257   65.6763 H         1 R02800      0.0000 
     36 H          45.8438   13.2769   62.0419 H         1 R02800      0.0000 
     37 H          47.2077   13.2214   60.9119 H         1 R02800      0.0000 
     38 H          46.6459   14.9354   62.9867 H         1 R02800      0.0000 
     39 H          49.0464   14.0901   61.5271 H         1 R02800      0.0000 
     40 H          50.1153   16.0139   63.1999 H         1 R02800      0.0000 
     41 H          49.9403   14.2864   63.5537 H         1 R02800      0.0000 
     42 H          48.8759   17.0841   61.6248 H         1 R02800      0.0000 
     43 H          48.0001   16.1985   60.3643 H         1 R02800      0.0000 
     44 H          50.4505   15.0343   60.1186 H         1 R02800      0.0000 
     45 H          49.9474   17.2693   70.4013 H         1 R02800      0.0000 
     46 H          49.0282   18.4176   72.3446 H         1 R02800      0.0000 
     47 H          44.7490   17.5092   72.6691 H         1 R02800      0.0000 
     48 H          42.3768   17.5235   73.2236 H         1 R02800      0.0000 
     49 H          42.6035   21.6528   74.1063 H         1 R02800      0.0000 
     50 H          47.5837   15.7654   64.5941 H         1 R02800      0.0000 
     51 H          45.3671   15.2083   61.3716 H         1 R02800      0.0000 
     52 H          46.7309   15.1527   60.2416 H         1 R02800      0.0000 
     53 H          44.9868   21.6409   73.5465 H         1 R02800      0.0000 
@<TRIPOS>BOND
     1    2    1 1    
     2   21    1 ar   
     3   28    1 ar   
     4    3    2 2    
     5    4    2 1    
     6    5    4 ar   
     7   20    4 ar   
     8    6    5 ar   
     9   29    5 1    
    10    7    6 ar   
    11   30    6 1    
    12    8    7 1    
    13   19    7 ar   
    14    9    8 1    
    15   10    9 1    
    16   31    9 1    
    17   32    9 1    
    18   11   10 1    
    19   26   10 1    
    20   33   10 1    
    21   26   11 1    
    22   34   11 1    
    23   35   11 1    
    24   13   12 1    
    25   27   12 1    
    26   36   12 1    
    27   37   12 1    
    28   14   13 1    
    29   27   13 1    
    30   38   13 1    
    31   15   14 1    
    32   16   14 1    
    33   39   14 1    
    34   26   15 1    
    35   40   15 1    
    36   41   15 1    
    37   17   16 1    
    38   42   16 1    
    39   43   16 1    
    40   18   17 2    
    41   44   17 1    
    42   20   19 ar   
    43   45   19 1    
    44   46   20 1    
    45   22   21 ar   
    46   47   21 1    
    47   23   22 ar   
    48   48   22 1    
    49   24   23 1    
    50   25   23 ar   
    51   28   25 ar   
    52   49   25 1    
    53   50   26 1    
    54   51   27 1    
    55   52   27 1    
    56   53   28 1    
@<TRIPOS>SUBSTRUCTURE
     1 R02800      1 GROUP   
@<TRIPOS>SET

