#    Name: 1wxi_AMP_2_INTS_M
#    Modification time : Tue Mar 25 09:27:29 2014

@<TRIPOS>MOLECULE
1wxi_AMP_2_INTS_M
   45     0    12     0     0
SMALL
NO_CHARGES


@<TRIPOS>ATOM
      1 Zn         51.4285   49.4420   36.7765 Zn        3 ZIC7        0.0000 
      2 Zn         50.5590   48.6400   36.2370 Zn       11 ZIL7        0.0000 
      3 Zn         52.2980   50.2440   37.3160 Zn        7 ZIP7        0.0000 
      4 Zn         50.9295   46.0135   35.4245 Zn        3 ZIC7        0.0000 
      5 Zn         49.7100   46.4520   35.2640 Zn       11 ZIL7        0.0000 
      6 Zn         52.1490   45.5750   35.5850 Zn        7 ZIP7        0.0000 
      7 CA         53.5170   46.7730   30.9505 C.3       4 GLC5        0.0000 
      8 CA         52.4790   48.5120   31.8620 C.3      12 GLL5        0.0000 
      9 CA         54.5550   45.0340   30.0390 C.3       8 GLP5        0.0000 
     10 O          52.8840   46.0550   31.5645 O.2       1 ALC1        0.0000 
     11 O          53.2610   47.3100   31.8360 O.2       9 ALL1        0.0000 
     12 O          52.5070   44.8000   31.2930 O.2       5 ALP1        0.0000 
     13 CA         53.7220   50.9130   32.0700 C.3       4 GLC5        0.0000 
     14 CA         52.7970   49.4600   30.7310 C.3      12 GLL5        0.0000 
     15 CA         54.6470   52.3660   33.4090 C.3       8 GLP5        0.0000 
     16 O          54.1790   49.4680   29.0580 O.2       1 ALC1        0.0000 
     17 O          53.1120   48.7980   29.5080 O.2       9 ALL1        0.0000 
     18 O          55.2460   50.1380   28.6080 O.2       5 ALP1        0.0000 
     19 CA         51.9520   55.7240   29.6450 C.3       4 GLC5        0.0000 
     20 CA         52.5330   54.8690   31.6140 C.3      12 GLL5        0.0000 
     21 CA         51.3710   56.5790   27.6760 C.3       8 GLP5        0.0000 
     22 O          53.4245   56.9740   33.0045 O.2       1 ALC1        0.0000 
     23 O          52.5170   55.7830   32.5730 O.2       9 ALL1        0.0000 
     24 O          54.3320   58.1650   33.4360 O.2       5 ALP1        0.0000 
     25 N          53.4730   56.1860   29.2800 N.am      2 SEC2        0.0000 
     26 N          53.2740   55.0730   30.4870 N.am     10 SEL2        0.0000 
     27 N          53.6720   57.2990   28.0730 N.am      6 SEP2        0.0000 
     28 CA         53.8745   52.7525   28.1580 C.3       4 GLC5        0.0000 
     29 CA         53.3430   54.1060   29.5620 C.3      12 GLL5        0.0000 
     30 CA         54.4060   51.3990   26.7540 C.3       8 GLP5        0.0000 
     31 CA         55.2085   53.0920   29.4745 C.3       4 GLC5        0.0000 
     32 CA         57.0740   52.0780   29.3870 C.3       8 GLP5        0.0000 
     33 CA         54.5950   53.6095   31.2000 C.3       4 GLC5        0.0000 
     34 CA         55.8470   53.1130   32.8380 C.3       8 GLP5        0.0000 
     35 CA         52.3570   55.3425   28.6190 C.3       4 GLC5        0.0000 
     36 CA         51.1180   54.2745   29.6345 C.3       4 GLC5        0.0000 
     37 CA         48.8930   54.4430   29.7070 C.3       8 GLP5        0.0000 
     38 CA         48.9520   47.6720   31.2967 C.3       4 GLC5        0.0000 
     39 CA         51.0650   48.1290   31.4990 C.3      12 GLL5        0.0000 
     40 CA         47.2690   47.4790   30.5370 C.3       8 GLP5        0.0000 
     41 CA         54.6440   48.7000   31.2878 C.3       4 GLC5        0.0000 
     42 CA         56.6500   48.4140   31.2790 C.3       8 GLP5        0.0000 
     43 CA         53.3739   52.9235   32.3155 C.3       4 GLC5        0.0000 
     44 CA         51.8280   53.6370   31.7640 C.3      12 GLL5        0.0000 
     45 CA         50.4969   53.9620   30.4645 C.3       4 GLC5        0.0000 
@<TRIPOS>BOND
@<TRIPOS>SUBSTRUCTURE
     1 ALC1       10 GROUP        1 X    ALC  0     ROOT ALC X 1
     2 SEC2       25 GROUP        1 X    SEC  0     **** SEC X 2
     3 ZIC7        1 GROUP        1 X    ZIC  0     **** ZIC X 5
     4 GLC5        7 GROUP        1 X    GLC  0     **** GLC X 6
     5 ALP1       12 GROUP        1 Y    ALP  0     ROOT ALP Y 8
     6 SEP2       27 GROUP        1 Y    SEP  0     **** SEP Y 9
     7 ZIP7        3 GROUP        1 Y    ZIP  0     **** ZIP Y 12
     8 GLP5        9 GROUP        1 Y    GLP  0     **** GLP Y 13
     9 ALL1       11 GROUP        1 Z    ALL  0     ROOT ALL Z 15
    10 SEL2       26 GROUP        1 Z    SEL  0     **** SEL Z 16
    11 ZIL7        2 GROUP        1 Z    ZIL  0     **** ZIL Z 19
    12 GLL5        8 GROUP        1 Z    GLL  0     **** GLL Z 20
@<TRIPOS>SET

