#    Name: 1wxi_AMP_2_ligand
#    Modification time : Tue Mar 25 09:27:29 2014

@<TRIPOS>MOLECULE
1wxi_AMP_2_ligand
   35    37     1     0     0
SMALL
NO_CHARGES


@<TRIPOS>ATOM
      1 P          49.8030   47.9380   35.1990 P.3       1 AMP400      0.0000 
      2 O1P        50.5590   48.6400   36.2370 O.co2     1 AMP400      0.0000 
      3 O2P        49.7100   46.4520   35.2640 O.co2     1 AMP400      0.0000 
      4 O3P        48.3690   48.6240   35.1040 O.co2     1 AMP400      0.0000 
      5 O5'        50.3850   48.3770   33.8120 O.3       1 AMP400      0.0000 
      6 C5'        50.2050   47.6010   32.6140 C.3       1 AMP400      0.0000 
      7 C4'        51.0650   48.1290   31.4990 C.3       1 AMP400      0.0000 
      8 O4'        50.4580   49.3470   31.0290 O.3       1 AMP400      0.0000 
      9 C3'        52.4790   48.5120   31.8620 C.3       1 AMP400      0.0000 
     10 O3'        53.2610   47.3100   31.8360 O.3       1 AMP400      0.0000 
     11 C2'        52.7970   49.4600   30.7310 C.3       1 AMP400      0.0000 
     12 O2'        53.1120   48.7980   29.5080 O.3       1 AMP400      0.0000 
     13 C1'        51.4670   50.2280   30.4990 C.3       1 AMP400      0.0000 
     14 N9         51.4070   51.5600   31.1840 N.pl3     1 AMP400      0.0000 
     15 C8         50.8280   51.9000   32.3900 C.2       1 AMP400      0.0000 
     16 N7         51.0950   53.1040   32.8110 N.2       1 AMP400      0.0000 
     17 C5         51.8280   53.6370   31.7640 C.ar      1 AMP400      0.0000 
     18 C6         52.5330   54.8690   31.6140 C.ar      1 AMP400      0.0000 
     19 N6         52.5170   55.7830   32.5730 N.pl3     1 AMP400      0.0000 
     20 N1         53.2740   55.0730   30.4870 N.ar      1 AMP400      0.0000 
     21 C2         53.3430   54.1060   29.5620 C.ar      1 AMP400      0.0000 
     22 N3         52.8070   52.8680   29.6210 N.ar      1 AMP400      0.0000 
     23 C4         52.0210   52.7090   30.7550 C.ar      1 AMP400      0.0000 
     24 H          49.1542   47.6235   32.2830 H         1 AMP400      0.0000 
     25 H          50.4672   46.5444   32.7847 H         1 AMP400      0.0000 
     26 H          51.0902   47.4180   30.6872 H         1 AMP400      0.0000 
     27 H          52.4671   49.0162   32.7655 H         1 AMP400      0.0000 
     28 H          53.5142   50.1655   31.0368 H         1 AMP400      0.0000 
     29 H          51.3391   50.3362   29.4396 H         1 AMP400      0.0000 
     30 H          50.2445   51.2346   32.8816 H         1 AMP400      0.0000 
     31 H          53.3368   56.3499   32.6543 H         1 AMP400      0.0000 
     32 H          51.6866   55.8232   33.1287 H         1 AMP400      0.0000 
     33 H          53.8995   54.3443   28.6479 H         1 AMP400      0.0000 
     34 H          52.6256   46.5942   31.5464 H         1 AMP400      0.0000 
     35 H          54.1010   48.9030   29.4043 H         1 AMP400      0.0000 
@<TRIPOS>BOND
     1    2    1 ar   
     2    3    1 ar   
     3    4    1 ar   
     4    5    1 1    
     5    6    5 1    
     6    7    6 1    
     7   24    6 1    
     8   25    6 1    
     9    8    7 1    
    10    9    7 1    
    11   26    7 1    
    12   13    8 1    
    13   10    9 1    
    14   11    9 1    
    15   27    9 1    
    16   34   10 1    
    17   12   11 1    
    18   13   11 1    
    19   28   11 1    
    20   35   12 1    
    21   14   13 1    
    22   29   13 1    
    23   15   14 1    
    24   23   14 1    
    25   16   15 2    
    26   30   15 1    
    27   17   16 1    
    28   18   17 ar   
    29   23   17 ar   
    30   19   18 1    
    31   20   18 ar   
    32   31   19 1    
    33   32   19 1    
    34   21   20 ar   
    35   22   21 ar   
    36   33   21 1    
    37   23   22 ar   
@<TRIPOS>SUBSTRUCTURE
     1 AMP400      1 GROUP   
@<TRIPOS>SET

