#    Name: 4h3f_10O_2_INTS_M
#    Modification time : Tue Mar 25 00:14:27 2014

@<TRIPOS>MOLECULE
4h3f_10O_2_INTS_M
   77     0     9     0     0
SMALL
NO_CHARGES


@<TRIPOS>ATOM
      1 CA         22.2275   31.8835   54.9915 C.3       3 GLC5        0.0000 
      2 CA         21.9060   33.5100   55.8440 C.3       9 GLL5        0.0000 
      3 CA         22.5490   30.2570   54.1390 C.3       6 GLP5        0.0000 
      4 OD1        20.8440   37.2350   57.5665 O.co2     2 ASC3        0.0000 
      5 OD1        20.6830   35.2240   57.7770 O.co2     8 ASL3        0.0000 
      6 OD1        20.1330   38.7690   58.1680 O.co2     5 ASP3        0.0000 
      7 OD1        21.2690   38.3990   56.3680 O.co2     5 ASP3        0.0000 
      8 OD1        20.0690   35.8915   60.1435 O.co2     2 ASC3        0.0000 
      9 OD1        19.7190   35.7120   61.5220 O.co2     5 ASP3        0.0000 
     10 O          21.1045   37.0495   56.4410 O.2       1 ALC1        0.0000 
     11 O          20.9400   35.7000   56.5140 O.2       7 ALL1        0.0000 
     12 O          21.2690   38.3990   56.3680 O.2       4 ALP1        0.0000 
     13 CA         22.4870   35.3390   52.3605 C.3       3 GLC5        0.0000 
     14 CA         22.3110   35.4680   54.5130 C.3       9 GLL5        0.0000 
     15 CA         22.6630   35.2100   50.2080 C.3       6 GLP5        0.0000 
     16 CA         24.0930   32.1290   55.5155 C.3       3 GLC5        0.0000 
     17 CA         23.3880   33.8500   56.0190 C.3       9 GLL5        0.0000 
     18 CA         24.7980   30.4080   55.0120 C.3       6 GLP5        0.0000 
     19 CA         19.9435   32.7410   51.0640 C.3       3 GLC5        0.0000 
     20 CA         19.9810   33.7980   53.0270 C.3       9 GLL5        0.0000 
     21 CA         19.9060   31.6840   49.1010 C.3       6 GLP5        0.0000 
     22 O          20.2760   37.4200   58.4665 O.2       1 ALC1        0.0000 
     23 O          20.4190   36.0710   58.7650 O.2       7 ALL1        0.0000 
     24 O          20.1330   38.7690   58.1680 O.2       4 ALP1        0.0000 
     25 O          20.8440   37.2350   57.5665 O.2       1 ALC1        0.0000 
     26 O          20.0690   35.8915   60.1435 O.2       1 ALC1        0.0000 
     27 O          19.7190   35.7120   61.5220 O.2       4 ALP1        0.0000 
     28 CA         15.4325   36.4340   57.7510 C.3       3 GLC5        0.0000 
     29 CA         13.7680   35.4570   56.9260 C.3       9 GLL5        0.0000 
     30 CA         17.0970   37.4110   58.5760 C.3       6 GLP5        0.0000 
     31 CA         14.8250   34.9330   58.7525 C.3       3 GLC5        0.0000 
     32 CA         15.8820   34.4090   60.5790 C.3       6 GLP5        0.0000 
     33 CA         12.9750   34.4825   58.7495 C.3       3 GLC5        0.0000 
     34 CA         12.1820   33.5080   60.5730 C.3       6 GLP5        0.0000 
     35 CA         16.5165   36.5535   54.7335 C.3       3 GLC5        0.0000 
     36 CA         15.6340   34.7410   55.5170 C.3       9 GLL5        0.0000 
     37 CA         17.3990   38.3660   53.9500 C.3       6 GLP5        0.0000 
     38 CA         16.3655   36.0760   57.0465 C.3       3 GLC5        0.0000 
     39 CA         18.3475   33.6585   60.5690 C.3       3 GLC5        0.0000 
     40 CA         20.0910   33.3280   59.2630 C.3       9 GLL5        0.0000 
     41 CA         16.6040   33.9890   61.8750 C.3       6 GLP5        0.0000 
     42 CA         24.5275   38.7525   54.6740 C.3       3 GLC5        0.0000 
     43 CA         24.4560   38.8280   52.4590 C.3       9 GLL5        0.0000 
     44 CA         24.5990   38.6770   56.8890 C.3       6 GLP5        0.0000 
     45 CA         26.2465   39.7965   52.5905 C.3       3 GLC5        0.0000 
     46 CA         28.0370   40.7650   52.7220 C.3       6 GLP5        0.0000 
     47 CA         24.9595   39.1870   50.6410 C.3       3 GLC5        0.0000 
     48 CA         25.4630   39.5460   48.8230 C.3       6 GLP5        0.0000 
     49 CA         26.2375   37.9270   51.5960 C.3       3 GLC5        0.0000 
     50 CA         28.0190   37.0260   50.7330 C.3       6 GLP5        0.0000 
     51 CA         22.7065   39.2660   52.0380 C.3       3 GLC5        0.0000 
     52 CA         20.9570   39.7040   51.6170 C.3       6 GLP5        0.0000 
     53 CA         20.9093   36.1394   53.3537 C.3       3 GLC5        0.0000 
     54 CA         20.3600   37.2370   51.9570 C.3       6 GLP5        0.0000 
     55 CA         17.7677   36.3195   54.2773 C.3       3 GLC5        0.0000 
     56 CA         18.6140   34.4950   55.0760 C.3       9 GLL5        0.0000 
     57 CA         19.7452   35.4753   52.4698 C.3       3 GLC5        0.0000 
     58 CA         18.2800   33.6290   52.9380 C.3       9 GLL5        0.0000 
     59 CA         11.8815   34.2763   53.8360 C.3       3 GLC5        0.0000 
     60 CA         13.8880   33.2590   53.9030 C.3       9 GLL5        0.0000 
     61 CA         10.1390   34.9350   53.2210 C.3       6 GLP5        0.0000 
     62 CA         27.2342   39.0400   53.4350 C.3       3 GLC5        0.0000 
     63 CA         25.8060   37.4730   53.8610 C.3       9 GLL5        0.0000 
     64 CA         12.7859   36.2018   55.2805 C.3       3 GLC5        0.0000 
     65 CA         14.2510   34.7170   55.8040 C.3       9 GLL5        0.0000 
     66 CA         11.8870   37.8720   54.8790 C.3       6 GLP5        0.0000 
     67 CA         13.5291   33.7870   52.5799 C.3       3 GLC5        0.0000 
     68 CA         13.3600   33.9760   54.9990 C.3       9 GLL5        0.0000 
     69 CA         13.0860   33.9500   50.7800 C.3       6 GLP5        0.0000 
     70 CA         29.1762   36.5615   54.9870 C.3       3 GLC5        0.0000 
     71 CA         27.1320   36.0470   55.3150 C.3       9 GLL5        0.0000 
     72 CA         31.2580   36.5210   55.0990 C.3       6 GLP5        0.0000 
     73 CA         27.8075   34.9049   54.2706 C.3       3 GLC5        0.0000 
     74 CA         27.0570   37.1570   54.4350 C.3       9 GLL5        0.0000 
     75 CA         28.8120   33.3970   53.5970 C.3       6 GLP5        0.0000 
     76 CA         25.4683   37.6089   55.8057 C.3       3 GLC5        0.0000 
     77 CA         24.7440   35.6830   54.9650 C.3       9 GLL5        0.0000 
@<TRIPOS>BOND
@<TRIPOS>SUBSTRUCTURE
     1 ALC1       10 GROUP        1 X    ALC  0     ROOT ALC X 1
     2 ASC3        4 GROUP        1 X    ASC  0     **** ASC X 3
     3 GLC5        1 GROUP        1 X    GLC  0     **** GLC X 6
     4 ALP1       12 GROUP        1 Y    ALP  0     ROOT ALP Y 8
     5 ASP3        6 GROUP        1 Y    ASP  0     **** ASP Y 10
     6 GLP5        3 GROUP        1 Y    GLP  0     **** GLP Y 13
     7 ALL1       11 GROUP        1 Z    ALL  0     ROOT ALL Z 15
     8 ASL3        5 GROUP        1 Z    ASL  0     **** ASL Z 17
     9 GLL5        2 GROUP        1 Z    GLL  0     **** GLL Z 20
@<TRIPOS>SET

