#    Name: 4h3f_10O_2_ligand
#    Modification time : Tue Mar 25 00:14:27 2014

@<TRIPOS>MOLECULE
4h3f_10O_2_ligand
   56    60     1     0     0
SMALL
NO_CHARGES


@<TRIPOS>ATOM
      1 C1         21.2290   34.8100   55.3690 C.3       1 10O503      0.0000 
      2 C2         21.9060   33.5100   55.8440 C.3       1 10O503      0.0000 
      3 N1         20.7050   33.8540   58.0110 N.am      1 10O503      0.0000 
      4 C3         20.6830   35.2240   57.7770 C.cat     1 10O503      0.0000 
      5 C4         21.2740   32.9320   57.1270 C.2       1 10O503      0.0000 
      6 N2         20.9400   35.7000   56.5140 N.pl3     1 10O503      0.0000 
      7 C5         19.9830   34.4210   54.6070 C.2       1 10O503      0.0000 
      8 N3         23.5500   35.0220   55.1630 N.3       1 10O503      0.0000 
      9 C6         22.3110   35.4680   54.5130 C.3       1 10O503      0.0000 
     10 C7         23.3880   33.8500   56.0190 C.3       1 10O503      0.0000 
     11 C8         18.6140   34.4950   55.0760 C.2       1 10O503      0.0000 
     12 C9         17.6590   34.0510   54.1330 C.2       1 10O503      0.0000 
     13 S1         19.9810   33.7980   53.0270 S.3       1 10O503      0.0000 
     14 C10        18.2800   33.6290   52.9380 C.2       1 10O503      0.0000 
     15 C11        24.7440   35.6830   54.9650 C.ar      1 10O503      0.0000 
     16 N4         13.4030   36.0660   57.8390 N.1       1 10O503      0.0000 
     17 N5         20.4190   36.0710   58.7650 N.pl3     1 10O503      0.0000 
     18 C12        16.1790   34.0310   54.4200 C.ar      1 10O503      0.0000 
     19 C13        13.7680   35.4570   56.9260 C.1       1 10O503      0.0000 
     20 O1         21.2900   31.7210   57.3130 O.2       1 10O503      0.0000 
     21 N6         24.6990   36.7480   54.1300 N.ar      1 10O503      0.0000 
     22 C14        15.6340   34.7410   55.5170 C.ar      1 10O503      0.0000 
     23 C15        20.0910   33.3280   59.2630 C.3       1 10O503      0.0000 
     24 C16        14.2510   34.7170   55.8040 C.ar      1 10O503      0.0000 
     25 C17        15.2810   33.2850   53.6180 C.ar      1 10O503      0.0000 
     26 C18        25.9660   35.2900   55.5920 C.ar      1 10O503      0.0000 
     27 C19        13.8880   33.2590   53.9030 C.ar      1 10O503      0.0000 
     28 C20        25.8060   37.4730   53.8610 C.ar      1 10O503      0.0000 
     29 C21        13.3600   33.9760   54.9990 C.ar      1 10O503      0.0000 
     30 C22        27.1320   36.0470   55.3150 C.ar      1 10O503      0.0000 
     31 C23        27.0570   37.1570   54.4350 C.ar      1 10O503      0.0000 
     32 O2         25.7430   38.5610   53.0050 O.3       1 10O503      0.0000 
     33 C24        24.4560   38.8280   52.4590 C.3       1 10O503      0.0000 
     34 H          21.8245   32.7856   55.0426 H         1 10O503      0.0000 
     35 H          20.9414   36.7166   56.3111 H         1 10O503      0.0000 
     36 H          22.2013   36.5237   54.5697 H         1 10O503      0.0000 
     37 H          22.2385   35.0967   53.5198 H         1 10O503      0.0000 
     38 H          23.9703   33.0291   55.6749 H         1 10O503      0.0000 
     39 H          23.5672   34.0828   57.0413 H         1 10O503      0.0000 
     40 H          18.3906   34.8234   55.9632 H         1 10O503      0.0000 
     41 H          17.9624   33.2929   52.1486 H         1 10O503      0.0000 
     42 H          20.4557   37.0430   58.5329 H         1 10O503      0.0000 
     43 H          20.2073   35.6603   59.6519 H         1 10O503      0.0000 
     44 H          16.2650   35.2904   56.1223 H         1 10O503      0.0000 
     45 H          15.6396   32.7528   52.8163 H         1 10O503      0.0000 
     46 H          25.9929   34.4996   56.2103 H         1 10O503      0.0000 
     47 H          13.2627   32.7114   53.3025 H         1 10O503      0.0000 
     48 H          12.3716   33.9586   55.2007 H         1 10O503      0.0000 
     49 H          28.0187   35.7957   55.7451 H         1 10O503      0.0000 
     50 H          27.8773   37.7044   54.2266 H         1 10O503      0.0000 
     51 H          20.1637   32.3324   59.3225 H         1 10O503      0.0000 
     52 H          20.5313   33.7032   60.0787 H         1 10O503      0.0000 
     53 H          19.1190   33.5551   59.3238 H         1 10O503      0.0000 
     54 H          24.4680   39.6217   51.8508 H         1 10O503      0.0000 
     55 H          24.1111   38.0554   51.9260 H         1 10O503      0.0000 
     56 H          23.7814   39.0160   53.1729 H         1 10O503      0.0000 
@<TRIPOS>BOND
     1    2    1 1    
     2    6    1 1    
     3    7    1 1    
     4    9    1 1    
     5    5    2 1    
     6   10    2 1    
     7   34    2 1    
     8    4    3 ar   
     9    5    3 am   
    10   23    3 1    
    11    6    4 ar   
    12   17    4 ar   
    13   20    5 2    
    14   35    6 1    
    15   11    7 2    
    16   13    7 1    
    17    9    8 1    
    18   10    8 1    
    19   15    8 1    
    20   36    9 1    
    21   37    9 1    
    22   38   10 1    
    23   39   10 1    
    24   12   11 1    
    25   40   11 1    
    26   14   12 2    
    27   18   12 1    
    28   14   13 1    
    29   41   14 1    
    30   21   15 ar   
    31   26   15 ar   
    32   19   16 3    
    33   42   17 1    
    34   43   17 1    
    35   22   18 ar   
    36   25   18 ar   
    37   24   19 1    
    38   28   21 ar   
    39   24   22 ar   
    40   44   22 1    
    41   51   23 1    
    42   52   23 1    
    43   53   23 1    
    44   29   24 ar   
    45   27   25 ar   
    46   45   25 1    
    47   30   26 ar   
    48   46   26 1    
    49   29   27 ar   
    50   47   27 1    
    51   31   28 ar   
    52   32   28 1    
    53   48   29 1    
    54   31   30 ar   
    55   49   30 1    
    56   50   31 1    
    57   33   32 1    
    58   54   33 1    
    59   55   33 1    
    60   56   33 1    
@<TRIPOS>SUBSTRUCTURE
     1 10O503      1 GROUP   
@<TRIPOS>SET

