#    Name: 1omo_NAD_1_INTS_M
#    Modification time : Mon Mar 24 20:19:47 2014

@<TRIPOS>MOLECULE
1omo_NAD_1_INTS_M
   77     0     9     0     0
SMALL
NO_CHARGES


@<TRIPOS>ATOM
      1 N          45.5590    7.3985   56.2180 N.am      2 SEC2        0.0000 
      2 N          46.1210    8.9730   56.0650 N.am      8 SEL2        0.0000 
      3 N          44.9970    5.8240   56.3710 N.am      5 SEP2        0.0000 
      4 CA         51.5045    8.6785   54.6245 C.3       3 GLC5        0.0000 
      5 CA         49.8790    8.0520   55.6230 C.3       9 GLL5        0.0000 
      6 CA         53.1300    9.3050   53.6260 C.3       6 GLP5        0.0000 
      7 CA         48.5160    7.2385   58.0175 C.3       3 GLC5        0.0000 
      8 CA         50.0500    8.6260   58.2510 C.3       9 GLL5        0.0000 
      9 CA         46.9820    5.8510   57.7840 C.3       6 GLP5        0.0000 
     10 O          50.1420    7.0100   59.8960 O.2       1 ALC1        0.0000 
     11 O          49.3450    7.9280   59.3530 O.2       7 ALL1        0.0000 
     12 O          50.9390    6.0920   60.4390 O.2       4 ALP1        0.0000 
     13 N          51.6830   11.0690   60.1870 N.am      2 SEC2        0.0000 
     14 N          51.6160    9.6280   59.9710 N.am      8 SEL2        0.0000 
     15 N          51.7500   12.5100   60.4030 N.am      5 SEP2        0.0000 
     16 O          52.0055    8.5695   60.6200 O.2       1 ALC1        0.0000 
     17 O          51.6160    9.6280   59.9710 O.2       7 ALL1        0.0000 
     18 O          52.3950    7.5110   61.2690 O.2       4 ALP1        0.0000 
     19 CA         52.4440    5.8925   57.9395 C.3       3 GLC5        0.0000 
     20 CA         52.3630    8.0520   58.1760 C.3       9 GLL5        0.0000 
     21 CA         52.5250    3.7330   57.7030 C.3       6 GLP5        0.0000 
     22 CA         55.5225    7.5475   55.9950 C.3       3 GLC5        0.0000 
     23 CA         55.9450    8.5310   57.6130 C.3       9 GLL5        0.0000 
     24 CA         55.1000    6.5640   54.3770 C.3       6 GLP5        0.0000 
     25 CA         57.4755    8.4730   59.4740 C.3       3 GLC5        0.0000 
     26 CA         57.3060    8.0080   57.7390 C.3       9 GLL5        0.0000 
     27 CA         57.6450    8.9380   61.2090 C.3       6 GLP5        0.0000 
     28 CA         56.2315    6.7185   56.5730 C.3       3 GLC5        0.0000 
     29 CA         55.1570    5.4290   55.4070 C.3       6 GLP5        0.0000 
     30 CA         58.6470    7.1705   56.5460 C.3       3 GLC5        0.0000 
     31 CA         59.9880    6.3330   55.3530 C.3       6 GLP5        0.0000 
     32 CA         56.7230    4.1615   57.8175 C.3       3 GLC5        0.0000 
     33 CA         56.3350    6.0710   58.8180 C.3       9 GLL5        0.0000 
     34 CA         57.1110    2.2520   56.8170 C.3       6 GLP5        0.0000 
     35 CA         55.1380    5.5355   60.4105 C.3       3 GLC5        0.0000 
     36 CA         53.9410    5.0000   62.0030 C.3       6 GLP5        0.0000 
     37 CA         56.9900    7.5045   60.0135 C.3       3 GLC5        0.0000 
     38 CA         55.7460    5.7500   57.1125 C.3       3 GLC5        0.0000 
     39 N          55.0855    6.8370   60.4285 N.am      2 SEC2        0.0000 
     40 N          55.0050    6.5390   58.7230 N.am      8 SEL2        0.0000 
     41 N          55.1660    7.1350   62.1340 N.am      5 SEP2        0.0000 
     42 CA         55.0090    6.5975   56.7515 C.3       3 GLC5        0.0000 
     43 CA         54.8610    7.7660   58.0960 C.3       9 GLL5        0.0000 
     44 N          45.6660    5.2890   54.0125 N.am      2 SEC2        0.0000 
     45 N          46.2730    6.3780   54.1680 N.am      8 SEL2        0.0000 
     46 N          45.0590    4.2000   53.8570 N.am      5 SEP2        0.0000 
     47 CA         51.2790    6.4450   49.8920 C.3       3 GLC5        0.0000 
     48 CA         49.6960    7.7660   50.6340 C.3       9 GLL5        0.0000 
     49 CA         52.8620    5.1240   49.1500 C.3       6 GLP5        0.0000 
     50 CA         51.6690    9.8395   50.7405 C.3       3 GLC5        0.0000 
     51 CA         50.2580    8.9330   49.7620 C.3       9 GLL5        0.0000 
     52 CA         53.0800   10.7460   51.7190 C.3       6 GLP5        0.0000 
     53 N          51.7345    9.6900   48.2095 N.am      2 SEC2        0.0000 
     54 N          51.6100    8.6890   49.3310 N.am      8 SEL2        0.0000 
     55 N          51.8590   10.6910   47.0880 N.am      5 SEP2        0.0000 
     56 O          52.1525    7.8995   48.5905 O.2       1 ALC1        0.0000 
     57 O          51.6100    8.6890   49.3310 O.2       7 ALL1        0.0000 
     58 O          52.6950    7.1100   47.8500 O.2       4 ALP1        0.0000 
     59 O          50.0340    9.3400   46.6980 O.2       1 ALC1        0.0000 
     60 O          49.5260    9.8200   47.5860 O.2       7 ALL1        0.0000 
     61 O          50.5420    8.8600   45.8100 O.2       4 ALP1        0.0000 
     62 CA         51.0420    6.2450   48.7025 C.3       3 GLC5        0.0000 
     63 CA         49.2220    7.3660   48.2550 C.3       9 GLL5        0.0000 
     64 CA         49.8470    6.8835   45.1385 C.3       3 GLC5        0.0000 
     65 CA         48.3950    5.9460   46.4210 C.3       9 GLL5        0.0000 
     66 CA         51.2990    7.8210   43.8560 C.3       6 GLP5        0.0000 
     67 CA         48.3050    3.5025   46.9780 C.3       3 GLC5        0.0000 
     68 CA         47.3020    5.1840   45.8700 C.3       9 GLL5        0.0000 
     69 CA         49.3080    1.8210   48.0860 C.3       6 GLP5        0.0000 
     70 N          45.4395    3.8190   43.2845 N.am      2 SEC2        0.0000 
     71 N          46.8200    3.9720   43.7350 N.am      8 SEL2        0.0000 
     72 N          44.0590    3.6660   42.8340 N.am      5 SEP2        0.0000 
     73 CA         48.5477    6.8442   57.0572 C.3       3 GLC5        0.0000 
     74 CA         55.3480    9.0152   59.4677 C.3       3 GLC5        0.0000 
     75 CA         55.2930    9.8820   61.0810 C.3       6 GLP5        0.0000 
     76 CA         46.1426    3.6881   46.7181 C.3       3 GLC5        0.0000 
     77 CA         46.0920    1.8000   46.6260 C.3       6 GLP5        0.0000 
@<TRIPOS>BOND
@<TRIPOS>SUBSTRUCTURE
     1 ALC1       10 GROUP        1 X    ALC  0     ROOT ALC X 1
     2 SEC2        1 GROUP        1 X    SEC  0     **** SEC X 2
     3 GLC5        4 GROUP        1 X    GLC  0     **** GLC X 6
     4 ALP1       12 GROUP        1 Y    ALP  0     ROOT ALP Y 8
     5 SEP2        3 GROUP        1 Y    SEP  0     **** SEP Y 9
     6 GLP5        6 GROUP        1 Y    GLP  0     **** GLP Y 13
     7 ALL1       11 GROUP        1 Z    ALL  0     ROOT ALL Z 15
     8 SEL2        2 GROUP        1 Z    SEL  0     **** SEL Z 16
     9 GLL5        5 GROUP        1 Z    GLL  0     **** GLL Z 20
@<TRIPOS>SET

