#    Name: 1omo_NAD_1_ligand
#    Modification time : Mon Mar 24 20:19:47 2014

@<TRIPOS>MOLECULE
1omo_NAD_1_ligand
   70    74     1     0     0
SMALL
NO_CHARGES


@<TRIPOS>ATOM
      1 PA         47.4400    9.2940   55.3490 P.3       1 NAD400      0.0000 
      2 O1A        48.0450   10.6370   55.5290 O.co2     1 NAD400      0.0000 
      3 O2A        46.1210    8.9730   56.0650 O.co2     1 NAD400      0.0000 
      4 O5B        48.3920    7.9720   55.6230 O.3       1 NAD400      0.0000 
      5 C5B        49.8790    8.0520   55.6230 C.3       1 NAD400      0.0000 
      6 C4B        50.3480    7.6230   57.0380 C.3       1 NAD400      0.0000 
      7 O4B        51.8380    7.6810   56.9230 O.3       1 NAD400      0.0000 
      8 C3B        50.0500    8.6260   58.2510 C.3       1 NAD400      0.0000 
      9 O3B        49.3450    7.9280   59.3530 O.3       1 NAD400      0.0000 
     10 C2B        51.4260    9.1960   58.6730 C.3       1 NAD400      0.0000 
     11 O2B        51.6160    9.6280   59.9710 O.3       1 NAD400      0.0000 
     12 C1B        52.3630    8.0520   58.1760 C.3       1 NAD400      0.0000 
     13 N9A        53.6870    8.4910   57.8450 N.pl3     1 NAD400      0.0000 
     14 C8A        54.1570    9.6260   57.2150 C.2       1 NAD400      0.0000 
     15 N7A        55.4660    9.6470   57.0800 N.2       1 NAD400      0.0000 
     16 C5A        55.9450    8.5310   57.6130 C.ar      1 NAD400      0.0000 
     17 C6A        57.3060    8.0080   57.7390 C.ar      1 NAD400      0.0000 
     18 N6A        58.3460    8.6770   57.3120 N.pl3     1 NAD400      0.0000 
     19 N1A        57.3970    6.7730   58.3570 N.ar      1 NAD400      0.0000 
     20 C2A        56.3350    6.0710   58.8180 C.ar      1 NAD400      0.0000 
     21 N3A        55.0050    6.5390   58.7230 N.ar      1 NAD400      0.0000 
     22 C4A        54.8610    7.7660   58.0960 C.ar      1 NAD400      0.0000 
     23 O3         47.2240    8.7540   53.7890 O.3       1 NAD400      0.0000 
     24 PN         46.5440    7.3730   53.0700 P.3       1 NAD400      0.0000 
     25 O1N        46.2730    6.3780   54.1680 O.co2     1 NAD400      0.0000 
     26 O2N        45.4740    7.8130   52.0910 O.co2     1 NAD400      0.0000 
     27 O5D        47.9200    6.8790   52.2310 O.3       1 NAD400      0.0000 
     28 C5D        48.5870    8.1370   51.5630 C.3       1 NAD400      0.0000 
     29 C4D        49.6960    7.7660   50.6340 C.3       1 NAD400      0.0000 
     30 O4D        49.1200    6.7750   49.6130 O.3       1 NAD400      0.0000 
     31 C3D        50.2580    8.9330   49.7620 C.3       1 NAD400      0.0000 
     32 O3D        51.6100    8.6890   49.3310 O.3       1 NAD400      0.0000 
     33 C2D        49.2450    8.9270   48.6130 C.3       1 NAD400      0.0000 
     34 O2D        49.5260    9.8200   47.5860 O.3       1 NAD400      0.0000 
     35 C1D        49.2220    7.3660   48.2550 C.3       1 NAD400      0.0000 
     36 N1N        48.0240    6.7530   47.5830 N.pl3     1 NAD400      0.0000 
     37 C2N        48.3950    5.9460   46.4210 C.ar      1 NAD400      0.0000 
     38 C3N        47.3020    5.1840   45.8700 C.ar      1 NAD400      0.0000 
     39 C7N        47.7270    4.2910   44.5560 C.2       1 NAD400      0.0000 
     40 O7N        46.8200    3.9720   43.7350 O.2       1 NAD400      0.0000 
     41 N7N        49.0410    3.9200   44.4250 N.am      1 NAD400      0.0000 
     42 C4N        45.9710    5.1430   46.3490 C.ar      1 NAD400      0.0000 
     43 C5N        45.7500    5.9890   47.5110 C.ar      1 NAD400      0.0000 
     44 C6N        46.7530    6.7670   48.1110 C.ar      1 NAD400      0.0000 
     45 H          50.2093    9.0582   55.4464 H         1 NAD400      0.0000 
     46 H          50.3000    7.3732   54.9055 H         1 NAD400      0.0000 
     47 H          50.0536    6.6670   57.2772 H         1 NAD400      0.0000 
     48 H          49.4650    9.4247   57.8406 H         1 NAD400      0.0000 
     49 H          51.6144   10.0108   57.9073 H         1 NAD400      0.0000 
     50 H          52.3416    7.2635   58.8532 H         1 NAD400      0.0000 
     51 H          53.5353   10.3438   56.9038 H         1 NAD400      0.0000 
     52 H          59.2318    8.2238   57.4114 H         1 NAD400      0.0000 
     53 H          58.1597    9.5802   56.9254 H         1 NAD400      0.0000 
     54 H          56.4805    5.1332   59.2709 H         1 NAD400      0.0000 
     55 H          48.9571    8.7796   52.3682 H         1 NAD400      0.0000 
     56 H          47.8016    8.6808   51.0284 H         1 NAD400      0.0000 
     57 H          50.4960    7.2879   51.1319 H         1 NAD400      0.0000 
     58 H          50.1203    9.8242   50.3159 H         1 NAD400      0.0000 
     59 H          48.2661    9.0931   49.1023 H         1 NAD400      0.0000 
     60 H          50.1259    7.0821   47.8401 H         1 NAD400      0.0000 
     61 H          49.2895    5.9320   46.0648 H         1 NAD400      0.0000 
     62 H          49.6629    4.2443   45.1377 H         1 NAD400      0.0000 
     63 H          49.2621    3.3577   43.6282 H         1 NAD400      0.0000 
     64 H          45.2647    4.6122   45.9570 H         1 NAD400      0.0000 
     65 H          44.7851    6.0048   47.9060 H         1 NAD400      0.0000 
     66 H          46.5285    7.3349   48.9329 H         1 NAD400      0.0000 
     67 H          50.0140    7.2815   59.7196 H         1 NAD400      0.0000 
     68 H          52.3535    9.0552   60.3290 H         1 NAD400      0.0000 
     69 H          51.5485    7.8989   48.7212 H         1 NAD400      0.0000 
     70 H          50.3561    9.4659   47.1552 H         1 NAD400      0.0000 
@<TRIPOS>BOND
     1    2    1 ar   
     2    3    1 ar   
     3    4    1 1    
     4   23    1 1    
     5    5    4 1    
     6    6    5 1    
     7   45    5 1    
     8   46    5 1    
     9    7    6 1    
    10    8    6 1    
    11   47    6 1    
    12   12    7 1    
    13    9    8 1    
    14   10    8 1    
    15   48    8 1    
    16   67    9 1    
    17   11   10 1    
    18   12   10 1    
    19   49   10 1    
    20   68   11 1    
    21   13   12 1    
    22   50   12 1    
    23   14   13 1    
    24   22   13 1    
    25   15   14 2    
    26   51   14 1    
    27   16   15 1    
    28   17   16 ar   
    29   22   16 ar   
    30   18   17 1    
    31   19   17 ar   
    32   52   18 1    
    33   53   18 1    
    34   20   19 ar   
    35   21   20 ar   
    36   54   20 1    
    37   22   21 ar   
    38   24   23 1    
    39   25   24 ar   
    40   26   24 ar   
    41   27   24 1    
    42   28   27 1    
    43   29   28 1    
    44   55   28 1    
    45   56   28 1    
    46   30   29 1    
    47   31   29 1    
    48   57   29 1    
    49   35   30 1    
    50   32   31 1    
    51   33   31 1    
    52   58   31 1    
    53   69   32 1    
    54   34   33 1    
    55   35   33 1    
    56   59   33 1    
    57   70   34 1    
    58   36   35 1    
    59   60   35 1    
    60   37   36 ar   
    61   44   36 ar   
    62   38   37 ar   
    63   61   37 1    
    64   39   38 1    
    65   42   38 ar   
    66   40   39 2    
    67   41   39 am   
    68   62   41 1    
    69   63   41 1    
    70   43   42 ar   
    71   64   42 1    
    72   44   43 ar   
    73   65   43 1    
    74   66   44 1    
@<TRIPOS>SUBSTRUCTURE
     1 NAD400      1 GROUP   
@<TRIPOS>SET

