#    Name: 3db6_FRS_1_INTS_M
#    Modification time : Mon Mar 24 23:02:19 2014

@<TRIPOS>MOLECULE
3db6_FRS_1_INTS_M
   74     0     9     0     0
SMALL
NO_CHARGES


@<TRIPOS>ATOM
      1 CA         90.2805   82.4610   18.7500 C.3       3 GLC5        0.0000 
      2 CA         90.4220   80.3810   18.6430 C.3       9 GLL5        0.0000 
      3 CA         90.1390   84.5410   18.8570 C.3       6 GLP5        0.0000 
      4 CA         93.9850   79.7360   19.6440 C.3       3 GLC5        0.0000 
      5 CA         92.0110   80.1580   20.4340 C.3       9 GLL5        0.0000 
      6 CA         95.9590   79.3140   18.8540 C.3       6 GLP5        0.0000 
      7 CA         85.6545   77.0625   25.5200 C.3       3 GLC5        0.0000 
      8 CA         85.2990   75.3730   26.7510 C.3       9 GLL5        0.0000 
      9 CA         86.0100   78.7520   24.2890 C.3       6 GLP5        0.0000 
     10 CA         82.3625   77.1765   25.5830 C.3       3 GLC5        0.0000 
     11 CA         82.7730   75.9970   27.0830 C.3       9 GLL5        0.0000 
     12 CA         81.9520   78.3560   24.0830 C.3       6 GLP5        0.0000 
     13 CA         81.4535   77.7945   27.3195 C.3       3 GLC5        0.0000 
     14 CA         80.1340   79.5920   27.5560 C.3       6 GLP5        0.0000 
     15 O          87.7580   73.9490   28.1565 O.2       1 ALC1        0.0000 
     16 O          87.5460   75.0300   27.4020 O.2       7 ALL1        0.0000 
     17 O          87.9700   72.8680   28.9110 O.2       4 ALP1        0.0000 
     18 CA         88.9550   77.2835   31.0725 C.3       3 GLC5        0.0000 
     19 CA         87.5920   76.6660   30.2360 C.3       9 GLL5        0.0000 
     20 CA         90.3180   77.9010   31.9090 C.3       6 GLP5        0.0000 
     21 CA         88.1350   78.3625   29.9815 C.3       3 GLC5        0.0000 
     22 CA         88.6780   80.0590   29.7270 C.3       6 GLP5        0.0000 
     23 CA         87.3740   73.2960   30.9245 C.3       3 GLC5        0.0000 
     24 CA         86.5840   74.8820   30.8820 C.3       9 GLL5        0.0000 
     25 CA         88.1640   71.7100   30.9670 C.3       6 GLP5        0.0000 
     26 CA         92.0960   77.0270   25.7615 C.3       3 GLC5        0.0000 
     27 CA         92.2380   75.5470   24.0930 C.3       9 GLL5        0.0000 
     28 CA         91.9540   78.5070   27.4300 C.3       6 GLP5        0.0000 
     29 CA         92.4195   74.7245   22.3545 C.3       3 GLC5        0.0000 
     30 CA         92.6010   73.9020   20.6160 C.3       6 GLP5        0.0000 
     31 CA         93.1635   74.0375   24.1420 C.3       3 GLC5        0.0000 
     32 CA         94.0890   72.5280   24.1910 C.3       6 GLP5        0.0000 
     33 CA         91.3720   73.5315   24.5530 C.3       3 GLC5        0.0000 
     34 CA         90.5060   71.5160   25.0130 C.3       6 GLP5        0.0000 
     35 CA         88.3095   77.4500   23.5810 C.3       3 GLC5        0.0000 
     36 CA         90.0110   76.8190   24.0970 C.3       9 GLL5        0.0000 
     37 CA         86.6080   78.0810   23.0650 C.3       6 GLP5        0.0000 
     38 CA         91.5890   80.8995   22.4625 C.3       3 GLC5        0.0000 
     39 CA         91.5570   78.7310   22.3600 C.3       9 GLL5        0.0000 
     40 CA         91.6210   83.0680   22.5650 C.3       6 GLP5        0.0000 
     41 CA         93.3500   78.1780   23.5990 C.3       3 GLC5        0.0000 
     42 CA         95.1430   77.6250   24.8380 C.3       6 GLP5        0.0000 
     43 CA         90.8270   79.2055   24.2795 C.3       3 GLC5        0.0000 
     44 CA         90.0970   79.6800   26.1990 C.3       6 GLP5        0.0000 
     45 O          93.6950   80.4310   22.3620 O.2       1 ALC1        0.0000 
     46 O          92.4160   79.6420   21.6230 O.2       7 ALL1        0.0000 
     47 O          94.9740   81.2200   23.1010 O.2       4 ALP1        0.0000 
     48 CA         91.3030   83.0425   18.7320 C.3       3 GLC5        0.0000 
     49 CA         92.4670   81.5440   18.6070 C.3       9 GLL5        0.0000 
     50 CA         92.0440   82.3060   20.5860 C.3       3 GLC5        0.0000 
     51 CA         92.9825   83.3250   19.2370 C.3       3 GLC5        0.0000 
     52 CA         93.4980   85.1060   19.8670 C.3       6 GLP5        0.0000 
     53 CA         94.3315   81.1660   18.5660 C.3       3 GLC5        0.0000 
     54 CA         96.1960   80.7880   18.5250 C.3       6 GLP5        0.0000 
     55 N          94.2395   81.3320   19.6775 N.am      2 SEC2        0.0000 
     56 N          92.8300   81.0160   19.7840 N.am      8 SEL2        0.0000 
     57 N          95.6490   81.6480   19.5710 N.am      5 SEP2        0.0000 
     58 CA         89.2497   81.1077   20.2950 C.3       3 GLC5        0.0000 
     59 CA         90.7750   79.8200   19.8710 C.3       9 GLL5        0.0000 
     60 CA         87.9010   82.1150   21.3330 C.3       6 GLP5        0.0000 
     61 CA         91.5070   81.5285   21.3588 C.3       3 GLC5        0.0000 
     62 CA         91.7140   75.7725   21.4420 C.3       3 GLC5        0.0000 
     63 CA         92.1640   77.3390   22.2990 C.3       9 GLL5        0.0000 
     64 CA         91.5530   74.5950   20.0190 C.3       6 GLP5        0.0000 
     65 CA         86.1723   78.2572   30.6235 C.3       3 GLC5        0.0000 
     66 CA         85.6070   76.7890   31.0380 C.3       9 GLL5        0.0000 
     67 CA         86.3280   80.0920   30.5740 C.3       6 GLP5        0.0000 
     68 CA         84.5705   75.6550   31.6797 C.3       3 GLC5        0.0000 
     69 CA         83.0850   75.1810   32.5430 C.3       6 GLP5        0.0000 
     70 CA         86.7619   76.2636   32.5038 C.3       3 GLC5        0.0000 
     71 CA         87.3220   76.3220   34.2000 C.3       6 GLP5        0.0000 
     72 CA         93.5998   76.9367   24.1585 C.3       3 GLC5        0.0000 
     73 CA         90.4477   78.1850   24.9815 C.3       3 GLC5        0.0000 
     74 CA         91.5860   76.5610   23.4310 C.3       9 GLL5        0.0000 
@<TRIPOS>BOND
@<TRIPOS>SUBSTRUCTURE
     1 ALC1       15 GROUP        1 X    ALC  0     ROOT ALC X 1
     2 SEC2       55 GROUP        1 X    SEC  0     **** SEC X 2
     3 GLC5        1 GROUP        1 X    GLC  0     **** GLC X 6
     4 ALP1       17 GROUP        1 Y    ALP  0     ROOT ALP Y 8
     5 SEP2       57 GROUP        1 Y    SEP  0     **** SEP Y 9
     6 GLP5        3 GROUP        1 Y    GLP  0     **** GLP Y 13
     7 ALL1       16 GROUP        1 Z    ALL  0     ROOT ALL Z 15
     8 SEL2       56 GROUP        1 Z    SEL  0     **** SEL Z 16
     9 GLL5        2 GROUP        1 Z    GLL  0     **** GLL Z 20
@<TRIPOS>SET

