#    Name: 3db6_FRS_1_ligand
#    Modification time : Mon Mar 24 23:02:19 2014

@<TRIPOS>MOLECULE
3db6_FRS_1_ligand
   51    54     1     0     0
SMALL
NO_CHARGES


@<TRIPOS>ATOM
      1 N33        86.2890   78.3940   18.5340 N.pl3     1 FRS1        0.0000 
      2 N29        89.2510   80.1200   17.9930 N.pl3     1 FRS1        0.0000 
      3 C30        88.2350   79.3040   18.4100 C.2       1 FRS1        0.0000 
      4 C28        90.4220   80.3810   18.6430 C.ar      1 FRS1        0.0000 
      5 C27        90.7750   79.8200   19.8710 C.ar      1 FRS1        0.0000 
      6 C23        92.0110   80.1580   20.4340 C.ar      1 FRS1        0.0000 
      7 C20        92.1640   77.3390   22.2990 C.3       1 FRS1        0.0000 
      8 C15        90.3260   75.5460   25.2250 C.2       1 FRS1        0.0000 
      9 C12        88.2600   75.5800   26.4120 C.2       1 FRS1        0.0000 
     10 C10        86.3050   75.4140   27.7290 C.2       1 FRS1        0.0000 
     11 C5         85.8570   75.8370   28.9540 C.2       1 FRS1        0.0000 
     12 C6         86.4260   76.0560   30.3080 C.3       1 FRS1        0.0000 
     13 C3         85.2990   75.3730   26.7510 C.2       1 FRS1        0.0000 
     14 C2         84.1890   75.7950   27.4610 C.2       1 FRS1        0.0000 
     15 C1         82.7730   75.9970   27.0830 C.3       1 FRS1        0.0000 
     16 O13        87.8120   76.4930   25.7380 O.2       1 FRS1        0.0000 
     17 N11        87.5460   75.0300   27.4020 N.am      1 FRS1        0.0000 
     18 F9         87.5920   76.6660   30.2360 F         1 FRS1        0.0000 
     19 F8         86.5840   74.8820   30.8820 F         1 FRS1        0.0000 
     20 F7         85.6070   76.7890   31.0380 F         1 FRS1        0.0000 
     21 O4         84.5100   76.0680   28.7700 O.3       1 FRS1        0.0000 
     22 N14        89.4840   75.0890   26.1930 N.2       1 FRS1        0.0000 
     23 N17        91.5070   74.9660   25.1240 N.pl3     1 FRS1        0.0000 
     24 C18        92.2380   75.5470   24.0930 C.2       1 FRS1        0.0000 
     25 C19        91.5860   76.5610   23.4310 C.2       1 FRS1        0.0000 
     26 S16        90.0110   76.8190   24.0970 S.3       1 FRS1        0.0000 
     27 C21        91.5570   78.7310   22.3600 C.3       1 FRS1        0.0000 
     28 N22        92.4160   79.6420   21.6230 N.pl3     1 FRS1        0.0000 
     29 N26        91.2900   81.2320   18.0460 N.ar      1 FRS1        0.0000 
     30 C25        92.4670   81.5440   18.6070 C.ar      1 FRS1        0.0000 
     31 N24        92.8300   81.0160   19.7840 N.ar      1 FRS1        0.0000 
     32 N35        87.0260   79.3680   17.8390 N.2       1 FRS1        0.0000 
     33 C32        87.1080   77.8230   19.4590 C.2       1 FRS1        0.0000 
     34 N31        88.3400   78.3900   19.3880 N.2       1 FRS1        0.0000 
     35 H          85.3757   78.1883   18.3674 H         1 FRS1        0.0000 
     36 H          89.1079   80.6157   17.0356 H         1 FRS1        0.0000 
     37 H          90.1478   79.1780   20.3490 H         1 FRS1        0.0000 
     38 H          91.9064   76.8808   21.3576 H         1 FRS1        0.0000 
     39 H          93.2346   77.4141   22.4024 H         1 FRS1        0.0000 
     40 H          85.3714   75.1300   25.8797 H         1 FRS1        0.0000 
     41 H          87.9931   74.2362   27.9660 H         1 FRS1        0.0000 
     42 H          91.8532   74.2369   25.6705 H         1 FRS1        0.0000 
     43 H          93.1562   75.2480   23.8599 H         1 FRS1        0.0000 
     44 H          91.4750   79.0262   23.4048 H         1 FRS1        0.0000 
     45 H          90.5597   78.6919   21.9248 H         1 FRS1        0.0000 
     46 H          93.3267   79.8711   22.0389 H         1 FRS1        0.0000 
     47 H          93.1138   82.2120   18.1167 H         1 FRS1        0.0000 
     48 H          86.8499   77.1194   20.0736 H         1 FRS1        0.0000 
     49 H          82.6760   76.6771   26.3563 H         1 FRS1        0.0000 
     50 H          82.3529   75.1521   26.7518 H         1 FRS1        0.0000 
     51 H          82.2238   76.3139   27.8562 H         1 FRS1        0.0000 
@<TRIPOS>BOND
     1   32    1 1    
     2   33    1 1    
     3   35    1 1    
     4    3    2 1    
     5    4    2 1    
     6   36    2 1    
     7   32    3 2    
     8   34    3 1    
     9    5    4 ar   
    10   29    4 ar   
    11    6    5 ar   
    12   37    5 1    
    13   28    6 1    
    14   31    6 ar   
    15   25    7 1    
    16   27    7 1    
    17   38    7 1    
    18   39    7 1    
    19   22    8 2    
    20   23    8 1    
    21   26    8 1    
    22   16    9 2    
    23   17    9 am   
    24   22    9 1    
    25   11   10 2    
    26   13   10 1    
    27   17   10 1    
    28   12   11 1    
    29   21   11 1    
    30   18   12 1    
    31   19   12 1    
    32   20   12 1    
    33   14   13 2    
    34   40   13 1    
    35   15   14 1    
    36   21   14 1    
    37   49   15 1    
    38   50   15 1    
    39   51   15 1    
    40   41   17 1    
    41   24   23 1    
    42   42   23 1    
    43   25   24 2    
    44   43   24 1    
    45   26   25 1    
    46   28   27 1    
    47   44   27 1    
    48   45   27 1    
    49   46   28 1    
    50   30   29 ar   
    51   31   30 ar   
    52   47   30 1    
    53   34   33 2    
    54   48   33 1    
@<TRIPOS>SUBSTRUCTURE
     1 FRS1        1 GROUP   
@<TRIPOS>SET

