#    Name: 1iwe_IMP_2_INTS_M
#    Modification time : Tue Mar 25 08:14:06 2014

@<TRIPOS>MOLECULE
1iwe_IMP_2_INTS_M
   39     0    12     0     0
SMALL
NO_CHARGES


@<TRIPOS>ATOM
      1 NZ         45.2340   12.6675   18.6940 N.4       3 LYC4        0.0000 
      2 NZ         44.2070   13.3010   18.9640 N.4      11 LYL4        0.0000 
      3 NZ         47.2070   11.6540   19.2670 N.4       7 LYP4        0.0000 
      4 N          45.2340   12.6675   18.6940 N.am      2 SEC2        0.0000 
      5 N          44.2070   13.3010   18.9640 N.am     10 SEL2        0.0000 
      6 N          46.2610   12.0340   18.4240 N.am      6 SEP2        0.0000 
      7 N          40.6875   13.3040   18.0920 N.am      2 SEC2        0.0000 
      8 N          41.8940   12.6740   18.2040 N.am     10 SEL2        0.0000 
      9 N          39.4810   13.9340   17.9800 N.am      6 SEP2        0.0000 
     10 N          41.8275   11.4925   18.8070 N.am      2 SEC2        0.0000 
     11 N          41.7610   10.3110   19.4100 N.am      6 SEP2        0.0000 
     12 N          41.1300   14.4775   17.8820 N.am      2 SEC2        0.0000 
     13 N          42.7790   15.0210   17.7840 N.am     10 SEL2        0.0000 
     14 N          43.0900   16.0210   16.9585 N.am      2 SEC2        0.0000 
     15 N          43.4010   17.0210   16.1330 N.am      6 SEP2        0.0000 
     16 N          41.8330   15.9610   17.6750 N.am      2 SEC2        0.0000 
     17 N          40.8870   16.9010   17.5660 N.am      6 SEP2        0.0000 
     18 CA         47.0045   12.4845   14.6415 C.3       4 GLC5        0.0000 
     19 CA         45.0310   12.4430   13.9940 C.3      12 GLL5        0.0000 
     20 CA         48.9780   12.5260   15.2890 C.3       8 GLP5        0.0000 
     21 CA         45.2890   14.2120   14.8405 C.3       4 GLC5        0.0000 
     22 CA         45.5470   15.9810   15.6870 C.3       8 GLP5        0.0000 
     23 CA         42.5655    9.9115   12.6140 C.3       4 GLC5        0.0000 
     24 CA         43.1120   11.8110   12.7290 C.3      12 GLL5        0.0000 
     25 CA         42.0190    8.0120   12.4990 C.3       8 GLP5        0.0000 
     26 CA         41.3410   14.2570    9.9100 C.3       4 GLC5        0.0000 
     27 CA         40.4700   13.9150   11.4220 C.3      12 GLL5        0.0000 
     28 CA         42.2120   14.5990    8.3980 C.3       8 GLP5        0.0000 
     29 O          37.6885   12.3560    9.4250 O.2       1 ALC1        0.0000 
     30 O          38.7170   12.8340   10.2660 O.2       9 ALL1        0.0000 
     31 O          36.6600   11.8780    8.5840 O.2       5 ALP1        0.0000 
     32 CA         41.3395   12.9635    9.7540 C.3       4 GLC5        0.0000 
     33 CA         41.0120   12.6560   11.6060 C.3      12 GLL5        0.0000 
     34 CA         41.6670   13.2710    7.9020 C.3       8 GLP5        0.0000 
     35 CA         44.8842    9.6397   15.5183 C.3       4 GLC5        0.0000 
     36 CA         44.1820   11.4480   14.7640 C.3      12 GLL5        0.0000 
     37 CA         45.6560    7.7060   15.5310 C.3       8 GLP5        0.0000 
     38 CA         43.8838   10.3733   16.9513 C.3       4 GLC5        0.0000 
     39 CA         43.6550    9.1730   18.3970 C.3       8 GLP5        0.0000 
@<TRIPOS>BOND
@<TRIPOS>SUBSTRUCTURE
     1 ALC1       29 GROUP        1 X    ALC  0     ROOT ALC X 1
     2 SEC2        4 GROUP        1 X    SEC  0     **** SEC X 2
     3 LYC4        1 GROUP        1 X    LYC  0     **** LYC X 4
     4 GLC5       18 GROUP        1 X    GLC  0     **** GLC X 6
     5 ALP1       31 GROUP        1 Y    ALP  0     ROOT ALP Y 8
     6 SEP2        6 GROUP        1 Y    SEP  0     **** SEP Y 9
     7 LYP4        3 GROUP        1 Y    LYP  0     **** LYP Y 11
     8 GLP5       20 GROUP        1 Y    GLP  0     **** GLP Y 13
     9 ALL1       30 GROUP        1 Z    ALL  0     ROOT ALL Z 15
    10 SEL2        5 GROUP        1 Z    SEL  0     **** SEL Z 16
    11 LYL4        2 GROUP        1 Z    LYL  0     **** LYL Z 18
    12 GLL5       19 GROUP        1 Z    GLL  0     **** GLL Z 20
@<TRIPOS>SET

