#    Name: 1iwe_IMP_2_ligand
#    Modification time : Tue Mar 25 08:14:06 2014

@<TRIPOS>MOLECULE
1iwe_IMP_2_ligand
   34    36     1     0     0
SMALL
NO_CHARGES


@<TRIPOS>ATOM
      1 P          43.1160   13.5440   17.9420 P.3       1 IMP1443     0.0000 
      2 O1P        44.2070   13.3010   18.9640 O.co2     1 IMP1443     0.0000 
      3 O2P        41.8940   12.6740   18.2040 O.co2     1 IMP1443     0.0000 
      4 O3P        42.7790   15.0210   17.7840 O.co2     1 IMP1443     0.0000 
      5 O5'        43.7190   13.0780   16.4980 O.3       1 IMP1443     0.0000 
      6 C5'        44.0430   11.6990   16.2470 C.3       1 IMP1443     0.0000 
      7 C4'        44.1820   11.4480   14.7640 C.3       1 IMP1443     0.0000 
      8 O4'        42.8980   11.5510   14.1030 O.3       1 IMP1443     0.0000 
      9 C3'        45.0310   12.4430   13.9940 C.3       1 IMP1443     0.0000 
     10 O3'        46.4100   12.1590   14.1880 O.3       1 IMP1443     0.0000 
     11 C2'        44.5810   12.2060   12.5500 C.3       1 IMP1443     0.0000 
     12 O2'        45.2650   11.1560   11.8960 O.3       1 IMP1443     0.0000 
     13 C1'        43.1120   11.8110   12.7290 C.3       1 IMP1443     0.0000 
     14 N9         42.1800   12.8500   12.3040 N.pl3     1 IMP1443     0.0000 
     15 C8         42.2750   14.2050   12.5060 C.2       1 IMP1443     0.0000 
     16 N7         41.2790   14.8860   11.9980 N.2       1 IMP1443     0.0000 
     17 C5         40.4700   13.9150   11.4220 C.2       1 IMP1443     0.0000 
     18 C6         39.2590   13.9900   10.7120 C.2       1 IMP1443     0.0000 
     19 O6         38.7770   15.0840   10.4300 O.2       1 IMP1443     0.0000 
     20 N1         38.7170   12.8340   10.2660 N.am      1 IMP1443     0.0000 
     21 C2         39.3580   11.6880   10.5240 C.2       1 IMP1443     0.0000 
     22 N3         40.5020   11.4890   11.1810 N.2       1 IMP1443     0.0000 
     23 C4         41.0120   12.6560   11.6060 C.2       1 IMP1443     0.0000 
     24 H          43.2621   11.0303   16.6380 H         1 IMP1443     0.0000 
     25 H          44.9884   11.4184   16.7341 H         1 IMP1443     0.0000 
     26 H          44.5841   10.4595   14.5853 H         1 IMP1443     0.0000 
     27 H          44.7384   13.4168   14.2794 H         1 IMP1443     0.0000 
     28 H          44.5963   13.1330   12.0360 H         1 IMP1443     0.0000 
     29 H          42.9456   10.9052   12.1516 H         1 IMP1443     0.0000 
     30 H          43.0509   14.6044   13.0023 H         1 IMP1443     0.0000 
     31 H          37.8286   12.8425    9.7390 H         1 IMP1443     0.0000 
     32 H          38.8659   10.7718   10.1347 H         1 IMP1443     0.0000 
     33 H          46.7194   11.7733   13.3188 H         1 IMP1443     0.0000 
     34 H          44.7838   10.3234   12.1703 H         1 IMP1443     0.0000 
@<TRIPOS>BOND
     1    2    1 ar   
     2    3    1 ar   
     3    4    1 ar   
     4    5    1 1    
     5    6    5 1    
     6    7    6 1    
     7   24    6 1    
     8   25    6 1    
     9    8    7 1    
    10    9    7 1    
    11   26    7 1    
    12   13    8 1    
    13   10    9 1    
    14   11    9 1    
    15   27    9 1    
    16   33   10 1    
    17   12   11 1    
    18   13   11 1    
    19   28   11 1    
    20   34   12 1    
    21   14   13 1    
    22   29   13 1    
    23   15   14 1    
    24   23   14 1    
    25   16   15 2    
    26   30   15 1    
    27   17   16 1    
    28   18   17 1    
    29   23   17 2    
    30   19   18 2    
    31   20   18 am   
    32   21   20 1    
    33   31   20 1    
    34   22   21 2    
    35   32   21 1    
    36   23   22 1    
@<TRIPOS>SUBSTRUCTURE
     1 IMP1443     1 GROUP   
@<TRIPOS>SET

