#    Name: 2HM1_1_CAVITY_N1_6.mol2
#    Modification time : Mon Mar 10 17:17:31 2014

@<TRIPOS>MOLECULE
2HM1_1_CAVITY_N1_6.mol2
  103     0     6     0     0
SMALL
NO_CHARGES


@<TRIPOS>ATOM
      1 N           9.5763   -4.9173   21.8786 N.2       2 ALA2        0.0000 
      2 N           8.5258   -5.7154   21.1649 N.2       2 ALA2        0.0000 
      3 CA         10.9940   -3.4485   21.3018 C.3       5 GLY6        0.0000 
      4 DU          8.9378   -3.1681   20.8623 H         6 CUB7        0.0000 
      5 N           9.9435   -4.2467   20.5881 N.2       2 ALA2        0.0000 
      6 DU          7.8872   -3.9663   20.1486 H         6 CUB7        0.0000 
      7 N           8.8930   -5.0448   19.8744 N.2       2 ALA2        0.0000 
      8 N           9.8988   -6.1233   19.6001 N.2       2 ALA2        0.0000 
      9 N          10.9045   -7.2019   19.3259 N.2       2 ALA2        0.0000 
     10 CA          6.8367   -4.7644   19.4349 C.3       5 GLY6        0.0000 
     11 N           7.8425   -5.8429   19.1607 N.2       2 ALA2        0.0000 
     12 N           8.8482   -6.9215   18.8864 N.2       2 ALA2        0.0000 
     13 CZ          9.8540   -8.0000   18.6121 C.ar      4 PHE5        0.0000 
     14 DU         12.4118   -1.9797   20.7250 H         6 CUB7        0.0000 
     15 CA         13.4175   -3.0583   20.4507 C.3       5 GLY6        0.0000 
     16 CA         14.4233   -4.1368   20.1765 C.3       5 GLY6        0.0000 
     17 DU         11.3613   -2.7779   20.0113 H         6 CUB7        0.0000 
     18 N          12.3670   -3.8564   19.7370 N.2       2 ALA2        0.0000 
     19 N          13.3728   -4.9350   19.4628 N.2       2 ALA2        0.0000 
     20 DU         10.3108   -3.5760   19.2976 H         6 CUB7        0.0000 
     21 N          11.3165   -4.6546   19.0233 N.2       2 ALA2        0.0000 
     22 N          12.3223   -5.7331   18.7490 N.2       2 ALA2        0.0000 
     23 CA         13.3280   -6.8116   18.4748 C.3       5 GLY6        0.0000 
     24 DU          8.2545   -3.2956   18.8581 H         6 CUB7        0.0000 
     25 DU          9.2602   -4.3742   18.5839 H         6 CUB7        0.0000 
     26 DU         10.2660   -5.4527   18.3096 H         6 CUB7        0.0000 
     27 N          11.2717   -6.5312   18.0353 N.2       2 ALA2        0.0000 
     28 CZ         12.2775   -7.6098   17.7611 C.ar      4 PHE5        0.0000 
     29 CA          6.1982   -3.0153   18.4187 C.3       5 GLY6        0.0000 
     30 CA          7.2040   -4.0938   18.1444 C.3       5 GLY6        0.0000 
     31 CA          8.2097   -5.1723   17.8702 C.3       5 GLY6        0.0000 
     32 N           9.2155   -6.2509   17.5959 N.2       2 ALA2        0.0000 
     33 CZ         10.2212   -7.3294   17.3216 C.ar      4 PHE5        0.0000 
     34 CZ         11.2270   -8.4079   17.0474 C.ar      4 PHE5        0.0000 
     35 N           9.1707   -8.1275   16.6079 N.2       2 ALA2        0.0000 
     36 DU         11.7733   -0.2306   19.7087 H         6 CUB7        0.0000 
     37 DU         12.7790   -1.3091   19.4345 H         6 CUB7        0.0000 
     38 OG         13.7848   -2.3877   19.1602 O.2       1 SER1        0.0000 
     39 OG         14.7905   -3.4662   18.8859 O.2       1 SER1        0.0000 
     40 OG         15.7963   -4.5447   18.6117 O.2       1 SER1        0.0000 
     41 CZ         16.8021   -5.6233   18.3374 C.ar      4 PHE5        0.0000 
     42 DU         10.7227   -1.0287   18.9950 H         6 CUB7        0.0000 
     43 DU         11.7285   -2.1073   18.7208 H         6 CUB7        0.0000 
     44 N          12.7343   -3.1858   18.4465 N.2       2 ALA2        0.0000 
     45 N          13.7400   -4.2643   18.1722 N.2       2 ALA2        0.0000 
     46 CA         14.7458   -5.3429   17.8980 C.3       5 GLY6        0.0000 
     47 DU          9.6722   -1.8269   18.2813 H         6 CUB7        0.0000 
     48 DU         10.6780   -2.9054   18.0071 H         6 CUB7        0.0000 
     49 N          11.6837   -3.9839   17.7328 N.2       2 ALA2        0.0000 
     50 N          12.6895   -5.0625   17.4585 N.2       2 ALA2        0.0000 
     51 CZ         13.6953   -6.1410   17.1843 C.ar      4 PHE5        0.0000 
     52 N           7.6160   -1.5465   17.8419 N.2       2 ALA2        0.0000 
     53 CA          8.6217   -2.6250   17.5676 C.3       5 GLY6        0.0000 
     54 DU          9.6275   -3.7036   17.2934 H         6 CUB7        0.0000 
     55 N          10.6332   -4.7821   17.0191 N.2       2 ALA2        0.0000 
     56 N          11.6390   -5.8606   16.7448 N.2       2 ALA2        0.0000 
     57 CZ         12.6447   -6.9392   16.4706 C.ar      4 PHE5        0.0000 
     58 CZ         13.6505   -8.0177   16.1963 C.ar      4 PHE5        0.0000 
     59 CA          6.5654   -2.3446   17.1282 C.3       5 GLY6        0.0000 
     60 CA          8.5770   -4.5017   16.5797 C.3       5 GLY6        0.0000 
     61 DU          9.5827   -5.5802   16.3054 H         6 CUB7        0.0000 
     62 CA         10.5885   -6.6588   16.0311 C.3       5 GLY6        0.0000 
     63 CZ         11.5942   -7.7373   15.7569 C.ar      4 PHE5        0.0000 
     64 CA         12.6000   -8.8158   15.4826 C.3       5 GLY6        0.0000 
     65 CZ          8.5322   -6.3784   15.5917 C.ar      4 PHE5        0.0000 
     66 CZ          9.5379   -7.4569   15.3174 C.ar      4 PHE5        0.0000 
     67 CZ         10.5437   -8.5355   15.0432 C.ar      4 PHE5        0.0000 
     68 CA         12.1405    0.4400   18.4182 C.3       5 GLY6        0.0000 
     69 CA         13.1463   -0.6385   18.1440 C.3       5 GLY6        0.0000 
     70 OG         16.1635   -3.8741   17.3212 O.2       1 SER1        0.0000 
     71 NZ         17.1693   -4.9526   17.0469 N.2       3 LYS4        0.0000 
     72 O          11.0900   -0.3581   17.7045 O.2       2 ALA2        0.0000 
     73 CA         12.0957   -1.4366   17.4303 C.3       5 GLY6        0.0000 
     74 N          13.1015   -2.5152   17.1560 N.2       2 ALA2        0.0000 
     75 N          14.1073   -3.5937   16.8817 N.2       2 ALA2        0.0000 
     76 N          15.1130   -4.6722   16.6075 N.2       2 ALA2        0.0000 
     77 CZ         16.1188   -5.7508   16.3332 C.ar      4 PHE5        0.0000 
     78 OG         10.0395   -1.1563   16.9908 O.2       1 SER1        0.0000 
     79 N          11.0452   -2.2348   16.7166 N.2       2 ALA2        0.0000 
     80 N          14.0625   -5.4704   15.8938 N.2       2 ALA2        0.0000 
     81 NZ         15.0683   -6.5489   15.6195 N.2       3 LYS4        0.0000 
     82 OG          8.9889   -1.9544   16.2771 O.2       1 SER1        0.0000 
     83 N           9.9947   -3.0329   16.0029 N.2       2 ALA2        0.0000 
     84 N          11.0005   -4.1115   15.7286 N.2       2 ALA2        0.0000 
     85 N          12.0062   -5.1900   15.4543 N.2       2 ALA2        0.0000 
     86 N          13.0120   -6.2685   15.1801 N.2       2 ALA2        0.0000 
     87 NZ         14.0177   -7.3471   14.9058 N.2       3 LYS4        0.0000 
     88 CA          7.9384   -2.7526   15.5634 C.3       5 GLY6        0.0000 
     89 CA          8.9442   -3.8311   15.2891 C.3       5 GLY6        0.0000 
     90 CA          9.9499   -4.9096   15.0149 C.3       5 GLY6        0.0000 
     91 CA         10.9557   -5.9882   14.7406 C.3       5 GLY6        0.0000 
     92 CA         11.9615   -7.0667   14.4664 C.3       5 GLY6        0.0000 
     93 CA          7.8937   -4.6292   14.5754 C.3       5 GLY6        0.0000 
     94 CZ          8.8994   -5.7078   14.3012 C.ar      4 PHE5        0.0000 
     95 OG          9.3562   -1.2838   14.9866 O.2       1 SER1        0.0000 
     96 N          10.3619   -2.3623   14.7123 N.2       2 ALA2        0.0000 
     97 O           8.3057   -2.0819   14.2729 O.2       2 ALA2        0.0000 
     98 N           9.3114   -3.1605   13.9986 N.2       2 ALA2        0.0000 
     99 CA         10.3172   -4.2390   13.7244 C.3       5 GLY6        0.0000 
    100 N           8.2609   -3.9586   13.2849 N.2       2 ALA2        0.0000 
    101 N          10.7292   -1.6917   13.4218 N.2       2 ALA2        0.0000 
    102 CA          9.6787   -2.4899   12.7081 C.3       5 GLY6        0.0000 
    103 CA         10.6844   -3.5684   12.4339 C.3       5 GLY6        0.0000 
@<TRIPOS>BOND
@<TRIPOS>SUBSTRUCTURE
     1 SER1       38 GROUP   
     2 ALA2        1 GROUP   
     3 LYS4       71 GROUP   
     4 PHE5       13 GROUP   
     5 GLY6        3 GROUP   
     6 CUB7        4 GROUP   
@<TRIPOS>SET

