#    Name: 2hm1_LIQ_1_INTS_M
#    Modification time : Tue Mar 25 16:47:53 2014

@<TRIPOS>MOLECULE
2hm1_LIQ_1_INTS_M
   88     0    12     0     0
SMALL
NO_CHARGES


@<TRIPOS>ATOM
      1 CA          9.4665    0.6425   15.9505 C.3       4 GLC5        0.0000 
      2 CA          8.9890   -1.3060   16.7700 C.3      12 GLL5        0.0000 
      3 CA          9.9440    2.5910   15.1310 C.3       8 GLP5        0.0000 
      4 O          13.4770   -3.6580   15.7410 O.2       1 ALC1        0.0000 
      5 O          14.0650   -4.3850   16.9370 O.2       9 ALL1        0.0000 
      6 O          12.8890   -2.9310   14.5450 O.2       5 ALP1        0.0000 
      7 CA         13.6670   -7.6695   18.7840 C.3       4 GLC5        0.0000 
      8 CA         12.2540   -7.2140   17.4890 C.3      12 GLL5        0.0000 
      9 CA         15.0800   -8.1250   20.0790 C.3       8 GLP5        0.0000 
     10 CA         17.7015   -5.0565   14.2595 C.3       4 GLC5        0.0000 
     11 CA         16.1010   -5.2850   15.7960 C.3      12 GLL5        0.0000 
     12 CA         19.3020   -4.8280   12.7230 C.3       8 GLP5        0.0000 
     13 CA         15.0260   -4.2775   14.1110 C.3       4 GLC5        0.0000 
     14 CA         13.9510   -3.2700   12.4260 C.3       8 GLP5        0.0000 
     15 CA         21.0835   -4.9125   17.0275 C.3       4 GLC5        0.0000 
     16 CA         19.2000   -4.0780   17.5270 C.3      12 GLL5        0.0000 
     17 CA         22.9670   -5.7470   16.5280 C.3       8 GLP5        0.0000 
     18 CA         20.4665   -2.8470   16.5200 C.3       4 GLC5        0.0000 
     19 CA         21.7330   -1.6160   15.5130 C.3       8 GLP5        0.0000 
     20 CA         12.0685   -3.2070   12.5465 C.3       4 GLC5        0.0000 
     21 CA         10.1860   -3.1440   12.6670 C.3      12 GLL5        0.0000 
     22 CA          7.2010   -3.5960   16.0875 C.3       4 GLC5        0.0000 
     23 CA          8.8600   -2.5460   15.9570 C.3      12 GLL5        0.0000 
     24 CA          5.5420   -4.6460   16.2180 C.3       8 GLP5        0.0000 
     25 N          11.7490    0.5310   16.1065 N.am      2 SEC2        0.0000 
     26 N          11.4130   -0.2940   17.2680 N.am     10 SEL2        0.0000 
     27 N          12.0850    1.3560   14.9450 N.am      6 SEP2        0.0000 
     28 CA         14.7015   -7.4965   16.5585 C.3       4 GLC5        0.0000 
     29 CA         13.7070   -6.1790   15.3980 C.3      12 GLL5        0.0000 
     30 CA         15.6960   -8.8140   17.7190 C.3       8 GLP5        0.0000 
     31 CA         13.8290   -4.7245   13.9120 C.3       4 GLC5        0.0000 
     32 O          16.3005   -6.8595   14.1420 O.2       1 ALC1        0.0000 
     33 O          16.6300   -6.5100   15.3430 O.2       9 ALL1        0.0000 
     34 O          15.9710   -7.2090   12.9410 O.2       5 ALP1        0.0000 
     35 OD1        18.1355   -3.3730   15.7070 O.co2     3 ASC3        0.0000 
     36 OD1        18.4280   -4.4640   16.3520 O.co2    11 ASL3        0.0000 
     37 OD1        17.8430   -2.2820   15.0620 O.co2     7 ASP3        0.0000 
     38 CA         18.7195   -9.5055   15.5995 C.3       4 GLC5        0.0000 
     39 CA         19.1470   -9.8580   17.3090 C.3      12 GLL5        0.0000 
     40 CA         18.2920   -9.1530   13.8900 C.3       8 GLP5        0.0000 
     41 CA         18.1955  -11.4890   17.7300 C.3       4 GLC5        0.0000 
     42 CA         17.2440  -13.1200   18.1510 C.3       8 GLP5        0.0000 
     43 CA         17.4020   -9.7850   16.9730 C.3       4 GLC5        0.0000 
     44 CA         15.6570   -9.7120   16.6370 C.3       8 GLP5        0.0000 
     45 CA         12.5840   -9.1775   19.1410 C.3       4 GLC5        0.0000 
     46 CA         10.8890   -8.0870   19.2920 C.3      12 GLL5        0.0000 
     47 CA         14.2790  -10.2680   18.9900 C.3       8 GLP5        0.0000 
     48 CA         10.8865   -8.6315   21.0885 C.3       4 GLC5        0.0000 
     49 CA         10.8840   -9.1760   22.8850 C.3       8 GLP5        0.0000 
     50 CA         10.5625   -9.4565   18.4465 C.3       4 GLC5        0.0000 
     51 CA         10.2360  -10.8260   17.6010 C.3       8 GLP5        0.0000 
     52 CA          7.1215   -5.2490   15.8945 C.3       4 GLC5        0.0000 
     53 CA          8.7010   -5.8520   15.5710 C.3      12 GLL5        0.0000 
     54 CA          7.7795   -6.5940   14.6240 C.3       4 GLC5        0.0000 
     55 CA          6.8580   -7.3360   13.6770 C.3       8 GLP5        0.0000 
     56 CA         13.0767   -1.5497   16.4315 C.3       4 GLC5        0.0000 
     57 CA         12.9980   -2.6930   18.4070 C.3      12 GLL5        0.0000 
     58 CA         13.8110   -0.3450   14.8600 C.3       8 GLP5        0.0000 
     59 CA         11.1158   -6.4023   13.9250 C.3       4 GLC5        0.0000 
     60 CA         12.3400   -6.4720   16.1240 C.3      12 GLL5        0.0000 
     61 CA         10.5250   -6.5610   12.0420 C.3       8 GLP5        0.0000 
     62 CA         13.1348   -7.8492   14.4425 C.3       4 GLC5        0.0000 
     63 CA         13.2460   -9.3730   13.1240 C.3       8 GLP5        0.0000 
     64 CA          9.8758   -6.3102   13.9537 C.3       4 GLC5        0.0000 
     65 CA          9.7520   -6.2670   16.1600 C.3      12 GLL5        0.0000 
     66 CA         15.9600   -6.9665   17.0894 C.3       4 GLC5        0.0000 
     67 CA         14.7490   -5.5930   16.4430 C.3      12 GLL5        0.0000 
     68 CA          7.0025   -2.0620   13.5255 C.3       4 GLC5        0.0000 
     69 CA          8.8770   -3.1350   13.4440 C.3      12 GLL5        0.0000 
     70 CA          5.0890   -1.5380   13.0770 C.3       8 GLP5        0.0000 
     71 CA          9.4387   -4.2133   11.6538 C.3       4 GLC5        0.0000 
     72 CA          9.3460   -5.2870   10.2520 C.3       8 GLP5        0.0000 
     73 CA          8.5561   -2.1606   12.1319 C.3       4 GLC5        0.0000 
     74 CA          7.8690   -1.7330   10.4840 C.3       8 GLP5        0.0000 
     75 CA          9.0750   -8.7160   18.7108 C.3       4 GLC5        0.0000 
     76 CA          9.6600   -6.9930   17.5000 C.3      12 GLL5        0.0000 
     77 CA          7.8560  -10.2050   19.5960 C.3       8 GLP5        0.0000 
     78 CA         17.9755   -7.8512   20.7237 C.3       4 GLC5        0.0000 
     79 CA         19.5690   -6.5760   20.7210 C.3      12 GLL5        0.0000 
     80 CA         16.2060   -8.4630   21.0700 C.3       8 GLP5        0.0000 
     81 CA         17.7767   -5.5185   21.5860 C.3       4 GLC5        0.0000 
     82 CA         16.1040   -5.1040   22.8550 C.3       8 GLP5        0.0000 
     83 CA         14.6110   -1.5633   22.7792 C.3       4 GLC5        0.0000 
     84 CA         12.8470   -0.9920   21.9400 C.3      12 GLL5        0.0000 
     85 CA         16.0380   -2.6150   23.2530 C.3       8 GLP5        0.0000 
     86 CA         11.6798   -2.9872   23.7680 C.3       4 GLC5        0.0000 
     87 CA         11.6730   -1.6540   22.4870 C.3      12 GLL5        0.0000 
     88 CA         11.7380   -4.7530   24.2010 C.3       8 GLP5        0.0000 
@<TRIPOS>BOND
@<TRIPOS>SUBSTRUCTURE
     1 ALC1        4 GROUP        1 X    ALC  0     ROOT ALC X 1
     2 SEC2       25 GROUP        1 X    SEC  0     **** SEC X 2
     3 ASC3       35 GROUP        1 X    ASC  0     **** ASC X 3
     4 GLC5        1 GROUP        1 X    GLC  0     **** GLC X 6
     5 ALP1        6 GROUP        1 Y    ALP  0     ROOT ALP Y 8
     6 SEP2       27 GROUP        1 Y    SEP  0     **** SEP Y 9
     7 ASP3       37 GROUP        1 Y    ASP  0     **** ASP Y 10
     8 GLP5        3 GROUP        1 Y    GLP  0     **** GLP Y 13
     9 ALL1        5 GROUP        1 Z    ALL  0     ROOT ALL Z 15
    10 SEL2       26 GROUP        1 Z    SEL  0     **** SEL Z 16
    11 ASL3       36 GROUP        1 Z    ASL  0     **** ASL Z 17
    12 GLL5        2 GROUP        1 Z    GLL  0     **** GLL Z 20
@<TRIPOS>SET

