#    Name: 2hm1_LIQ_1_ligand
#    Modification time : Tue Mar 25 16:47:53 2014

@<TRIPOS>MOLECULE
2hm1_LIQ_1_ligand
   86    88     1     0     0
SMALL
NO_CHARGES


@<TRIPOS>ATOM
      1 C7          8.9890   -1.3060   16.7700 C.3       1 LIQ801      0.0000 
      2 C10        12.9980   -2.6930   18.4070 C.3       1 LIQ801      0.0000 
      3 N12        14.0650   -4.3850   16.9370 N.am      1 LIQ801      0.0000 
      4 C13        14.7490   -5.5930   16.4430 C.3       1 LIQ801      0.0000 
      5 C15        12.3400   -6.4720   16.1240 C.ar      1 LIQ801      0.0000 
      6 C17         9.7520   -6.2670   16.1600 C.ar      1 LIQ801      0.0000 
      7 C20        12.2540   -7.2140   17.4890 C.ar      1 LIQ801      0.0000 
      8 C21        16.1010   -5.2850   15.7960 C.3       1 LIQ801      0.0000 
      9 C22        17.0230   -4.7990   16.8000 C.3       1 LIQ801      0.0000 
     10 C24        19.2000   -4.0780   17.5270 C.3       1 LIQ801      0.0000 
     11 C26        19.8080   -6.7000   17.7130 C.ar      1 LIQ801      0.0000 
     12 C28        20.3670   -9.1630   17.9000 C.3       1 LIQ801      0.0000 
     13 C1          8.8770   -3.1350   13.4440 C.3       1 LIQ801      0.0000 
     14 C1A        10.1860   -3.1440   12.6670 C.3       1 LIQ801      0.0000 
     15 C2          8.9550   -2.0370   14.5040 C.3       1 LIQ801      0.0000 
     16 C3          8.8600   -2.5460   15.9570 C.3       1 LIQ801      0.0000 
     17 S8         10.5910   -1.3750   17.7340 S.o2      1 LIQ801      0.0000 
     18 O1         11.4130   -0.2940   17.2680 O.2       1 LIQ801      0.0000 
     19 O2         10.2240   -1.1580   19.1310 O.2       1 LIQ801      0.0000 
     20 C9         11.6870   -2.8160   17.5990 C.3       1 LIQ801      0.0000 
     21 C11        13.7550   -3.9860   18.2150 C.2       1 LIQ801      0.0000 
     22 O3         14.0480   -4.6490   19.2360 O.2       1 LIQ801      0.0000 
     23 C14        13.7070   -6.1790   15.3980 C.3       1 LIQ801      0.0000 
     24 C16        11.0730   -6.0150   15.4920 C.ar      1 LIQ801      0.0000 
     25 C18         9.6600   -6.9930   17.5000 C.ar      1 LIQ801      0.0000 
     26 C19        10.9280   -7.4610   18.1510 C.ar      1 LIQ801      0.0000 
     27 O4         16.6300   -6.5100   15.3430 O.3       1 LIQ801      0.0000 
     28 N23        18.4280   -4.4640   16.3520 N.4       1 LIQ801      0.0000 
     29 C25        19.4410   -5.3110   18.3870 C.ar      1 LIQ801      0.0000 
     30 C27        20.0110   -7.8510   18.5870 C.ar      1 LIQ801      0.0000 
     31 C29        19.9210   -7.9030   20.0340 C.ar      1 LIQ801      0.0000 
     32 C30        19.5690   -6.5760   20.7210 C.ar      1 LIQ801      0.0000 
     33 C31        19.3300   -5.2900   19.9130 C.ar      1 LIQ801      0.0000 
     34 C32        19.1470   -9.8580   17.3090 C.3       1 LIQ801      0.0000 
     35 N40        12.6720   -2.3500   19.8250 N.am      1 LIQ801      0.0000 
     36 C41        13.3510   -1.3590   20.5580 C.2       1 LIQ801      0.0000 
     37 O5         14.3490   -0.7900   20.1000 O.2       1 LIQ801      0.0000 
     38 F19        10.8890   -8.0870   19.2920 F         1 LIQ801      0.0000 
     39 F17         8.7010   -5.8520   15.5710 F         1 LIQ801      0.0000 
     40 C43        12.8470   -0.9920   21.9400 C.ar      1 LIQ801      0.0000 
     41 C45        13.5210   -0.0310   22.6710 C.ar      1 LIQ801      0.0000 
     42 N44        13.0710    0.3040   23.9330 N.ar      1 LIQ801      0.0000 
     43 C46        11.9270   -0.2890   24.5550 C.ar      1 LIQ801      0.0000 
     44 C47        11.2130   -1.2890   23.8110 C.ar      1 LIQ801      0.0000 
     45 C48        11.6730   -1.6540   22.4870 C.ar      1 LIQ801      0.0000 
     46 H           8.2919   -1.2044   17.5621 H         1 LIQ801      0.0000 
     47 H           9.1339   -0.4117   16.2195 H         1 LIQ801      0.0000 
     48 H          13.5626   -1.8843   17.9488 H         1 LIQ801      0.0000 
     49 H          13.7662   -3.7121   16.1223 H         1 LIQ801      0.0000 
     50 H          14.8427   -6.3107   17.2178 H         1 LIQ801      0.0000 
     51 H          13.0967   -7.5184   17.9085 H         1 LIQ801      0.0000 
     52 H          15.9658   -4.5936   15.0194 H         1 LIQ801      0.0000 
     53 H          17.1046   -5.5450   17.6431 H         1 LIQ801      0.0000 
     54 H          16.5992   -3.8812   17.3019 H         1 LIQ801      0.0000 
     55 H          18.6630   -3.3411   18.1235 H         1 LIQ801      0.0000 
     56 H          20.1660   -3.6625   17.2416 H         1 LIQ801      0.0000 
     57 H          19.8817   -6.7237   16.7463 H         1 LIQ801      0.0000 
     58 H          20.8444   -9.8312   18.6265 H         1 LIQ801      0.0000 
     59 H          21.0904   -8.9652   17.1002 H         1 LIQ801      0.0000 
     60 H           8.7353   -4.0895   13.9266 H         1 LIQ801      0.0000 
     61 H           8.0583   -2.9274   12.7727 H         1 LIQ801      0.0000 
     62 H           8.1420   -1.3119   14.3328 H         1 LIQ801      0.0000 
     63 H           9.9044   -1.4886   14.3862 H         1 LIQ801      0.0000 
     64 H           7.9099   -2.9994   16.1003 H         1 LIQ801      0.0000 
     65 H           9.6689   -3.2095   16.1417 H         1 LIQ801      0.0000 
     66 H          11.0568   -3.6206   17.9390 H         1 LIQ801      0.0000 
     67 H          11.8519   -2.8845   16.5368 H         1 LIQ801      0.0000 
     68 H          14.0976   -7.0942   15.0002 H         1 LIQ801      0.0000 
     69 H          13.5476   -5.4515   14.6275 H         1 LIQ801      0.0000 
     70 H          11.0950   -5.5363   14.6166 H         1 LIQ801      0.0000 
     71 H           8.7889   -7.1437   17.9147 H         1 LIQ801      0.0000 
     72 H          20.0644   -8.6925   20.5628 H         1 LIQ801      0.0000 
     73 H          19.4938   -6.5466   21.7096 H         1 LIQ801      0.0000 
     74 H          19.1061   -4.4563   20.3794 H         1 LIQ801      0.0000 
     75 H          11.9027   -2.8883   20.2578 H         1 LIQ801      0.0000 
     76 H          14.3509    0.4303   22.2773 H         1 LIQ801      0.0000 
     77 H          11.6350   -0.0207   25.4681 H         1 LIQ801      0.0000 
     78 H          10.3995   -1.7353   24.2016 H         1 LIQ801      0.0000 
     79 H          11.1919   -2.3514   21.9539 H         1 LIQ801      0.0000 
     80 H          10.9699   -3.3209   13.2621 H         1 LIQ801      0.0000 
     81 H          10.1918   -3.8486   11.9574 H         1 LIQ801      0.0000 
     82 H          10.3543   -2.2692   12.2128 H         1 LIQ801      0.0000 
     83 H          19.3911  -10.7157   16.8565 H         1 LIQ801      0.0000 
     84 H          18.4694  -10.0791   18.0104 H         1 LIQ801      0.0000 
     85 H          18.6882   -9.2875   16.6278 H         1 LIQ801      0.0000 
     86 H          15.9704   -6.8432   14.6692 H         1 LIQ801      0.0000 
@<TRIPOS>BOND
     1   16    1 1    
     2   17    1 1    
     3   46    1 1    
     4   47    1 1    
     5   20    2 1    
     6   21    2 1    
     7   35    2 1    
     8   48    2 1    
     9    4    3 1    
    10   21    3 am   
    11   49    3 1    
    12    8    4 1    
    13   23    4 1    
    14   50    4 1    
    15    7    5 ar   
    16   23    5 1    
    17   24    5 ar   
    18   24    6 ar   
    19   25    6 ar   
    20   39    6 1    
    21   26    7 ar   
    22   51    7 1    
    23    9    8 1    
    24   27    8 1    
    25   52    8 1    
    26   28    9 1    
    27   53    9 1    
    28   54    9 1    
    29   28   10 1    
    30   29   10 1    
    31   55   10 1    
    32   56   10 1    
    33   29   11 ar   
    34   30   11 ar   
    35   57   11 1    
    36   30   12 1    
    37   34   12 1    
    38   58   12 1    
    39   59   12 1    
    40   14   13 1    
    41   15   13 1    
    42   60   13 1    
    43   61   13 1    
    44   80   14 1    
    45   81   14 1    
    46   82   14 1    
    47   16   15 1    
    48   62   15 1    
    49   63   15 1    
    50   64   16 1    
    51   65   16 1    
    52   18   17 2    
    53   19   17 2    
    54   20   17 1    
    55   66   20 1    
    56   67   20 1    
    57   22   21 2    
    58   68   23 1    
    59   69   23 1    
    60   70   24 1    
    61   26   25 ar   
    62   71   25 1    
    63   38   26 1    
    64   86   27 1    
    65   33   29 ar   
    66   31   30 ar   
    67   32   31 ar   
    68   72   31 1    
    69   33   32 ar   
    70   73   32 1    
    71   74   33 1    
    72   83   34 1    
    73   84   34 1    
    74   85   34 1    
    75   36   35 am   
    76   75   35 1    
    77   37   36 2    
    78   40   36 1    
    79   41   40 ar   
    80   45   40 ar   
    81   42   41 ar   
    82   76   41 1    
    83   43   42 ar   
    84   44   43 ar   
    85   77   43 1    
    86   45   44 ar   
    87   78   44 1    
    88   79   45 1    
@<TRIPOS>SUBSTRUCTURE
     1 LIQ801      1 GROUP   
@<TRIPOS>SET

