#    Name: 3pfw_NAD_2_INTS_M
#    Modification time : Tue Mar 25 06:31:49 2014

@<TRIPOS>MOLECULE
3pfw_NAD_2_INTS_M
   68     0     9     0     0
SMALL
NO_CHARGES


@<TRIPOS>ATOM
      1 N          10.7135   54.6960   -4.4755 N.am      2 SEC2        0.0000 
      2 N           9.3130   55.1700   -4.4370 N.am      8 SEL2        0.0000 
      3 N          12.1140   54.2220   -4.5140 N.am      5 SEP2        0.0000 
      4 CA          9.7060   60.4365   -6.5475 C.3       3 GLC5        0.0000 
      5 CA          9.1840   58.9540   -4.9740 C.3       9 GLL5        0.0000 
      6 CA         10.2280   61.9190   -8.1210 C.3       6 GLP5        0.0000 
      7 CA         11.9745   60.6405   -4.6405 C.3       3 GLC5        0.0000 
      8 CA         10.2510   59.5850   -4.0970 C.3       9 GLL5        0.0000 
      9 CA         13.6980   61.6960   -5.1840 C.3       6 GLP5        0.0000 
     10 O          11.9050   60.3535   -1.7480 O.2       1 ALC1        0.0000 
     11 O          10.8570   59.2390   -1.7730 O.2       7 ALL1        0.0000 
     12 O          12.9530   61.4680   -1.7230 O.2       4 ALP1        0.0000 
     13 CA          8.8185   62.4075   -0.9165 C.3       3 GLC5        0.0000 
     14 CA          9.3070   60.9020   -2.2810 C.3       9 GLL5        0.0000 
     15 CA          8.3300   63.9130    0.4480 C.3       6 GLP5        0.0000 
     16 O          10.9635   61.9615   -0.5455 O.2       1 ALC1        0.0000 
     17 O           9.7590   61.1350   -0.9330 O.2       7 ALL1        0.0000 
     18 O          12.1680   62.7880   -0.1580 O.2       4 ALP1        0.0000 
     19 O          11.3560   61.3015   -1.3280 O.2       1 ALC1        0.0000 
     20 CA         11.8840   61.7410   -4.2375 C.3       3 GLC5        0.0000 
     21 CA         10.0700   61.7860   -3.2910 C.3       9 GLL5        0.0000 
     22 O           8.9145   68.7280   -4.7705 O.2       1 ALC1        0.0000 
     23 O           8.4920   67.3200   -5.0350 O.2       7 ALL1        0.0000 
     24 O           9.3370   70.1360   -4.5060 O.2       4 ALP1        0.0000 
     25 CA         11.8320   65.8845   -2.7875 C.3       3 GLC5        0.0000 
     26 CA         11.6810   65.7870   -4.3620 C.3       9 GLL5        0.0000 
     27 CA         11.9830   65.9820   -1.2130 C.3       6 GLP5        0.0000 
     28 CA         11.5775   64.8880   -5.8470 C.3       3 GLC5        0.0000 
     29 CA         11.4740   63.9890   -7.3320 C.3       6 GLP5        0.0000 
     30 CA         10.9925   65.0890   -2.6055 C.3       3 GLC5        0.0000 
     31 CA         10.0020   64.1960   -3.9980 C.3       9 GLL5        0.0000 
     32 N          12.0480   54.6715   -7.0785 N.am      2 SEC2        0.0000 
     33 N          10.7200   55.4170   -7.0790 N.am      8 SEL2        0.0000 
     34 N          13.3760   53.9260   -7.0780 N.am      5 SEP2        0.0000 
     35 CA         11.1315   55.5285   -9.6890 C.3       3 GLC5        0.0000 
     36 CA          9.7220   57.2360   -9.3780 C.3       9 GLL5        0.0000 
     37 CA         12.5410   53.8210  -10.0000 C.3       6 GLP5        0.0000 
     38 N          11.3545   57.2675  -11.8885 N.am      2 SEC2        0.0000 
     39 N          10.1430   56.3980  -11.4250 N.am      8 SEL2        0.0000 
     40 N          12.5660   58.1370  -12.3520 N.am      5 SEP2        0.0000 
     41 CA          8.4940   57.9115  -13.3840 C.3       3 GLC5        0.0000 
     42 CA          8.0500   57.4900  -11.2580 C.3       9 GLL5        0.0000 
     43 CA          8.9380   58.3330  -15.5100 C.3       6 GLP5        0.0000 
     44 CA          9.0255   57.0275  -13.9035 C.3       3 GLC5        0.0000 
     45 CA          9.1130   55.7220  -12.2970 C.3       9 GLL5        0.0000 
     46 CA         10.8925   53.6040  -10.7205 C.3       3 GLC5        0.0000 
     47 CA          9.2440   53.3870  -11.4410 C.3       9 GLL5        0.0000 
     48 N           8.9815   48.3725  -10.7015 N.am      2 SEC2        0.0000 
     49 N           9.1940   49.7880  -10.8780 N.am      8 SEL2        0.0000 
     50 N           8.7690   46.9570  -10.5250 N.am      5 SEP2        0.0000 
     51 CA         11.2945   53.8630  -11.8460 C.3       3 GLC5        0.0000 
     52 CA         10.0480   53.9050  -13.6920 C.3       9 GLL5        0.0000 
     53 CA         11.0959   57.9061   -3.6059 C.3       3 GLC5        0.0000 
     54 CA         12.4470   56.4180   -3.6230 C.3       6 GLP5        0.0000 
     55 CA          9.9815   66.2353   -2.6452 C.3       3 GLC5        0.0000 
     56 CA          9.0250   65.1400   -4.3380 C.3       9 GLL5        0.0000 
     57 CA         10.7400   66.6870   -0.7710 C.3       6 GLP5        0.0000 
     58 CA         10.5433   64.4894   -5.7954 C.3       3 GLC5        0.0000 
     59 CA          8.2044   59.1474  -10.6340 C.3       3 GLC5        0.0000 
     60 CA          7.5700   60.8570  -10.5820 C.3       6 GLP5        0.0000 
     61 CA         10.2245   50.6022  -14.4935 C.3       3 GLC5        0.0000 
     62 CA         10.1930   51.6940  -12.8600 C.3       9 GLL5        0.0000 
     63 CA         10.1480   49.0620  -15.6070 C.3       6 GLP5        0.0000 
     64 CA         12.2065   51.1753  -13.9225 C.3       3 GLC5        0.0000 
     65 CA         14.1120   50.2080  -14.4650 C.3       6 GLP5        0.0000 
     66 CA         11.5424   52.2734  -11.6578 C.3       3 GLC5        0.0000 
     67 CA         10.4090   52.5910  -13.9000 C.3       9 GLL5        0.0000 
     68 CA         12.9270   52.3120  -10.2390 C.3       6 GLP5        0.0000 
@<TRIPOS>BOND
@<TRIPOS>SUBSTRUCTURE
     1 ALC1       10 GROUP        1 X    ALC  0     ROOT ALC X 1
     2 SEC2        1 GROUP        1 X    SEC  0     **** SEC X 2
     3 GLC5        4 GROUP        1 X    GLC  0     **** GLC X 6
     4 ALP1       12 GROUP        1 Y    ALP  0     ROOT ALP Y 8
     5 SEP2        3 GROUP        1 Y    SEP  0     **** SEP Y 9
     6 GLP5        6 GROUP        1 Y    GLP  0     **** GLP Y 13
     7 ALL1       11 GROUP        1 Z    ALL  0     ROOT ALL Z 15
     8 SEL2        2 GROUP        1 Z    SEL  0     **** SEL Z 16
     9 GLL5        5 GROUP        1 Z    GLL  0     **** GLL Z 20
@<TRIPOS>SET

