#    Name: 3pfw_NAD_2_ligand
#    Modification time : Tue Mar 25 06:31:49 2014

@<TRIPOS>MOLECULE
3pfw_NAD_2_ligand
   70    74     1     0     0
SMALL
NO_CHARGES


@<TRIPOS>ATOM
      1 PA          8.5870   56.3290   -5.0280 P.3       1 NAD1        0.0000 
      2 O1A         7.2560   56.7170   -4.4910 O.co2     1 NAD1        0.0000 
      3 O2A         9.3130   55.1700   -4.4370 O.co2     1 NAD1        0.0000 
      4 O5B         9.5570   57.6190   -5.3210 O.3       1 NAD1        0.0000 
      5 C5B         9.1840   58.9540   -4.9740 C.3       1 NAD1        0.0000 
      6 C4B        10.2510   59.5850   -4.0970 C.3       1 NAD1        0.0000 
      7 O4B        10.3700   60.9740   -4.4890 O.3       1 NAD1        0.0000 
      8 C3B         9.7720   59.5190   -2.6420 C.3       1 NAD1        0.0000 
      9 O3B        10.8570   59.2390   -1.7730 O.3       1 NAD1        0.0000 
     10 C2B         9.3070   60.9020   -2.2810 C.3       1 NAD1        0.0000 
     11 O2B         9.7590   61.1350   -0.9330 O.3       1 NAD1        0.0000 
     12 C1B        10.0700   61.7860   -3.2910 C.3       1 NAD1        0.0000 
     13 N9A         9.3720   63.0710   -3.7040 N.pl3     1 NAD1        0.0000 
     14 C8A         8.0610   63.2960   -3.8640 C.2       1 NAD1        0.0000 
     15 N7A         7.8650   64.5580   -4.2630 N.2       1 NAD1        0.0000 
     16 C5A         9.0250   65.1400   -4.3380 C.ar      1 NAD1        0.0000 
     17 C6A         9.4210   66.4270   -4.7010 C.ar      1 NAD1        0.0000 
     18 N6A         8.4920   67.3200   -5.0350 N.pl3     1 NAD1        0.0000 
     19 N1A        10.7620   66.7170   -4.6990 N.ar      1 NAD1        0.0000 
     20 C2A        11.6810   65.7870   -4.3620 C.ar      1 NAD1        0.0000 
     21 N3A        11.3090   64.5290   -4.0250 N.ar      1 NAD1        0.0000 
     22 C4A        10.0020   64.1960   -3.9980 C.ar      1 NAD1        0.0000 
     23 O3          8.2630   56.0620   -6.6290 O.3       1 NAD1        0.0000 
     24 PN          9.2900   55.2080   -7.5790 P.3       1 NAD1        0.0000 
     25 O1N         8.6980   53.8130   -7.7440 O.co2     1 NAD1        0.0000 
     26 O2N        10.7200   55.4170   -7.0790 O.co2     1 NAD1        0.0000 
     27 O5D         9.0900   55.9690   -9.0340 O.3       1 NAD1        0.0000 
     28 C5D         9.7220   57.2360   -9.3780 C.3       1 NAD1        0.0000 
     29 C4D         9.5330   57.5350  -10.8500 C.3       1 NAD1        0.0000 
     30 O4D        10.1430   56.3980  -11.4250 O.3       1 NAD1        0.0000 
     31 C3D         8.0500   57.4900  -11.2580 C.3       1 NAD1        0.0000 
     32 O3D         7.8370   58.2850  -12.4390 O.3       1 NAD1        0.0000 
     33 C2D         7.7770   56.0570  -11.6490 C.3       1 NAD1        0.0000 
     34 O2D         6.7560   56.0300  -12.6590 O.3       1 NAD1        0.0000 
     35 C1D         9.1130   55.7220  -12.2970 C.3       1 NAD1        0.0000 
     36 N1N         9.4540   54.3070  -12.4700 N.pl3     1 NAD1        0.0000 
     37 C2N         9.2440   53.3870  -11.4410 C.ar      1 NAD1        0.0000 
     38 C3N         9.6200   52.0630  -11.6460 C.ar      1 NAD1        0.0000 
     39 C7N         9.3840   50.9720  -10.5500 C.2       1 NAD1        0.0000 
     40 O7N         9.1940   49.7880  -10.8780 O.2       1 NAD1        0.0000 
     41 N7N         9.3350   51.4060   -9.2700 N.am      1 NAD1        0.0000 
     42 C4N        10.1930   51.6940  -12.8600 C.ar      1 NAD1        0.0000 
     43 C5N        10.4090   52.5910  -13.9000 C.ar      1 NAD1        0.0000 
     44 C6N        10.0480   53.9050  -13.6920 C.ar      1 NAD1        0.0000 
     45 H           8.2344   58.9773   -4.4217 H         1 NAD1        0.0000 
     46 H           9.0626   59.5841   -5.8659 H         1 NAD1        0.0000 
     47 H          11.1524   59.0600   -4.1983 H         1 NAD1        0.0000 
     48 H           8.9781   58.8469   -2.5573 H         1 NAD1        0.0000 
     49 H           8.2952   60.9864   -2.4253 H         1 NAD1        0.0000 
     50 H          11.0342   62.0533   -2.8237 H         1 NAD1        0.0000 
     51 H           7.3547   62.6368   -3.7119 H         1 NAD1        0.0000 
     52 H           7.6521   66.9527   -5.4345 H         1 NAD1        0.0000 
     53 H           8.7178   68.2776   -4.8563 H         1 NAD1        0.0000 
     54 H          12.6977   66.0404   -4.3606 H         1 NAD1        0.0000 
     55 H          10.7968   57.2054   -9.1644 H         1 NAD1        0.0000 
     56 H           9.2873   58.0580   -8.7974 H         1 NAD1        0.0000 
     57 H           9.9806   58.4141  -11.1131 H         1 NAD1        0.0000 
     58 H           7.4508   57.7606  -10.4550 H         1 NAD1        0.0000 
     59 H           7.6262   55.4798  -10.8302 H         1 NAD1        0.0000 
     60 H           9.1489   56.2487  -13.2630 H         1 NAD1        0.0000 
     61 H           8.8253   53.6801  -10.5618 H         1 NAD1        0.0000 
     62 H           9.4457   52.3906   -9.1347 H         1 NAD1        0.0000 
     63 H           9.1924   50.7038   -8.5724 H         1 NAD1        0.0000 
     64 H          10.4747   50.6921  -12.9956 H         1 NAD1        0.0000 
     65 H          10.8166   52.2850  -14.7753 H         1 NAD1        0.0000 
     66 H          10.2048   54.6152  -14.4226 H         1 NAD1        0.0000 
     67 H          11.4750   60.0190   -1.8712 H         1 NAD1        0.0000 
     68 H          10.5817   61.6953   -1.0292 H         1 NAD1        0.0000 
     69 H           7.1751   57.7687  -12.9824 H         1 NAD1        0.0000 
     70 H           7.2126   55.6855  -13.4792 H         1 NAD1        0.0000 
@<TRIPOS>BOND
     1    2    1 ar   
     2    3    1 ar   
     3    4    1 1    
     4   23    1 1    
     5    5    4 1    
     6    6    5 1    
     7   45    5 1    
     8   46    5 1    
     9    7    6 1    
    10    8    6 1    
    11   47    6 1    
    12   12    7 1    
    13    9    8 1    
    14   10    8 1    
    15   48    8 1    
    16   67    9 1    
    17   11   10 1    
    18   12   10 1    
    19   49   10 1    
    20   68   11 1    
    21   13   12 1    
    22   50   12 1    
    23   14   13 1    
    24   22   13 1    
    25   15   14 2    
    26   51   14 1    
    27   16   15 1    
    28   17   16 ar   
    29   22   16 ar   
    30   18   17 1    
    31   19   17 ar   
    32   52   18 1    
    33   53   18 1    
    34   20   19 ar   
    35   21   20 ar   
    36   54   20 1    
    37   22   21 ar   
    38   24   23 1    
    39   25   24 ar   
    40   26   24 ar   
    41   27   24 1    
    42   28   27 1    
    43   29   28 1    
    44   55   28 1    
    45   56   28 1    
    46   30   29 1    
    47   31   29 1    
    48   57   29 1    
    49   35   30 1    
    50   32   31 1    
    51   33   31 1    
    52   58   31 1    
    53   69   32 1    
    54   34   33 1    
    55   35   33 1    
    56   59   33 1    
    57   70   34 1    
    58   36   35 1    
    59   60   35 1    
    60   37   36 ar   
    61   44   36 ar   
    62   38   37 ar   
    63   61   37 1    
    64   39   38 1    
    65   42   38 ar   
    66   40   39 2    
    67   41   39 am   
    68   62   41 1    
    69   63   41 1    
    70   43   42 ar   
    71   64   42 1    
    72   44   43 ar   
    73   65   43 1    
    74   66   44 1    
@<TRIPOS>SUBSTRUCTURE
     1 NAD1        1 GROUP   
@<TRIPOS>SET

