#    Name: 3LPJ_2_CAVITY_N1_ALL.mol2
#    Modification time : Tue Mar 11 11:55:37 2014

@<TRIPOS>MOLECULE
3LPJ_2_CAVITY_N1_ALL.mol2
   79     0     6     0     0
SMALL
NO_CHARGES


@<TRIPOS>ATOM
      1 CA         14.4409   30.2927   52.5324 C.3       5 GLY6        0.0000 
      2 CA         21.0621   33.3092   58.2385 C.3       5 GLY6        0.0000 
      3 CZ         21.2830   34.2494   57.0909 C.ar      4 PHE5        0.0000 
      4 OG         19.3517   30.9467   59.8949 O.2       1 SER1        0.0000 
      5 OG         19.5726   31.8870   58.7472 O.2       1 SER1        0.0000 
      6 N          19.7935   32.8272   57.5995 N.2       2 ALA2        0.0000 
      7 N          20.0145   33.7674   56.4518 N.2       2 ALA2        0.0000 
      8 CZ         20.2354   34.7076   55.3041 C.ar      4 PHE5        0.0000 
      9 CA         17.8622   29.5245   60.4035 C.3       5 GLY6        0.0000 
     10 OG         18.0831   30.4648   59.2558 O.2       1 SER1        0.0000 
     11 OG         18.3040   31.4050   58.1081 O.2       1 SER1        0.0000 
     12 N          18.5250   32.3452   56.9605 N.2       2 ALA2        0.0000 
     13 N          18.7459   33.2854   55.8128 N.2       2 ALA2        0.0000 
     14 N          18.9668   34.2256   54.6651 N.2       2 ALA2        0.0000 
     15 CZ         19.1877   35.1658   53.5174 C.ar      4 PHE5        0.0000 
     16 DU         16.5936   29.0425   59.7645 H         6 CUB7        0.0000 
     17 CA         16.8145   29.9828   58.6168 C.3       5 GLY6        0.0000 
     18 CA         17.0355   30.9230   57.4691 C.3       5 GLY6        0.0000 
     19 N          17.2564   31.8632   56.3214 N.2       2 ALA2        0.0000 
     20 N          17.4773   32.8034   55.1737 N.2       2 ALA2        0.0000 
     21 DU         17.6982   33.7436   54.0260 H         6 CUB7        0.0000 
     22 CZ         17.9191   34.6839   52.8783 C.ar      4 PHE5        0.0000 
     23 CA         15.7669   30.4410   56.8300 C.3       5 GLY6        0.0000 
     24 O          15.9878   31.3812   55.6824 O.2       2 ALA2        0.0000 
     25 O          16.2087   32.3214   54.5347 O.2       2 ALA2        0.0000 
     26 CA         16.4296   33.2616   53.3870 C.3       5 GLY6        0.0000 
     27 CZ         16.6505   34.2019   52.2393 C.ar      4 PHE5        0.0000 
     28 DU         14.4983   29.9590   56.1910 H         6 CUB7        0.0000 
     29 DU         14.7192   30.8992   55.0433 H         6 CUB7        0.0000 
     30 CA         14.9401   31.8394   53.8956 C.3       5 GLY6        0.0000 
     31 CA         13.4506   30.4172   54.4043 C.3       5 GLY6        0.0000 
     32 N          12.1820   29.9352   53.7652 N.2       2 ALA2        0.0000 
     33 CA         19.1800   26.4548   60.1028 C.3       5 GLY6        0.0000 
     34 N          20.5055   32.0961   53.2167 N.2       2 ALA2        0.0000 
     35 O          19.2369   31.6142   52.5777 O.2       2 ALA2        0.0000 
     36 N          17.9683   31.1322   51.9386 N.2       2 ALA2        0.0000 
     37 CA         15.4312   30.1682   50.6605 C.3       5 GLY6        0.0000 
     38 O          20.3420   30.8222   58.0230 O.2       2 ALA2        0.0000 
     39 N          20.5629   31.7624   56.8753 N.2       2 ALA2        0.0000 
     40 CA         20.7838   32.7027   55.7276 C.3       5 GLY6        0.0000 
     41 CZ         21.0047   33.6429   54.5799 C.ar      4 PHE5        0.0000 
     42 OD1        18.4106   27.5196   60.8270 O.3       3 ASP3        0.0000 
     43 CA         18.6316   28.4598   59.6793 C.3       5 GLY6        0.0000 
     44 CA         18.8525   29.4000   58.5317 C.3       5 GLY6        0.0000 
     45 CA         19.0734   30.3402   57.3840 C.3       5 GLY6        0.0000 
     46 N          19.2943   31.2804   56.2363 N.2       2 ALA2        0.0000 
     47 N          19.5152   32.2207   55.0886 N.2       2 ALA2        0.0000 
     48 CZ         19.7361   33.1609   53.9409 C.ar      4 PHE5        0.0000 
     49 O          17.1421   27.0376   60.1880 O.2       2 ALA2        0.0000 
     50 O          18.2466   31.7387   54.4495 O.2       2 ALA2        0.0000 
     51 O          18.4676   32.6789   53.3019 O.2       2 ALA2        0.0000 
     52 CZ         18.6885   33.6191   52.1542 C.ar      4 PHE5        0.0000 
     53 O          16.9781   31.2567   53.8105 O.2       2 ALA2        0.0000 
     54 N          17.1990   32.1969   52.6628 N.2       2 ALA2        0.0000 
     55 O          15.4886   29.8345   54.3191 O.2       2 ALA2        0.0000 
     56 O          15.7095   30.7747   53.1714 O.2       2 ALA2        0.0000 
     57 CA         15.9304   31.7149   52.0238 C.3       5 GLY6        0.0000 
     58 OG         17.5347   32.4697   58.8323 O.2       1 SER1        0.0000 
     59 CA         16.0452   31.0475   59.3410 C.3       5 GLY6        0.0000 
     60 N          16.2661   31.9877   58.1933 N.2       2 ALA2        0.0000 
     61 N          16.9289   34.8084   54.7502 N.2       2 ALA2        0.0000 
     62 O          14.7766   30.5655   58.7019 O.2       2 ALA2        0.0000 
     63 O          14.9975   31.5057   57.5542 O.2       2 ALA2        0.0000 
     64 N          15.2185   32.4460   56.4065 N.2       2 ALA2        0.0000 
     65 N          15.4394   33.3862   55.2588 N.2       2 ALA2        0.0000 
     66 CA         15.6603   34.3264   54.1112 C.3       5 GLY6        0.0000 
     67 OG         13.7289   31.0237   56.9152 O.2       1 SER1        0.0000 
     68 OG         13.9499   31.9640   55.7675 O.2       1 SER1        0.0000 
     69 CA         14.1708   32.9042   54.6198 C.3       5 GLY6        0.0000 
     70 OG         12.4604   30.5418   56.2761 O.2       1 SER1        0.0000 
     71 N          12.6813   31.4820   55.1284 N.2       2 ALA2        0.0000 
     72 N          14.4491   33.5107   57.1307 N.2       2 ALA2        0.0000 
     73 N          14.6700   34.4509   55.9830 N.2       2 ALA2        0.0000 
     74 CA         14.8909   35.3911   54.8353 C.3       5 GLY6        0.0000 
     75 OG         13.1805   33.0287   56.4917 O.2       1 SER1        0.0000 
     76 O          13.4014   33.9689   55.3440 O.2       2 ALA2        0.0000 
     77 N          13.6224   34.9091   54.1963 N.2       2 ALA2        0.0000 
     78 N          13.9007   35.5157   56.7072 N.2       2 ALA2        0.0000 
     79 O          12.6321   35.0337   56.0681 O.2       2 ALA2        0.0000 
@<TRIPOS>BOND
@<TRIPOS>SUBSTRUCTURE
     1 SER1        4 GROUP   
     2 ALA2        6 GROUP   
     3 ASP3       42 GROUP   
     4 PHE5        3 GROUP   
     5 GLY6        1 GROUP   
     6 CUB7       16 GROUP   
@<TRIPOS>SET

