#    Name: 3lpj_Z75_2_INTS_M
#    Modification time : Mon Mar 24 22:00:17 2014

@<TRIPOS>MOLECULE
3lpj_Z75_2_INTS_M
  110     0     9     0     0
SMALL
NO_CHARGES


@<TRIPOS>ATOM
      1 CA         16.2085   30.9090   60.4990 C.3       3 GLC5        0.0000 
      2 CA         16.3480   29.4960   58.8910 C.3       9 GLL5        0.0000 
      3 CA         16.0690   32.3220   62.1070 C.3       6 GLP5        0.0000 
      4 CA         14.8245   33.5770   52.6320 C.3       3 GLC5        0.0000 
      5 CA         16.1840   34.3470   53.5480 C.3       9 GLL5        0.0000 
      6 CA         13.4650   32.8070   51.7160 C.3       6 GLP5        0.0000 
      7 CA         15.8280   35.2215   52.1355 C.3       3 GLC5        0.0000 
      8 CA         15.4720   36.0960   50.7230 C.3       6 GLP5        0.0000 
      9 N          13.7590   32.3820   59.4710 N.am      2 SEC2        0.0000 
     10 N          14.0370   31.3940   58.5730 N.am      8 SEL2        0.0000 
     11 N          13.4810   33.3700   60.3690 N.am      5 SEP2        0.0000 
     12 N          12.6925   32.0650   58.5265 N.am      2 SEC2        0.0000 
     13 N          11.3480   32.7360   58.4800 N.am      5 SEP2        0.0000 
     14 CA         21.9995   32.4585   53.2405 C.3       3 GLC5        0.0000 
     15 CA         20.0530   31.7570   52.8850 C.3       9 GLL5        0.0000 
     16 CA         23.9460   33.1600   53.5960 C.3       6 GLP5        0.0000 
     17 CA         20.9155   30.1750   52.7530 C.3       3 GLC5        0.0000 
     18 CA         21.7780   28.5930   52.6210 C.3       6 GLP5        0.0000 
     19 CA         20.5905   32.7270   51.6900 C.3       3 GLC5        0.0000 
     20 CA         21.1280   33.6970   50.4950 C.3       6 GLP5        0.0000 
     21 O          18.3125   34.1310   57.9975 O.2       1 ALC1        0.0000 
     22 O          19.5570   33.2990   57.8910 O.2       7 ALL1        0.0000 
     23 O          17.0680   34.9630   58.1040 O.2       4 ALP1        0.0000 
     24 N          22.1950   30.8700   58.1040 N.am      2 SEC2        0.0000 
     25 N          20.9300   31.4850   58.0090 N.am      8 SEL2        0.0000 
     26 N          23.4600   30.2550   58.1990 N.am      5 SEP2        0.0000 
     27 N          21.3195   29.9900   57.6125 N.am      2 SEC2        0.0000 
     28 N          21.7090   28.4950   57.2160 N.am      5 SEP2        0.0000 
     29 O          20.9655   37.3805   58.4810 O.2       1 ALC1        0.0000 
     30 O          22.0490   36.0690   58.3150 O.2       7 ALL1        0.0000 
     31 O          19.8820   38.6920   58.6470 O.2       4 ALP1        0.0000 
     32 O          21.6925   37.1625   57.6955 O.2       1 ALC1        0.0000 
     33 O          21.3360   38.2560   57.0760 O.2       4 ALP1        0.0000 
     34 O          23.4885   31.7340   60.7535 O.2       1 ALC1        0.0000 
     35 O          23.9590   32.9880   60.4020 O.2       7 ALL1        0.0000 
     36 O          23.0180   30.4800   61.1050 O.2       4 ALP1        0.0000 
     37 CA         12.2370   32.1345   57.9520 C.3       3 GLC5        0.0000 
     38 CA         13.2320   31.8620   56.0350 C.3       9 GLL5        0.0000 
     39 CA         11.2420   32.4070   59.8690 C.3       6 GLP5        0.0000 
     40 CA         11.6805   34.0480   54.4670 C.3       3 GLC5        0.0000 
     41 CA         13.2660   33.3410   55.5300 C.3       9 GLL5        0.0000 
     42 CA         10.0950   34.7550   53.4040 C.3       6 GLP5        0.0000 
     43 CA         12.8860   36.0765   55.6810 C.3       3 GLC5        0.0000 
     44 CA         13.9820   34.3420   56.4730 C.3       9 GLL5        0.0000 
     45 CA         11.7900   37.8110   54.8890 C.3       6 GLP5        0.0000 
     46 CA         14.8770   34.2665   58.4595 C.3       3 GLC5        0.0000 
     47 CA         15.7720   34.1910   60.4460 C.3       6 GLP5        0.0000 
     48 CA         19.7625   28.1085   60.5905 C.3       3 GLC5        0.0000 
     49 CA         17.7870   27.7880   60.1000 C.3       9 GLL5        0.0000 
     50 CA         21.7380   28.4290   61.0810 C.3       6 GLP5        0.0000 
     51 CA         18.7095   27.5340   58.3250 C.3       3 GLC5        0.0000 
     52 CA         19.6320   27.2800   56.5500 C.3       6 GLP5        0.0000 
     53 CA         17.3950   28.6020   62.0615 C.3       3 GLC5        0.0000 
     54 CA         17.0030   29.4160   64.0230 C.3       6 GLP5        0.0000 
     55 CA         21.5350   36.8950   60.0365 C.3       3 GLC5        0.0000 
     56 CA         21.1060   35.0970   58.7650 C.3       9 GLL5        0.0000 
     57 CA         21.9640   38.6930   61.3080 C.3       6 GLP5        0.0000 
     58 CA         18.5570   36.2475   57.5610 C.3       3 GLC5        0.0000 
     59 CA         20.0470   35.1970   56.4350 C.3       9 GLL5        0.0000 
     60 CA         17.0670   37.2980   58.6870 C.3       6 GLP5        0.0000 
     61 CA         21.7400   32.6375   55.1470 C.3       3 GLC5        0.0000 
     62 CA         20.0670   33.4000   54.5870 C.3       9 GLL5        0.0000 
     63 CA         23.4130   31.8750   55.7070 C.3       6 GLP5        0.0000 
     64 CA         23.4635   34.0350   57.4890 C.3       3 GLC5        0.0000 
     65 CA         23.1790   33.6890   59.3470 C.3       9 GLL5        0.0000 
     66 CA         23.7480   34.3810   55.6310 C.3       6 GLP5        0.0000 
     67 CA         22.7060   31.6555   59.8040 C.3       3 GLC5        0.0000 
     68 CA         22.2330   29.6220   60.2610 C.3       6 GLP5        0.0000 
     69 CA         22.3680   35.1810   63.7385 C.3       3 GLC5        0.0000 
     70 CA         22.6610   34.3110   62.1370 C.3       9 GLL5        0.0000 
     71 CA         22.0750   36.0510   65.3400 C.3       6 GLP5        0.0000 
     72 CA         24.2270   30.8670   59.4845 C.3       3 GLC5        0.0000 
     73 CA         25.3410   32.5880   59.8810 C.3       9 GLL5        0.0000 
     74 CA         23.1130   29.1460   59.0880 C.3       6 GLP5        0.0000 
     75 CA         27.4345   35.1395   55.9510 C.3       3 GLC5        0.0000 
     76 CA         27.2070   35.4760   58.0750 C.3       9 GLL5        0.0000 
     77 CA         27.6620   34.8030   53.8270 C.3       6 GLP5        0.0000 
     78 CA         17.4440   29.1913   57.2755 C.3       3 GLC5        0.0000 
     79 CA         16.2000   30.7030   58.1830 C.3       9 GLL5        0.0000 
     80 CA         18.6140   28.2830   56.0140 C.3       6 GLP5        0.0000 
     81 CA         17.0315   36.1003   53.7058 C.3       3 GLC5        0.0000 
     82 CA         17.4300   34.0380   53.8790 C.3       9 GLL5        0.0000 
     83 CA         17.2560   38.0080   53.6980 C.3       6 GLP5        0.0000 
     84 CA         16.2705   32.6505   59.2505 C.3       3 GLC5        0.0000 
     85 CA         17.3380   31.5170   57.9270 C.3       9 GLL5        0.0000 
     86 CA         18.2967   29.8032   57.0805 C.3       3 GLC5        0.0000 
     87 CA         20.4635   30.0700   59.4915 C.3       3 GLC5        0.0000 
     88 CA         18.6210   31.1300   58.3670 C.3       9 GLL5        0.0000 
     89 CA         18.4075   28.8890   57.6123 C.3       3 GLC5        0.0000 
     90 CA         18.7670   29.9060   59.0770 C.3       9 GLL5        0.0000 
     91 CA         13.3570   32.7043   53.7493 C.3       3 GLC5        0.0000 
     92 CA         14.3678   31.6760   53.2285 C.3       3 GLC5        0.0000 
     93 CA         15.5180   31.1240   55.1940 C.3       9 GLL5        0.0000 
     94 CA         16.7884   28.9492   55.4612 C.3       3 GLC5        0.0000 
     95 CA         22.1006   34.6626   56.4651 C.3       3 GLC5        0.0000 
     96 CA         20.6130   34.2860   57.5620 C.3       9 GLL5        0.0000 
     97 CA         20.3920   36.4357   54.7777 C.3       3 GLC5        0.0000 
     98 CA         21.0710   38.0560   53.6870 C.3       6 GLP5        0.0000 
     99 CA         17.9840   36.2990   54.4078 C.3       3 GLC5        0.0000 
    100 CA         19.3790   34.4340   55.3020 C.3       9 GLL5        0.0000 
    101 CA         24.7963   34.9562   62.8443 C.3       3 GLC5        0.0000 
    102 CA         26.2440   35.8730   63.7810 C.3       6 GLP5        0.0000 
    103 CA         29.1367   36.9880   60.6008 C.3       3 GLC5        0.0000 
    104 CA         28.1070   35.2620   60.3460 C.3       9 GLL5        0.0000 
    105 CA         30.1690   38.3920   61.4880 C.3       6 GLP5        0.0000 
    106 CA         25.6412   36.5980   57.8550 C.3       3 GLC5        0.0000 
    107 CA         24.5180   38.2540   57.5090 C.3       6 GLP5        0.0000 
    108 CA         25.3725   32.5147   57.6658 C.3       3 GLC5        0.0000 
    109 CA         26.3220   34.4080   58.3270 C.3       9 GLL5        0.0000 
    110 CA         24.6710   31.2410   56.2990 C.3       6 GLP5        0.0000 
@<TRIPOS>BOND
@<TRIPOS>SUBSTRUCTURE
     1 ALC1       21 GROUP        1 X    ALC  0     ROOT ALC X 1
     2 SEC2        9 GROUP        1 X    SEC  0     **** SEC X 2
     3 GLC5        1 GROUP        1 X    GLC  0     **** GLC X 6
     4 ALP1       23 GROUP        1 Y    ALP  0     ROOT ALP Y 8
     5 SEP2       11 GROUP        1 Y    SEP  0     **** SEP Y 9
     6 GLP5        3 GROUP        1 Y    GLP  0     **** GLP Y 13
     7 ALL1       22 GROUP        1 Z    ALL  0     ROOT ALL Z 15
     8 SEL2       10 GROUP        1 Z    SEL  0     **** SEL Z 16
     9 GLL5        2 GROUP        1 Z    GLL  0     **** GLL Z 20
@<TRIPOS>SET

