#    Name: 3lpj_Z75_2_ligand
#    Modification time : Mon Mar 24 22:00:17 2014

@<TRIPOS>MOLECULE
3lpj_Z75_2_ligand
   88    91     1     0     0
SMALL
NO_CHARGES


@<TRIPOS>ATOM
      1 C1         16.3480   29.4960   58.8910 C.ar      1 Z75456      0.0000 
      2 F1         16.1840   34.3470   53.5480 F         1 Z75456      0.0000 
      3 N1         14.5940   31.3670   56.3540 N.am      1 Z75456      0.0000 
      4 O1         14.0370   31.3940   58.5730 O.2       1 Z75456      0.0000 
      5 C2         16.2000   30.7030   58.1830 C.ar      1 Z75456      0.0000 
      6 F2         20.0530   31.7570   52.8850 F         1 Z75456      0.0000 
      7 N2         19.5570   33.2990   57.8910 N.am      1 Z75456      0.0000 
      8 O2         20.9300   31.4850   58.0090 O.2       1 Z75456      0.0000 
      9 C3         17.3380   31.5170   57.9270 C.ar      1 Z75456      0.0000 
     10 N3         22.0230   35.0850   61.0450 N.3       1 Z75456      0.0000 
     11 O3         22.0490   36.0690   58.3150 O.3       1 Z75456      0.0000 
     12 C4         18.6210   31.1300   58.3670 C.ar      1 Z75456      0.0000 
     13 N4         23.9590   32.9880   60.4020 N.4       1 Z75456      0.0000 
     14 C5         18.7670   29.9060   59.0770 C.ar      1 Z75456      0.0000 
     15 C6         17.6350   29.0840   59.3440 C.ar      1 Z75456      0.0000 
     16 C7         14.8820   31.1660   57.7160 C.2       1 Z75456      0.0000 
     17 C8         13.2320   31.8620   56.0350 C.3       1 Z75456      0.0000 
     18 C9         15.5180   31.1240   55.1940 C.3       1 Z75456      0.0000 
     19 C10        15.0230   29.9660   54.2880 C.3       1 Z75456      0.0000 
     20 C11        14.6550   28.6860   55.0760 C.3       1 Z75456      0.0000 
     21 C12        13.2660   33.3410   55.5300 C.3       1 Z75456      0.0000 
     22 C13        13.9820   34.3420   56.4730 C.3       1 Z75456      0.0000 
     23 C14        17.7870   27.7880   60.1000 C.3       1 Z75456      0.0000 
     24 C15        19.7980   31.9610   58.0830 C.2       1 Z75456      0.0000 
     25 C16        20.6130   34.2860   57.5620 C.3       1 Z75456      0.0000 
     26 C17        21.1060   35.0970   58.7650 C.3       1 Z75456      0.0000 
     27 C18        20.0470   35.1970   56.4350 C.3       1 Z75456      0.0000 
     28 C19        19.3790   34.4340   55.3020 C.ar      1 Z75456      0.0000 
     29 C20        18.0450   34.7460   54.9330 C.ar      1 Z75456      0.0000 
     30 C21        17.4300   34.0380   53.8790 C.ar      1 Z75456      0.0000 
     31 C22        18.0870   33.0190   53.1670 C.ar      1 Z75456      0.0000 
     32 C23        19.4060   32.7170   53.5410 C.ar      1 Z75456      0.0000 
     33 C24        20.0670   33.4000   54.5870 C.ar      1 Z75456      0.0000 
     34 C25        21.8120   34.2460   59.8380 C.3       1 Z75456      0.0000 
     35 C26        23.1790   33.6890   59.3470 C.3       1 Z75456      0.0000 
     36 C28        24.0360   33.7680   61.6780 C.3       1 Z75456      0.0000 
     37 C29        22.6610   34.3110   62.1370 C.3       1 Z75456      0.0000 
     38 C30        25.3410   32.5880   59.8810 C.3       1 Z75456      0.0000 
     39 C31        26.3110   33.7500   59.5950 C.ar      1 Z75456      0.0000 
     40 C32        27.2200   34.1950   60.5960 C.ar      1 Z75456      0.0000 
     41 C33        28.1070   35.2620   60.3460 C.ar      1 Z75456      0.0000 
     42 C34        28.1020   35.9060   59.0810 C.ar      1 Z75456      0.0000 
     43 C35        27.2070   35.4760   58.0750 C.ar      1 Z75456      0.0000 
     44 C36        26.3220   34.4080   58.3270 C.ar      1 Z75456      0.0000 
     45 H          15.5360   28.9080   59.0848 H         1 Z75456      0.0000 
     46 H          18.5911   33.6865   57.9715 H         1 Z75456      0.0000 
     47 H          17.2184   32.3982   57.4140 H         1 Z75456      0.0000 
     48 H          23.4263   32.0301   60.6275 H         1 Z75456      0.0000 
     49 H          19.6914   29.6135   59.3984 H         1 Z75456      0.0000 
     50 H          12.5898   31.8282   56.9184 H         1 Z75456      0.0000 
     51 H          12.7718   31.2549   55.2516 H         1 Z75456      0.0000 
     52 H          16.5185   30.8696   55.5569 H         1 Z75456      0.0000 
     53 H          15.5976   32.0269   54.5809 H         1 Z75456      0.0000 
     54 H          15.8088   29.7240   53.5650 H         1 Z75456      0.0000 
     55 H          14.1432   30.3055   53.7317 H         1 Z75456      0.0000 
     56 H          12.2290   33.6781   55.3751 H         1 Z75456      0.0000 
     57 H          13.7633   33.3602   54.5476 H         1 Z75456      0.0000 
     58 H          21.4666   33.7554   57.1232 H         1 Z75456      0.0000 
     59 H          20.2595   35.5827   59.2278 H         1 Z75456      0.0000 
     60 H          20.8747   35.8008   56.0342 H         1 Z75456      0.0000 
     61 H          19.3240   35.8922   56.8869 H         1 Z75456      0.0000 
     62 H          17.5381   35.4763   55.4276 H         1 Z75456      0.0000 
     63 H          17.6294   32.5267   52.4197 H         1 Z75456      0.0000 
     64 H          21.0219   33.1664   54.8367 H         1 Z75456      0.0000 
     65 H          21.1760   33.4119   60.0870 H         1 Z75456      0.0000 
     66 H          22.9781   33.0072   58.5023 H         1 Z75456      0.0000 
     67 H          23.7587   34.5363   58.9412 H         1 Z75456      0.0000 
     68 H          24.7170   34.6223   61.5574 H         1 Z75456      0.0000 
     69 H          24.4391   33.1366   62.4824 H         1 Z75456      0.0000 
     70 H          22.0398   33.4624   62.4219 H         1 Z75456      0.0000 
     71 H          22.8203   34.9394   63.0128 H         1 Z75456      0.0000 
     72 H          25.2160   31.9982   58.9503 H         1 Z75456      0.0000 
     73 H          25.8169   31.9063   60.6148 H         1 Z75456      0.0000 
     74 H          27.2252   33.7290   61.5101 H         1 Z75456      0.0000 
     75 H          28.7533   35.5741   61.0706 H         1 Z75456      0.0000 
     76 H          28.7436   36.6768   58.9010 H         1 Z75456      0.0000 
     77 H          27.2027   35.9406   57.1651 H         1 Z75456      0.0000 
     78 H          25.6754   34.0937   57.5969 H         1 Z75456      0.0000 
     79 H          15.4360   28.3270   55.5870 H         1 Z75456      0.0000 
     80 H          13.9243   28.8544   55.7376 H         1 Z75456      0.0000 
     81 H          14.3397   27.9550   54.4708 H         1 Z75456      0.0000 
     82 H          14.9401   34.0951   56.6183 H         1 Z75456      0.0000 
     83 H          13.9715   35.2717   56.1047 H         1 Z75456      0.0000 
     84 H          13.5489   34.3786   57.3736 H         1 Z75456      0.0000 
     85 H          18.7379   27.6183   60.3588 H         1 Z75456      0.0000 
     86 H          17.2488   27.7843   60.9428 H         1 Z75456      0.0000 
     87 H          17.4866   27.0038   59.5570 H         1 Z75456      0.0000 
     88 H          21.4995   36.7753   57.8686 H         1 Z75456      0.0000 
@<TRIPOS>BOND
     1    5    1 ar   
     2   15    1 ar   
     3   45    1 1    
     4   30    2 1    
     5   16    3 am   
     6   17    3 1    
     7   18    3 1    
     8   16    4 2    
     9    9    5 ar   
    10   16    5 1    
    11   32    6 1    
    12   24    7 am   
    13   25    7 1    
    14   46    7 1    
    15   24    8 2    
    16   12    9 ar   
    17   47    9 1    
    18   34   10 1    
    19   37   10 1    
    20   26   11 1    
    21   88   11 1    
    22   14   12 ar   
    23   24   12 1    
    24   35   13 1    
    25   36   13 1    
    26   38   13 1    
    27   48   13 1    
    28   15   14 ar   
    29   49   14 1    
    30   23   15 1    
    31   21   17 1    
    32   50   17 1    
    33   51   17 1    
    34   19   18 1    
    35   52   18 1    
    36   53   18 1    
    37   20   19 1    
    38   54   19 1    
    39   55   19 1    
    40   79   20 1    
    41   80   20 1    
    42   81   20 1    
    43   22   21 1    
    44   56   21 1    
    45   57   21 1    
    46   82   22 1    
    47   83   22 1    
    48   84   22 1    
    49   85   23 1    
    50   86   23 1    
    51   87   23 1    
    52   26   25 1    
    53   27   25 1    
    54   58   25 1    
    55   34   26 1    
    56   59   26 1    
    57   28   27 1    
    58   60   27 1    
    59   61   27 1    
    60   29   28 ar   
    61   33   28 ar   
    62   30   29 ar   
    63   62   29 1    
    64   31   30 ar   
    65   32   31 ar   
    66   63   31 1    
    67   33   32 ar   
    68   64   33 1    
    69   35   34 1    
    70   65   34 1    
    71   66   35 1    
    72   67   35 1    
    73   37   36 1    
    74   68   36 1    
    75   69   36 1    
    76   70   37 1    
    77   71   37 1    
    78   39   38 1    
    79   72   38 1    
    80   73   38 1    
    81   40   39 ar   
    82   44   39 ar   
    83   41   40 ar   
    84   74   40 1    
    85   42   41 ar   
    86   75   41 1    
    87   43   42 ar   
    88   76   42 1    
    89   44   43 ar   
    90   77   43 1    
    91   78   44 1    
@<TRIPOS>SUBSTRUCTURE
     1 Z75456      1 GROUP   
@<TRIPOS>SET

