#    Name: 1tu8_GTX_1_INTS_M
#    Modification time : Tue Mar 25 05:40:05 2014

@<TRIPOS>MOLECULE
1tu8_GTX_1_INTS_M
   73     0    15     0     0
SMALL
NO_CHARGES


@<TRIPOS>ATOM
      1 OD1        11.5005    0.1820   35.1970 O.co2     3 ASC3        0.0000 
      2 OD1        12.7830    0.8680   35.0430 O.co2    13 ASL3        0.0000 
      3 OD1        10.2180   -0.5040   35.3510 O.co2     8 ASP3        0.0000 
      4 OD1        12.1065   -0.2835   34.4520 O.co2     3 ASC3        0.0000 
      5 OD1        11.4300   -1.4350   33.8610 O.co2     8 ASP3        0.0000 
      6 O          13.7990   -0.2060   35.0445 O.2       1 ALC1        0.0000 
      7 O          12.7830    0.8680   35.0430 O.2      11 ALL1        0.0000 
      8 O          14.8150   -1.2800   35.0460 O.2       6 ALP1        0.0000 
      9 O          11.5005    0.1820   35.1970 O.2       1 ALC1        0.0000 
     10 O          10.2180   -0.5040   35.3510 O.2       6 ALP1        0.0000 
     11 O          12.1065   -0.2835   34.4520 O.2       1 ALC1        0.0000 
     12 O          11.4300   -1.4350   33.8610 O.2       6 ALP1        0.0000 
     13 O          12.6870   -0.0605   36.2590 O.2       1 ALC1        0.0000 
     14 O          12.5910   -0.9890   37.4750 O.2       6 ALP1        0.0000 
     15 N          15.9645    2.9745   35.9125 N.am      2 SEC2        0.0000 
     16 N          14.9080    2.3950   35.4420 N.am     12 SEL2        0.0000 
     17 N          17.0210    3.5540   36.3830 N.am      7 SEP2        0.0000 
     18 N          14.5650    2.4685   36.9835 N.am      2 SEC2        0.0000 
     19 N          14.2220    2.5420   38.5250 N.am      7 SEP2        0.0000 
     20 N          17.0060    1.6365   34.1780 N.am      2 SEC2        0.0000 
     21 N          15.8110    1.9560   33.4330 N.am     12 SEL2        0.0000 
     22 N          18.2010    1.3170   34.9230 N.am      7 SEP2        0.0000 
     23 CA         13.1110    1.6965   29.8990 C.3       5 GLC5        0.0000 
     24 CA         13.1430    2.6250   31.7050 C.3      15 GLL5        0.0000 
     25 CA         13.0790    0.7680   28.0930 C.3      10 GLP5        0.0000 
     26 O          14.1270    3.9975   29.7855 O.2       1 ALC1        0.0000 
     27 O          12.7440    4.1210   29.8460 O.2      11 ALL1        0.0000 
     28 O          15.5100    3.8740   29.7250 O.2       6 ALP1        0.0000 
     29 N          14.3480    3.1895   27.2630 N.am      2 SEC2        0.0000 
     30 N          13.1440    3.9380   27.0380 N.am     12 SEL2        0.0000 
     31 N          15.5520    2.4410   27.4880 N.am      7 SEP2        0.0000 
     32 CA         13.4940    6.7375   27.2950 C.3       5 GLC5        0.0000 
     33 CA         12.7660    6.4200   29.0770 C.3      15 GLL5        0.0000 
     34 CA         14.2220    7.0550   25.5130 C.3      10 GLP5        0.0000 
     35 CA         13.4555    6.3200   32.2680 C.3       5 GLC5        0.0000 
     36 CA         12.7770    7.0700   30.7630 C.3      15 GLL5        0.0000 
     37 CA         14.1340    5.5700   33.7730 C.3      10 GLP5        0.0000 
     38 CA         10.2265   11.0065   30.5280 C.3       5 GLC5        0.0000 
     39 CA         11.4220    9.4360   30.1350 C.3      15 GLL5        0.0000 
     40 CA          9.0310   12.5770   30.9210 C.3      10 GLP5        0.0000 
     41 CA         13.3180    8.8370   27.3360 C.3       5 GLC5        0.0000 
     42 CA         11.7210    9.5330   28.6430 C.3      15 GLL5        0.0000 
     43 CA         14.9150    8.1410   26.0290 C.3      10 GLP5        0.0000 
     44 CA         10.1515   11.7120   29.4675 C.3       5 GLC5        0.0000 
     45 CA         11.2720   10.8470   28.0140 C.3      15 GLL5        0.0000 
     46 CA         13.4660   10.0320   25.8690 C.3       5 GLC5        0.0000 
     47 CA         11.6360   10.8670   26.5290 C.3      15 GLL5        0.0000 
     48 CA         15.2960    9.1970   25.2090 C.3      10 GLP5        0.0000 
     49 CA         12.4395    5.8920   24.7875 C.3       5 GLC5        0.0000 
     50 CA         10.9590    4.7770   25.4090 C.3      15 GLL5        0.0000 
     51 CA         13.9200    7.0070   24.1660 C.3      10 GLP5        0.0000 
     52 CA         12.0485    3.7570   24.1195 C.3       5 GLC5        0.0000 
     53 CA         13.1380    2.7370   22.8300 C.3      10 GLP5        0.0000 
     54 NZ          9.8705    1.7720   23.6705 N.4       4 LYC4        0.0000 
     55 NZ          9.8680    3.4620   23.6730 N.4      14 LYL4        0.0000 
     56 NZ          9.8730    0.0820   23.6680 N.4       9 LYP4        0.0000 
     57 N           9.8705    1.7720   23.6705 N.am      2 SEC2        0.0000 
     58 N           9.8680    3.4620   23.6730 N.am     12 SEL2        0.0000 
     59 N           9.8730    0.0820   23.6680 N.am      7 SEP2        0.0000 
     60 NZ          9.6505    1.4895   24.7400 N.4       4 LYC4        0.0000 
     61 NZ          9.4280    2.8970   25.8120 N.4      14 LYL4        0.0000 
     62 N           9.6355    2.5210   27.2355 N.am      2 SEC2        0.0000 
     63 N           9.4280    2.8970   25.8120 N.am     12 SEL2        0.0000 
     64 N           9.8430    2.1450   28.6590 N.am      7 SEP2        0.0000 
     65 CA         13.6124    3.8916   33.1796 C.3       5 GLC5        0.0000 
     66 CA         12.6000    2.3050   33.0980 C.3      15 GLL5        0.0000 
     67 CA         14.6647    7.1035   29.8430 C.3       5 GLC5        0.0000 
     68 CA         16.5580    7.4620   29.7660 C.3      10 GLP5        0.0000 
     69 CA         12.9527   11.0002   29.4465 C.3       5 GLC5        0.0000 
     70 CA         14.3340   12.5160   29.5040 C.3      10 GLP5        0.0000 
     71 CA         12.8940   11.6865   28.3878 C.3       5 GLC5        0.0000 
     72 CA         11.3430   12.7320   27.4313 C.3       5 GLC5        0.0000 
     73 CA         11.2320   14.6070   27.5910 C.3      10 GLP5        0.0000 
@<TRIPOS>BOND
@<TRIPOS>SUBSTRUCTURE
     1 ALC1        6 GROUP        1 X    ALC  0     ROOT ALC X 1
     2 SEC2       15 GROUP        1 X    SEC  0     **** SEC X 2
     3 ASC3        1 GROUP        1 X    ASC  0     **** ASC X 3
     4 LYC4       54 GROUP        1 X    LYC  0     **** LYC X 4
     5 GLC5       23 GROUP        1 X    GLC  0     **** GLC X 6
     6 ALP1        8 GROUP        1 Y    ALP  0     ROOT ALP Y 8
     7 SEP2       17 GROUP        1 Y    SEP  0     **** SEP Y 9
     8 ASP3        3 GROUP        1 Y    ASP  0     **** ASP Y 10
     9 LYP4       56 GROUP        1 Y    LYP  0     **** LYP Y 11
    10 GLP5       25 GROUP        1 Y    GLP  0     **** GLP Y 13
    11 ALL1        7 GROUP        1 Z    ALL  0     ROOT ALL Z 15
    12 SEL2       16 GROUP        1 Z    SEL  0     **** SEL Z 16
    13 ASL3        2 GROUP        1 Z    ASL  0     **** ASL Z 17
    14 LYL4       55 GROUP        1 Z    LYL  0     **** LYL Z 18
    15 GLL5       24 GROUP        1 Z    GLL  0     **** GLL Z 20
@<TRIPOS>SET

