#    Name: 1tu8_GTX_1_ligand
#    Modification time : Tue Mar 25 05:40:05 2014

@<TRIPOS>MOLECULE
1tu8_GTX_1_ligand
   54    53     1     0     0
SMALL
NO_CHARGES


@<TRIPOS>ATOM
      1 N1         12.7830    0.8680   35.0430 N.4       1 GTX2001     0.0000 
      2 CA1        13.4770    1.2980   33.8370 C.3       1 GTX2001     0.0000 
      3 C1         14.7880    1.9050   34.2470 C.2       1 GTX2001     0.0000 
      4 O11        14.9080    2.3950   35.4420 O.co2     1 GTX2001     0.0000 
      5 O12        15.8110    1.9560   33.4330 O.co2     1 GTX2001     0.0000 
      6 CB1        12.6000    2.3050   33.0980 C.3       1 GTX2001     0.0000 
      7 CG1        13.1430    2.6250   31.7050 C.3       1 GTX2001     0.0000 
      8 CD1        12.2660    3.6290   30.9900 C.2       1 GTX2001     0.0000 
      9 OE1        11.0220    3.9850   31.5090 O.2       1 GTX2001     0.0000 
     10 N2         12.7440    4.1210   29.8460 N.am      1 GTX2001     0.0000 
     11 CA2        12.0480    5.0790   29.0030 C.3       1 GTX2001     0.0000 
     12 C2         12.0450    4.6310   27.5720 C.2       1 GTX2001     0.0000 
     13 O2         13.1440    3.9380   27.0380 O.2       1 GTX2001     0.0000 
     14 CB2        12.7660    6.4200   29.0770 C.3       1 GTX2001     0.0000 
     15 SG2        12.7770    7.0700   30.7630 S.3       1 GTX2001     0.0000 
     16 C1S        11.2210    7.9820   30.5780 C.3       1 GTX2001     0.0000 
     17 C2S        11.4220    9.4360   30.1350 C.3       1 GTX2001     0.0000 
     18 C3S        11.7210    9.5330   28.6430 C.3       1 GTX2001     0.0000 
     19 C4S        11.2720   10.8470   28.0140 C.3       1 GTX2001     0.0000 
     20 C5S        11.6360   10.8670   26.5290 C.3       1 GTX2001     0.0000 
     21 C6S        10.7550    9.9310   25.7080 C.3       1 GTX2001     0.0000 
     22 N3         10.9600    4.9030   26.8600 N.am      1 GTX2001     0.0000 
     23 CA3        10.9590    4.7770   25.4090 C.3       1 GTX2001     0.0000 
     24 C3         10.0480    3.6680   24.9510 C.2       1 GTX2001     0.0000 
     25 O31         9.8680    3.4620   23.6730 O.co2     1 GTX2001     0.0000 
     26 O32         9.4280    2.8970   25.8120 O.co2     1 GTX2001     0.0000 
     27 H          13.6574    0.4581   33.1951 H         1 GTX2001     0.0000 
     28 H          12.5438    3.2290   33.6809 H         1 GTX2001     0.0000 
     29 H          11.5884    1.8995   33.0031 H         1 GTX2001     0.0000 
     30 H          13.1925    1.7019   31.1230 H         1 GTX2001     0.0000 
     31 H          14.1545    3.0259   31.8022 H         1 GTX2001     0.0000 
     32 H          13.6962    3.8213   29.4846 H         1 GTX2001     0.0000 
     33 H          11.0382    5.2228   29.3326 H         1 GTX2001     0.0000 
     34 H          12.2768    7.1984   28.5329 H         1 GTX2001     0.0000 
     35 H          13.8073    6.3617   28.8454 H         1 GTX2001     0.0000 
     36 H          10.7827    7.8914   31.5547 H         1 GTX2001     0.0000 
     37 H          10.6891    7.3875   29.8584 H         1 GTX2001     0.0000 
     38 H          12.2513    9.8681   30.6988 H         1 GTX2001     0.0000 
     39 H          10.5174   10.0046   30.3602 H         1 GTX2001     0.0000 
     40 H          11.2241    8.6986   28.1231 H         1 GTX2001     0.0000 
     41 H          12.8047    9.4125   28.4863 H         1 GTX2001     0.0000 
     42 H          11.7650   11.6744   28.5146 H         1 GTX2001     0.0000 
     43 H          10.1967   10.9498   28.1204 H         1 GTX2001     0.0000 
     44 H          12.6830   10.5693   26.4137 H         1 GTX2001     0.0000 
     45 H          11.5292   11.8878   26.1487 H         1 GTX2001     0.0000 
     46 H          10.0685    5.2149   27.2906 H         1 GTX2001     0.0000 
     47 H          11.9762    4.5708   25.0379 H         1 GTX2001     0.0000 
     48 H          10.6292    5.7180   24.9393 H         1 GTX2001     0.0000 
     49 H          11.8962    0.4557   34.8342 H         1 GTX2001     0.0000 
     50 H          13.3100    0.1874   35.5521 H         1 GTX2001     0.0000 
     51 H          12.6118    1.6318   35.6654 H         1 GTX2001     0.0000 
     52 H          10.9992    9.9465   24.7384 H         1 GTX2001     0.0000 
     53 H          10.8337    8.9825   26.0150 H         1 GTX2001     0.0000 
     54 H           9.7886   10.1802   25.7709 H         1 GTX2001     0.0000 
@<TRIPOS>BOND
     1    2    1 1    
     2   49    1 1    
     3   50    1 1    
     4   51    1 1    
     5    3    2 1    
     6    6    2 1    
     7   27    2 1    
     8    4    3 ar   
     9    5    3 ar   
    10    7    6 1    
    11   28    6 1    
    12   29    6 1    
    13    8    7 1    
    14   30    7 1    
    15   31    7 1    
    16    9    8 2    
    17   10    8 am   
    18   11   10 1    
    19   32   10 1    
    20   12   11 1    
    21   14   11 1    
    22   33   11 1    
    23   13   12 2    
    24   22   12 am   
    25   15   14 1    
    26   34   14 1    
    27   35   14 1    
    28   16   15 1    
    29   17   16 1    
    30   36   16 1    
    31   37   16 1    
    32   18   17 1    
    33   38   17 1    
    34   39   17 1    
    35   19   18 1    
    36   40   18 1    
    37   41   18 1    
    38   20   19 1    
    39   42   19 1    
    40   43   19 1    
    41   21   20 1    
    42   44   20 1    
    43   45   20 1    
    44   52   21 1    
    45   53   21 1    
    46   54   21 1    
    47   23   22 1    
    48   46   22 1    
    49   24   23 1    
    50   47   23 1    
    51   48   23 1    
    52   25   24 ar   
    53   26   24 ar   
@<TRIPOS>SUBSTRUCTURE
     1 GTX2001     1 GROUP   
@<TRIPOS>SET

