#    Name: 3uq9_TBN_2_INTS_M
#    Modification time : Mon Mar 24 23:17:43 2014

@<TRIPOS>MOLECULE
3uq9_TBN_2_INTS_M
   41     0     3     0     0
SMALL
NO_CHARGES


@<TRIPOS>ATOM
      1 CA         13.6760  -24.4245   16.2255 C.3       1 GLC5        0.0000 
      2 CA         12.1260  -24.3500   17.8380 C.3       3 GLL5        0.0000 
      3 CA         15.2260  -24.4990   14.6130 C.3       2 GLP5        0.0000 
      4 CA         11.7035  -23.3800   16.1800 C.3       1 GLC5        0.0000 
      5 CA         11.2810  -22.4100   14.5220 C.3       2 GLP5        0.0000 
      6 CA         10.6950  -25.1590   16.6185 C.3       1 GLC5        0.0000 
      7 CA          9.2640  -25.9680   15.3990 C.3       2 GLP5        0.0000 
      8 CA         12.6205  -27.0090   16.5120 C.3       1 GLC5        0.0000 
      9 CA         12.5710  -25.7780   18.0380 C.3       3 GLL5        0.0000 
     10 CA         12.6700  -28.2400   14.9860 C.3       2 GLP5        0.0000 
     11 CA         14.9070  -25.7140   16.4715 C.3       1 GLC5        0.0000 
     12 CA         14.5880  -26.9290   18.3300 C.3       3 GLL5        0.0000 
     13 CA         13.6290  -27.5845   16.6580 C.3       1 GLC5        0.0000 
     14 CA         16.0055  -27.3555   17.2385 C.3       1 GLC5        0.0000 
     15 CA         17.4230  -27.7820   16.1470 C.3       2 GLP5        0.0000 
     16 CA         15.7925  -24.8345   16.6580 C.3       1 GLC5        0.0000 
     17 CA         16.3590  -25.1700   18.7030 C.3       3 GLL5        0.0000 
     18 CA         19.0950  -24.7985   17.7755 C.3       1 GLC5        0.0000 
     19 CA         17.6280  -25.1360   19.2880 C.3       3 GLL5        0.0000 
     20 CA         20.5620  -24.4610   16.2630 C.3       2 GLP5        0.0000 
     21 CA         18.8435  -27.2380   22.3290 C.3       1 GLC5        0.0000 
     22 CA         19.0150  -27.0400   20.4470 C.3       3 GLL5        0.0000 
     23 CA         18.6720  -27.4360   24.2110 C.3       2 GLP5        0.0000 
     24 CA         21.0880  -27.4230   19.8465 C.3       1 GLC5        0.0000 
     25 CA         23.1610  -27.8060   19.2460 C.3       2 GLP5        0.0000 
     26 CA         17.5345  -28.1825   22.1700 C.3       1 GLC5        0.0000 
     27 CA         17.8850  -29.0600   20.4590 C.3       3 GLL5        0.0000 
     28 CA         17.1840  -27.3050   23.8810 C.3       2 GLP5        0.0000 
     29 CA         13.8690  -28.7200   21.1990 C.3       1 GLC5        0.0000 
     30 CA         13.6180  -27.3850   19.4340 C.3       3 GLL5        0.0000 
     31 CA         14.1200  -30.0550   22.9640 C.3       2 GLP5        0.0000 
     32 CA         10.7937  -26.7553   18.0673 C.3       1 GLC5        0.0000 
     33 CA         12.5920  -26.2530   19.4770 C.3       3 GLL5        0.0000 
     34 CA          9.0060  -27.4950   17.3770 C.3       2 GLP5        0.0000 
     35 CA         17.2602  -27.0565   21.7398 C.3       1 GLC5        0.0000 
     36 CA         17.8890  -26.4200   19.7530 C.3       3 GLL5        0.0000 
     37 CA         11.2501  -24.6283   19.7853 C.3       1 GLC5        0.0000 
     38 CA         10.0300  -23.5980   20.8630 C.3       2 GLP5        0.0000 
     39 CA         16.3750  -25.0583   20.9000 C.3       1 GLC5        0.0000 
     40 CA         15.5850  -24.1360   22.5030 C.3       2 GLP5        0.0000 
     41 CA         17.2940  -26.8813   17.7220 C.3       1 GLC5        0.0000 
@<TRIPOS>BOND
@<TRIPOS>SUBSTRUCTURE
     1 GLC5        1 GROUP        1 X    GLC  0     ROOT GLC X 6
     2 GLP5        3 GROUP        1 Y    GLP  0     ROOT GLP Y 13
     3 GLL5        2 GROUP        1 Z    GLL  0     ROOT GLL Z 20
@<TRIPOS>SET

