#    Name: 3uq9_TBN_2_ligand
#    Modification time : Mon Mar 24 23:17:43 2014

@<TRIPOS>MOLECULE
3uq9_TBN_2_ligand
   33    35     1     0     0
SMALL
NO_CHARGES


@<TRIPOS>ATOM
      1 O5'        13.1710  -23.4270   18.1320 O.3       1 TBN402      0.0000 
      2 C5'        12.1260  -24.3500   17.8380 C.3       1 TBN402      0.0000 
      3 C4'        12.5710  -25.7780   18.0380 C.3       1 TBN402      0.0000 
      4 O4'        13.9310  -25.9190   17.5780 O.3       1 TBN402      0.0000 
      5 C1'        14.5880  -26.9290   18.3300 C.3       1 TBN402      0.0000 
      6 N9         15.8750  -26.4140   18.8150 N.pl3     1 TBN402      0.0000 
      7 C8         16.3590  -25.1700   18.7030 C.2       1 TBN402      0.0000 
      8 C7         17.6280  -25.1360   19.2880 C.2       1 TBN402      0.0000 
      9 C5         17.8890  -26.4200   19.7530 C.ar      1 TBN402      0.0000 
     10 C6         19.0150  -27.0400   20.4470 C.ar      1 TBN402      0.0000 
     11 N1         18.9450  -28.3320   20.7590 N.ar      1 TBN402      0.0000 
     12 C2         17.8850  -29.0600   20.4590 C.ar      1 TBN402      0.0000 
     13 N3         16.7620  -28.4790   19.7750 N.ar      1 TBN402      0.0000 
     14 C4         16.7840  -27.1960   19.4440 C.ar      1 TBN402      0.0000 
     15 N6         20.2120  -26.2170   20.7890 N.pl3     1 TBN402      0.0000 
     16 C2'        13.6180  -27.3850   19.4340 C.3       1 TBN402      0.0000 
     17 O2'        13.0780  -28.6580   19.1530 O.3       1 TBN402      0.0000 
     18 C3'        12.5920  -26.2530   19.4770 C.3       1 TBN402      0.0000 
     19 O3'        11.3150  -26.7880   19.8160 O.3       1 TBN402      0.0000 
     20 H          11.7784  -24.2444   16.7929 H         1 TBN402      0.0000 
     21 H          11.2424  -24.1751   18.4805 H         1 TBN402      0.0000 
     22 H          11.9353  -26.4419   17.4685 H         1 TBN402      0.0000 
     23 H          14.7625  -27.7982   17.6830 H         1 TBN402      0.0000 
     24 H          15.9353  -24.4116   18.2981 H         1 TBN402      0.0000 
     25 H          18.1910  -24.3894   19.3522 H         1 TBN402      0.0000 
     26 H          17.8119  -30.0687   20.6979 H         1 TBN402      0.0000 
     27 H          20.1591  -25.2457   20.5570 H         1 TBN402      0.0000 
     28 H          20.9708  -26.7030   21.2227 H         1 TBN402      0.0000 
     29 H          14.1764  -27.3460   20.3595 H         1 TBN402      0.0000 
     30 H          12.9350  -25.4981   20.0938 H         1 TBN402      0.0000 
     31 H          13.9744  -23.7858   17.6568 H         1 TBN402      0.0000 
     32 H          13.8235  -29.3003   19.3310 H         1 TBN402      0.0000 
     33 H          11.4510  -27.7780   19.8538 H         1 TBN402      0.0000 
@<TRIPOS>BOND
     1    2    1 1    
     2   31    1 1    
     3    3    2 1    
     4   20    2 1    
     5   21    2 1    
     6    4    3 1    
     7   18    3 1    
     8   22    3 1    
     9    5    4 1    
    10    6    5 1    
    11   16    5 1    
    12   23    5 1    
    13    7    6 1    
    14   14    6 1    
    15    8    7 2    
    16   24    7 1    
    17    9    8 1    
    18   25    8 1    
    19   10    9 ar   
    20   14    9 ar   
    21   11   10 ar   
    22   15   10 1    
    23   12   11 ar   
    24   13   12 ar   
    25   26   12 1    
    26   14   13 ar   
    27   27   15 1    
    28   28   15 1    
    29   17   16 1    
    30   18   16 1    
    31   29   16 1    
    32   32   17 1    
    33   19   18 1    
    34   30   18 1    
    35   33   19 1    
@<TRIPOS>SUBSTRUCTURE
     1 TBN402      1 GROUP   
@<TRIPOS>SET

