#    Name: 1AQJ_1_CAVITY_N1_ALL.mol2
#    Modification time : Mon Mar 10 13:42:11 2014

@<TRIPOS>MOLECULE
1AQJ_1_CAVITY_N1_ALL.mol2
   60     0     5     0     0
SMALL
NO_CHARGES


@<TRIPOS>ATOM
      1 NZ         42.1040   41.0460   14.9635 N.2       3 LYS4        0.0000 
      2 CA         41.3053   42.0483   15.7429 C.3       4 GLY6        0.0000 
      3 CA         39.7079   44.0529   17.3017 C.3       4 GLY6        0.0000 
      4 CA         38.9092   45.0552   18.0811 C.3       4 GLY6        0.0000 
      5 CA         39.9051   43.5629   15.2472 C.3       4 GLY6        0.0000 
      6 CA         39.1064   44.5652   16.0266 C.3       4 GLY6        0.0000 
      7 NZ         38.3077   45.5675   16.8060 N.2       3 LYS4        0.0000 
      8 N          41.5873   39.5423   16.3678 N.2       2 ALA2        0.0000 
      9 N          39.1911   42.5492   18.7060 N.2       2 ALA2        0.0000 
     10 CA         38.3924   43.5515   19.4854 C.3       4 GLY6        0.0000 
     11 N          40.9858   40.0546   15.0927 N.2       2 ALA2        0.0000 
     12 N          40.1871   41.0569   15.8721 N.2       2 ALA2        0.0000 
     13 N          39.3884   42.0592   16.6515 N.2       2 ALA2        0.0000 
     14 CA         38.5897   43.0615   17.4309 C.3       4 GLY6        0.0000 
     15 CA         37.7910   44.0638   18.2103 C.3       4 GLY6        0.0000 
     16 CA         40.2246   45.5566   15.8975 C.3       4 GLY6        0.0000 
     17 CA         36.9548   40.5663   18.9643 C.3       4 GLY6        0.0000 
     18 CA         36.1561   41.5686   19.7436 C.3       4 GLY6        0.0000 
     19 CA         38.7494   38.0716   15.3510 C.3       4 GLY6        0.0000 
     20 N          37.9507   39.0739   16.1304 N.2       2 ALA2        0.0000 
     21 N          37.1520   40.0762   16.9098 N.2       2 ALA2        0.0000 
     22 N          36.3533   41.0786   17.6892 N.2       2 ALA2        0.0000 
     23 OG         35.5546   42.0809   18.4686 O.2       1 SER1        0.0000 
     24 DU         37.3493   39.5862   14.8553 H         5 CUB7        0.0000 
     25 DU         36.5506   40.5885   15.6347 H         5 CUB7        0.0000 
     26 NZ         35.7519   41.5908   16.4141 N.2       3 LYS4        0.0000 
     27 DU         36.7478   40.0984   13.5802 H         5 CUB7        0.0000 
     28 O          35.9491   41.1007   14.3596 O.2       2 ALA2        0.0000 
     29 CA         35.1504   42.1030   15.1390 C.3       4 GLY6        0.0000 
     30 O          34.5490   42.6153   13.8639 O.2       2 ALA2        0.0000 
     31 N          36.8326   38.0825   16.2595 N.2       2 ALA2        0.0000 
     32 N          36.0339   39.0848   17.0389 N.2       2 ALA2        0.0000 
     33 CA         37.0298   37.5924   14.2050 C.3       4 GLY6        0.0000 
     34 DU         36.2311   38.5947   14.9844 H         5 CUB7        0.0000 
     35 N          35.4324   39.5970   15.7638 N.2       2 ALA2        0.0000 
     36 CA         35.6296   39.1070   13.7093 C.3       4 GLY6        0.0000 
     37 CA         34.8309   40.1093   14.4887 C.3       4 GLY6        0.0000 
     38 DU         39.5856   41.5691   14.5970 H         5 CUB7        0.0000 
     39 DU         38.7869   42.5714   15.3764 H         5 CUB7        0.0000 
     40 NZ         37.9882   43.5737   16.1558 N.2       3 LYS4        0.0000 
     41 NZ         37.3868   44.0859   14.8807 N.2       3 LYS4        0.0000 
     42 N          38.6744   41.0455   20.1102 N.2       2 ALA2        0.0000 
     43 NZ         37.8757   42.0478   20.8896 N.2       3 LYS4        0.0000 
     44 N          39.6704   39.5532   17.2763 N.2       2 ALA2        0.0000 
     45 N          38.8717   40.5555   18.0557 N.2       2 ALA2        0.0000 
     46 N          38.0730   41.5578   18.8351 N.2       2 ALA2        0.0000 
     47 CA         37.2743   42.5601   19.6145 C.3       4 GLY6        0.0000 
     48 CA         36.4756   43.5624   20.3939 C.3       4 GLY6        0.0000 
     49 DU         39.8676   39.0631   15.2218 H         5 CUB7        0.0000 
     50 N          39.0689   40.0654   16.0012 N.2       2 ALA2        0.0000 
     51 N          38.2702   41.0677   16.7806 N.2       2 ALA2        0.0000 
     52 NZ         37.4715   42.0700   17.5600 N.2       3 LYS4        0.0000 
     53 NZ         36.6728   43.0723   18.3394 N.2       3 LYS4        0.0000 
     54 DU         37.6688   41.5799   15.5055 H         5 CUB7        0.0000 
     55 NZ         36.8701   42.5823   16.2849 N.2       3 LYS4        0.0000 
     56 DU         37.0673   42.0922   14.2304 H         5 CUB7        0.0000 
     57 NZ         36.2686   43.0945   15.0098 N.2       3 LYS4        0.0000 
     58 CA         35.1129   37.6033   15.1136 C.3       4 GLY6        0.0000 
     59 CA         35.3102   37.1132   13.0591 C.3       4 GLY6        0.0000 
     60 CA         34.5115   38.1155   13.8385 C.3       4 GLY6        0.0000 
@<TRIPOS>BOND
@<TRIPOS>SUBSTRUCTURE
     1 SER1       23 GROUP   
     2 ALA2        8 GROUP   
     3 LYS4        1 GROUP   
     4 GLY6        2 GROUP   
     5 CUB7       24 GROUP   
@<TRIPOS>SET

