#    Name: 1aqj_SFG_1_INTS_M
#    Modification time : Mon Mar 24 18:48:36 2014

@<TRIPOS>MOLECULE
1aqj_SFG_1_INTS_M
   52     0     9     0     0
SMALL
NO_CHARGES


@<TRIPOS>ATOM
      1 O          34.6190   37.0755   17.7310 O.2       1 ALC1        0.0000 
      2 O          35.0350   36.8700   16.4130 O.2       7 ALL1        0.0000 
      3 O          34.2030   37.2810   19.0490 O.2       4 ALP1        0.0000 
      4 O          35.7010   35.9850   17.1580 O.2       1 ALC1        0.0000 
      5 O          36.3670   35.1000   17.9030 O.2       4 ALP1        0.0000 
      6 CA         33.8810   38.4280   15.1545 C.3       3 GLC5        0.0000 
      7 CA         35.5490   37.6800   15.3140 C.3       9 GLL5        0.0000 
      8 CA         32.2130   39.1760   14.9950 C.3       6 GLP5        0.0000 
      9 N          35.8875   34.4215   14.4695 N.am      2 SEC2        0.0000 
     10 N          35.5060   35.7160   13.9700 N.am      8 SEL2        0.0000 
     11 N          36.2690   33.1270   14.9690 N.am      5 SEP2        0.0000 
     12 CA         36.3365   38.8785   18.5560 C.3       3 GLC5        0.0000 
     13 CA         37.4660   38.7330   16.7040 C.3       9 GLL5        0.0000 
     14 CA         35.2070   39.0240   20.4080 C.3       6 GLP5        0.0000 
     15 CA         39.7365   36.6865   16.5985 C.3       3 GLC5        0.0000 
     16 CA         38.9810   38.7180   16.9120 C.3       9 GLL5        0.0000 
     17 CA         40.4920   34.6550   16.2850 C.3       6 GLP5        0.0000 
     18 O          44.8445   40.2995   14.5715 O.2       1 ALC1        0.0000 
     19 O          43.9530   39.9590   13.8160 O.2       7 ALL1        0.0000 
     20 O          45.7360   40.6400   15.3270 O.2       4 ALP1        0.0000 
     21 CA         42.5815   38.1480   17.3330 C.3       3 GLC5        0.0000 
     22 CA         43.1030   38.6250   15.6680 C.3       9 GLL5        0.0000 
     23 CA         42.0600   37.6710   18.9980 C.3       6 GLP5        0.0000 
     24 CA         42.6250   35.0110   16.1280 C.3       3 GLC5        0.0000 
     25 CA         44.7580   35.3670   15.9710 C.3       9 GLL5        0.0000 
     26 CA         45.9795   34.2235   18.9125 C.3       3 GLC5        0.0000 
     27 CA         45.6230   34.5530   16.7290 C.3       9 GLL5        0.0000 
     28 CA         46.3360   33.8940   21.0960 C.3       6 GLP5        0.0000 
     29 O          47.0250   32.4855   16.7925 O.2       1 ALC1        0.0000 
     30 O          45.8100   33.2600   16.4740 O.2       7 ALL1        0.0000 
     31 O          48.2400   31.7110   17.1110 O.2       4 ALP1        0.0000 
     32 N          47.2845   34.4390   18.7135 N.am      2 SEC2        0.0000 
     33 N          46.2510   35.1200   17.7820 N.am      8 SEL2        0.0000 
     34 N          48.3180   33.7580   19.6450 N.am      5 SEP2        0.0000 
     35 CA         44.5685   37.5370   18.7705 C.3       3 GLC5        0.0000 
     36 CA         46.0250   36.4040   18.0600 C.3       9 GLL5        0.0000 
     37 CA         43.1120   38.6700   19.4810 C.3       6 GLP5        0.0000 
     38 CA         47.2855   36.8495   19.8685 C.3       3 GLC5        0.0000 
     39 CA         48.5460   37.2950   21.6770 C.3       6 GLP5        0.0000 
     40 CA         46.8325   38.3415   18.2535 C.3       3 GLC5        0.0000 
     41 CA         47.6400   40.2790   18.4470 C.3       6 GLP5        0.0000 
     42 CA         47.3840   36.7295   16.5500 C.3       3 GLC5        0.0000 
     43 CA         48.7430   37.0550   15.0400 C.3       6 GLP5        0.0000 
     44 CA         46.1805   35.1490   19.5780 C.3       3 GLC5        0.0000 
     45 CA         43.3385   37.1765   17.6910 C.3       3 GLC5        0.0000 
     46 CA         44.6170   36.6820   16.3840 C.3       9 GLL5        0.0000 
     47 CA         37.2432   36.0215   15.6788 C.3       3 GLC5        0.0000 
     48 CA         37.0500   37.9380   15.4770 C.3       9 GLL5        0.0000 
     49 CA         38.1870   34.2340   15.9620 C.3       6 GLP5        0.0000 
     50 CA         41.1112   38.5034   17.5060 C.3       3 GLC5        0.0000 
     51 CA         46.2539   36.5315   15.2055 C.3       3 GLC5        0.0000 
     52 CA         47.6040   37.2420   14.0440 C.3       6 GLP5        0.0000 
@<TRIPOS>BOND
@<TRIPOS>SUBSTRUCTURE
     1 ALC1        1 GROUP        1 X    ALC  0     ROOT ALC X 1
     2 SEC2        9 GROUP        1 X    SEC  0     **** SEC X 2
     3 GLC5        6 GROUP        1 X    GLC  0     **** GLC X 6
     4 ALP1        3 GROUP        1 Y    ALP  0     ROOT ALP Y 8
     5 SEP2       11 GROUP        1 Y    SEP  0     **** SEP Y 9
     6 GLP5        8 GROUP        1 Y    GLP  0     **** GLP Y 13
     7 ALL1        2 GROUP        1 Z    ALL  0     ROOT ALL Z 15
     8 SEL2       10 GROUP        1 Z    SEL  0     **** SEL Z 16
     9 GLL5        7 GROUP        1 Z    GLL  0     **** GLL Z 20
@<TRIPOS>SET

