#    Name: 1aqj_SFG_1_ligand
#    Modification time : Mon Mar 24 18:48:36 2014

@<TRIPOS>MOLECULE
1aqj_SFG_1_ligand
   48    50     1     0     0
SMALL
NO_CHARGES


@<TRIPOS>ATOM
      1 N          35.0350   36.8700   16.4130 N.4       1 SFG500      0.0000 
      2 CA         35.5490   37.6800   15.3140 C.3       1 SFG500      0.0000 
      3 C          35.3180   36.9490   13.9970 C.2       1 SFG500      0.0000 
      4 O          35.5060   35.7160   13.9700 O.co2     1 SFG500      0.0000 
      5 OXT        34.9580   37.6160   13.0100 O.co2     1 SFG500      0.0000 
      6 CB         37.0500   37.9380   15.4770 C.3       1 SFG500      0.0000 
      7 CG         37.4660   38.7330   16.7040 C.3       1 SFG500      0.0000 
      8 CD         38.9810   38.7180   16.9120 C.3       1 SFG500      0.0000 
      9 NE         39.3780   39.5750   18.0710 N.3       1 SFG500      0.0000 
     10 C5'        39.6110   39.2090   15.6140 C.3       1 SFG500      0.0000 
     11 C4'        41.0290   39.7080   15.7650 C.3       1 SFG500      0.0000 
     12 O4'        41.8610   38.7160   16.3940 O.3       1 SFG500      0.0000 
     13 C3'        41.6210   40.0390   14.4110 C.3       1 SFG500      0.0000 
     14 O3'        41.9830   41.4180   14.3700 O.3       1 SFG500      0.0000 
     15 C2'        42.8460   39.1770   14.2770 C.3       1 SFG500      0.0000 
     16 O2'        43.9530   39.9590   13.8160 O.3       1 SFG500      0.0000 
     17 C1'        43.1030   38.6250   15.6680 C.3       1 SFG500      0.0000 
     18 N9         43.5990   37.2270   15.6110 N.pl3     1 SFG500      0.0000 
     19 C8         43.2180   36.2030   14.8020 C.2       1 SFG500      0.0000 
     20 N7         43.8450   35.0770   14.9420 N.2       1 SFG500      0.0000 
     21 C5         44.7580   35.3670   15.9710 C.ar      1 SFG500      0.0000 
     22 C6         45.6230   34.5530   16.7290 C.ar      1 SFG500      0.0000 
     23 N6         45.8100   33.2600   16.4740 N.pl3     1 SFG500      0.0000 
     24 N1         46.2510   35.1200   17.7820 N.ar      1 SFG500      0.0000 
     25 C2         46.0250   36.4040   18.0600 C.ar      1 SFG500      0.0000 
     26 N3         45.2360   37.2720   17.4350 N.ar      1 SFG500      0.0000 
     27 C4         44.6170   36.6820   16.3840 C.ar      1 SFG500      0.0000 
     28 H          35.0443   38.6280   15.2657 H         1 SFG500      0.0000 
     29 H          37.4175   38.4625   14.5667 H         1 SFG500      0.0000 
     30 H          37.5762   36.9572   15.4881 H         1 SFG500      0.0000 
     31 H          36.9808   38.3119   17.5905 H         1 SFG500      0.0000 
     32 H          37.1320   39.7698   16.5946 H         1 SFG500      0.0000 
     33 H          39.2871   37.6996   17.0732 H         1 SFG500      0.0000 
     34 H          38.9826   40.0182   15.1988 H         1 SFG500      0.0000 
     35 H          39.5914   38.3855   14.8767 H         1 SFG500      0.0000 
     36 H          41.0157   40.6179   16.3536 H         1 SFG500      0.0000 
     37 H          40.9221   39.7717   13.6590 H         1 SFG500      0.0000 
     38 H          42.6186   38.3613   13.6275 H         1 SFG500      0.0000 
     39 H          43.8501   39.2586   16.1356 H         1 SFG500      0.0000 
     40 H          42.4615   36.3464   14.1181 H         1 SFG500      0.0000 
     41 H          46.6887   32.8778   16.7597 H         1 SFG500      0.0000 
     42 H          45.0549   32.7874   16.0197 H         1 SFG500      0.0000 
     43 H          46.5746   36.8039   18.9388 H         1 SFG500      0.0000 
     44 H          35.4901   35.9810   16.4636 H         1 SFG500      0.0000 
     45 H          35.1669   37.3175   17.2975 H         1 SFG500      0.0000 
     46 H          34.0555   36.6929   16.3173 H         1 SFG500      0.0000 
     47 H          42.9475   41.4245   14.1061 H         1 SFG500      0.0000 
     48 H          44.7290   39.6622   14.3725 H         1 SFG500      0.0000 
@<TRIPOS>BOND
     1    2    1 1    
     2   44    1 1    
     3   45    1 1    
     4   46    1 1    
     5    3    2 1    
     6    6    2 1    
     7   28    2 1    
     8    4    3 ar   
     9    5    3 ar   
    10    7    6 1    
    11   29    6 1    
    12   30    6 1    
    13    8    7 1    
    14   31    7 1    
    15   32    7 1    
    16    9    8 1    
    17   10    8 1    
    18   33    8 1    
    19   11   10 1    
    20   34   10 1    
    21   35   10 1    
    22   12   11 1    
    23   13   11 1    
    24   36   11 1    
    25   17   12 1    
    26   14   13 1    
    27   15   13 1    
    28   37   13 1    
    29   47   14 1    
    30   16   15 1    
    31   17   15 1    
    32   38   15 1    
    33   48   16 1    
    34   18   17 1    
    35   39   17 1    
    36   19   18 1    
    37   27   18 1    
    38   20   19 2    
    39   40   19 1    
    40   21   20 1    
    41   22   21 ar   
    42   27   21 ar   
    43   23   22 1    
    44   24   22 ar   
    45   41   23 1    
    46   42   23 1    
    47   25   24 ar   
    48   26   25 ar   
    49   43   25 1    
    50   27   26 ar   
@<TRIPOS>SUBSTRUCTURE
     1 SFG500      1 GROUP   
@<TRIPOS>SET

