#    Name: 3SZT_1_CAVITY_N1_ALL.mol2
#    Modification time : Tue Mar 11 01:53:15 2014

@<TRIPOS>MOLECULE
3SZT_1_CAVITY_N1_ALL.mol2
   47     0     6     0     0
SMALL
NO_CHARGES


@<TRIPOS>ATOM
      1 NZ         39.8774   17.1408   -0.2576 N.2       3 LYS4        0.0000 
      2 CA         38.4416   17.2254    0.1682 C.3       5 GLY6        0.0000 
      3 OG         40.8790   16.7728   -2.0910 O.2       1 SER1        0.0000 
      4 OG         39.4432   16.8573   -1.6651 O.2       1 SER1        0.0000 
      5 CZ         41.8806   16.4047   -3.9244 C.ar      4 PHE5        0.0000 
      6 CZ         40.4449   16.4893   -3.4985 C.ar      4 PHE5        0.0000 
      7 CA         41.3143   15.5857   -0.3876 C.3       5 GLY6        0.0000 
      8 CA         39.8785   15.6703    0.0382 C.3       5 GLY6        0.0000 
      9 OG         42.3159   15.2177   -2.2210 O.2       1 SER1        0.0000 
     10 OG         40.8801   15.3022   -1.7952 O.2       1 SER1        0.0000 
     11 OG         39.4444   15.3868   -1.3693 O.2       1 SER1        0.0000 
     12 OG         38.0086   15.4713   -0.9435 O.2       1 SER1        0.0000 
     13 CZ         40.4460   15.0187   -3.2027 C.ar      4 PHE5        0.0000 
     14 OG         39.0102   15.1033   -2.7769 O.2       1 SER1        0.0000 
     15 CA         42.7512   14.0306   -0.5177 C.3       5 GLY6        0.0000 
     16 CA         41.3154   14.1152   -0.0918 C.3       5 GLY6        0.0000 
     17 CA         39.8796   14.1997    0.3340 C.3       5 GLY6        0.0000 
     18 CA         42.3171   13.7471   -1.9252 C.3       5 GLY6        0.0000 
     19 DU         40.8813   13.8317   -1.4993 H         6 CUB7        0.0000 
     20 CA         39.4455   13.9162   -1.0735 C.3       5 GLY6        0.0000 
     21 N          38.0097   14.0008   -0.6477 N.2       2 ALA2        0.0000 
     22 CA         40.4471   13.5482   -2.9069 C.3       5 GLY6        0.0000 
     23 O          39.0113   13.6328   -2.4810 O.2       2 ALA2        0.0000 
     24 CA         40.7491   13.2962    3.4449 C.3       5 GLY6        0.0000 
     25 CA         41.7507   12.9281    1.6115 C.3       5 GLY6        0.0000 
     26 CA         40.3149   13.0127    2.0374 C.3       5 GLY6        0.0000 
     27 CZ         41.3166   12.6446    0.2040 C.ar      4 PHE5        0.0000 
     28 CA         39.8808   12.7292    0.6299 C.3       5 GLY6        0.0000 
     29 CZ         42.3182   12.2766   -1.6294 C.ar      4 PHE5        0.0000 
     30 CA         40.8824   12.3611   -1.2035 C.3       5 GLY6        0.0000 
     31 N          39.4466   12.4457   -0.7777 N.2       2 ALA2        0.0000 
     32 CA         42.1860   11.7411    3.3149 C.3       5 GLY6        0.0000 
     33 CA         40.7502   11.8256    3.7407 C.3       5 GLY6        0.0000 
     34 CA         39.3144   11.9102    4.1666 C.3       5 GLY6        0.0000 
     35 CZ         41.7519   11.4576    1.9074 C.ar      4 PHE5        0.0000 
     36 CA         40.3161   11.5421    2.3332 C.3       5 GLY6        0.0000 
     37 CA         38.8803   11.6267    2.7591 C.3       5 GLY6        0.0000 
     38 OG         40.8779   18.2433   -2.3868 O.2       1 SER1        0.0000 
     39 OG         39.4421   18.3279   -1.9610 O.2       1 SER1        0.0000 
     40 CZ         41.8795   17.8753   -4.2202 C.ar      4 PHE5        0.0000 
     41 CZ         40.4437   17.9598   -3.7944 C.ar      4 PHE5        0.0000 
     42 CZ         41.3177   11.1741    0.4998 C.ar      4 PHE5        0.0000 
     43 N          39.8819   11.2587    0.9257 N.2       2 ALA2        0.0000 
     44 O          40.8836   10.8906   -0.9077 O.2       2 ALA2        0.0000 
     45 CA         40.7514   10.3551    4.0366 C.3       5 GLY6        0.0000 
     46 CA         41.7530    9.9870    2.2032 C.3       5 GLY6        0.0000 
     47 N          40.3172   10.0716    2.6290 N.2       2 ALA2        0.0000 
@<TRIPOS>BOND
@<TRIPOS>SUBSTRUCTURE
     1 SER1        3 GROUP   
     2 ALA2       21 GROUP   
     3 LYS4        1 GROUP   
     4 PHE5        5 GROUP   
     5 GLY6        2 GROUP   
     6 CUB7       19 GROUP   
@<TRIPOS>SET

