#    Name: 3szt_OHN_1_INTS_M
#    Modification time : Mon Mar 24 18:57:28 2014

@<TRIPOS>MOLECULE
3szt_OHN_1_INTS_M
   71     0     9     0     0
SMALL
NO_CHARGES


@<TRIPOS>ATOM
      1 CA         41.6190   12.5750    3.9925 C.3       3 GLC5        0.0000 
      2 CA         40.0940   11.0260    4.4750 C.3       9 GLL5        0.0000 
      3 CA         43.1440   14.1240    3.5100 C.3       6 GLP5        0.0000 
      4 CA         39.3235   12.0515    6.0760 C.3       3 GLC5        0.0000 
      5 CA         38.5530   13.0770    7.6770 C.3       6 GLP5        0.0000 
      6 CA         38.3990    9.2355    2.2385 C.3       3 GLC5        0.0000 
      7 CA         39.8430   10.4310    3.1170 C.3       9 GLL5        0.0000 
      8 CA         36.9550    8.0400    1.3600 C.3       6 GLP5        0.0000 
      9 CA         41.6860   12.7985    2.8010 C.3       3 GLC5        0.0000 
     10 CA         40.2280   11.4730    2.0920 C.3       9 GLL5        0.0000 
     11 CA         38.4805    9.4795    1.0290 C.3       3 GLC5        0.0000 
     12 CA         40.0060   10.9190    0.6980 C.3       9 GLL5        0.0000 
     13 CA         42.6915   11.2720   -0.1835 C.3       3 GLC5        0.0000 
     14 CA         40.8720   11.6610   -0.2960 C.3       9 GLL5        0.0000 
     15 CA         44.5110   10.8830   -0.0710 C.3       6 GLP5        0.0000 
     16 CA         39.1515   13.9585    0.6805 C.3       3 GLC5        0.0000 
     17 CA         40.0590   12.7560   -0.9690 C.3       9 GLL5        0.0000 
     18 CA         38.2440   15.1610    2.3300 C.3       6 GLP5        0.0000 
     19 CA         43.1910   13.9805   -1.6780 C.3       3 GLC5        0.0000 
     20 CA         41.0210   13.6900   -1.7110 C.3       9 GLL5        0.0000 
     21 CA         45.3610   14.2710   -1.6450 C.3       6 GLP5        0.0000 
     22 CA         38.5940   15.8300   -3.3680 C.3       3 GLC5        0.0000 
     23 CA         40.2710   14.9050   -2.2340 C.3       9 GLL5        0.0000 
     24 CA         36.9170   16.7550   -4.5020 C.3       6 GLP5        0.0000 
     25 CA         42.1065   17.2530   -1.6545 C.3       3 GLC5        0.0000 
     26 CA         40.7070   16.0390   -1.3380 C.3       9 GLL5        0.0000 
     27 CA         43.5060   18.4670   -1.9710 C.3       6 GLP5        0.0000 
     28 CA         41.3580   15.9840    0.4250 C.3       3 GLC5        0.0000 
     29 CA         42.0090   15.9290    2.1880 C.3       6 GLP5        0.0000 
     30 CA         40.5565   16.8565    0.9095 C.3       3 GLC5        0.0000 
     31 CA         39.1040   17.7840   -0.3690 C.3       9 GLL5        0.0000 
     32 CA         38.6740   16.4725    0.9805 C.3       3 GLC5        0.0000 
     33 N          37.3650   20.2635   -2.1015 N.am      2 SEC2        0.0000 
     34 N          37.7790   19.5030   -1.2160 N.am      8 SEL2        0.0000 
     35 N          36.9510   21.0240   -2.9870 N.am      5 SEP2        0.0000 
     36 O          40.6485   19.7280    0.5280 O.2       1 ALC1        0.0000 
     37 O          39.5410   20.1660   -0.0250 O.2       7 ALL1        0.0000 
     38 O          41.7560   19.2900    1.0810 O.2       4 ALP1        0.0000 
     39 CA         38.2890   21.4180   -2.2705 C.3       3 GLC5        0.0000 
     40 CA         39.1770   21.5290   -0.2840 C.3       9 GLL5        0.0000 
     41 CA         37.4010   21.3070   -4.2570 C.3       6 GLP5        0.0000 
     42 CA         38.9290   21.6640    2.7215 C.3       3 GLC5        0.0000 
     43 CA         39.2040   22.4440    0.9380 C.3       9 GLL5        0.0000 
     44 CA         38.6540   20.8840    4.5050 C.3       6 GLP5        0.0000 
     45 CA         40.5180   25.4140   -0.5030 C.3       3 GLC5        0.0000 
     46 CA         39.7880   23.7950    0.4910 C.3       9 GLL5        0.0000 
     47 CA         41.2480   27.0330   -1.4970 C.3       6 GLP5        0.0000 
     48 N          41.1325   22.4820   -3.3415 N.am      2 SEC2        0.0000 
     49 N          40.5820   21.7470   -2.1860 N.am      8 SEL2        0.0000 
     50 N          41.6830   23.2170   -4.4970 N.am      5 SEP2        0.0000 
     51 CA         41.3148   10.1923    4.7815 C.3       3 GLC5        0.0000 
     52 CA         42.6610    9.6560    5.7670 C.3       6 GLP5        0.0000 
     53 CA         39.6523    9.1357    4.5125 C.3       3 GLC5        0.0000 
     54 CA         39.3360    7.5430    5.2290 C.3       6 GLP5        0.0000 
     55 CA         39.5940   10.8930   -1.6680 C.3       3 GLC5        0.0000 
     56 CA         38.7490   10.4960   -3.5370 C.3       6 GLP5        0.0000 
     57 CA         40.1970    9.4430   -0.6675 C.3       3 GLC5        0.0000 
     58 CA         39.9550    7.5960   -1.5360 C.3       6 GLP5        0.0000 
     59 CA         38.2884   11.7013    1.7861 C.3       3 GLC5        0.0000 
     60 CA         36.5560   12.4670    1.9210 C.3       6 GLP5        0.0000 
     61 CA         39.6445   11.8595   -2.4385 C.3       3 GLC5        0.0000 
     62 CA         40.6262   13.2830   -3.5515 C.3       3 GLC5        0.0000 
     63 CA         40.8470   12.5020   -5.3160 C.3       6 GLP5        0.0000 
     64 CA         41.4125   23.4637    1.3802 C.3       3 GLC5        0.0000 
     65 CA         43.3290   23.8080    2.0460 C.3       6 GLP5        0.0000 
     66 CA         39.5115   24.4038    2.0057 C.3       3 GLC5        0.0000 
     67 CA         39.5270   25.6880    3.2970 C.3       6 GLP5        0.0000 
     68 CA         37.7356   23.2579    0.7450 C.3       3 GLC5        0.0000 
     69 CA         35.9820   23.6250    1.0810 C.3       6 GLP5        0.0000 
     70 CA         38.4441   23.8959   -0.9275 C.3       3 GLC5        0.0000 
     71 CA         37.3990   24.9010   -2.2640 C.3       6 GLP5        0.0000 
@<TRIPOS>BOND
@<TRIPOS>SUBSTRUCTURE
     1 ALC1       36 GROUP        1 X    ALC  0     ROOT ALC X 1
     2 SEC2       33 GROUP        1 X    SEC  0     **** SEC X 2
     3 GLC5        1 GROUP        1 X    GLC  0     **** GLC X 6
     4 ALP1       38 GROUP        1 Y    ALP  0     ROOT ALP Y 8
     5 SEP2       35 GROUP        1 Y    SEP  0     **** SEP Y 9
     6 GLP5        3 GROUP        1 Y    GLP  0     **** GLP Y 13
     7 ALL1       37 GROUP        1 Z    ALL  0     ROOT ALL Z 15
     8 SEL2       34 GROUP        1 Z    SEL  0     **** SEL Z 16
     9 GLL5        2 GROUP        1 Z    GLL  0     **** GLL Z 20
@<TRIPOS>SET

