#    Name: 3szt_OHN_1_ligand
#    Modification time : Mon Mar 24 18:57:28 2014

@<TRIPOS>MOLECULE
3szt_OHN_1_ligand
   48    48     1     0     0
SMALL
NO_CHARGES


@<TRIPOS>ATOM
      1 C21        40.0940   11.0260    4.4750 C.3       1 OHN238      0.0000 
      2 C20        39.8430   10.4310    3.1170 C.3       1 OHN238      0.0000 
      3 C19        40.2280   11.4730    2.0920 C.3       1 OHN238      0.0000 
      4 C18        40.0060   10.9190    0.6980 C.3       1 OHN238      0.0000 
      5 C17        40.8720   11.6610   -0.2960 C.3       1 OHN238      0.0000 
      6 C16        40.0590   12.7560   -0.9690 C.3       1 OHN238      0.0000 
      7 C15        41.0210   13.6900   -1.7110 C.3       1 OHN238      0.0000 
      8 C14        40.2710   14.9050   -2.2340 C.3       1 OHN238      0.0000 
      9 C13        40.7070   16.0390   -1.3380 C.3       1 OHN238      0.0000 
     10 C11        39.8780   17.2670   -1.5360 C.2       1 OHN238      0.0000 
     11 O12        39.8810   17.8470   -2.6080 O.2       1 OHN238      0.0000 
     12 C10        39.1040   17.7840   -0.3690 C.3       1 OHN238      0.0000 
     13 C8         38.7630   19.2380   -0.5670 C.2       1 OHN238      0.0000 
     14 O9         37.7790   19.5030   -1.2160 O.2       1 OHN238      0.0000 
     15 N7         39.5410   20.1660   -0.0250 N.am      1 OHN238      0.0000 
     16 C1         39.1770   21.5290   -0.2840 C.3       1 OHN238      0.0000 
     17 C5         39.2040   22.4440    0.9380 C.3       1 OHN238      0.0000 
     18 C4         39.7880   23.7950    0.4910 C.3       1 OHN238      0.0000 
     19 C2         40.1410   22.2170   -1.1720 C.2       1 OHN238      0.0000 
     20 O6         40.5820   21.7470   -2.1860 O.2       1 OHN238      0.0000 
     21 OAP        40.4860   23.5200   -0.7100 O.3       1 OHN238      0.0000 
     22 H          38.7978   10.1872    3.0101 H         1 OHN238      0.0000 
     23 H          40.4511    9.5502    2.9836 H         1 OHN238      0.0000 
     24 H          41.2753   11.7345    2.2138 H         1 OHN238      0.0000 
     25 H          39.6180   12.3615    2.2286 H         1 OHN238      0.0000 
     26 H          38.9591   11.0349    0.4259 H         1 OHN238      0.0000 
     27 H          40.2615    9.8616    0.6847 H         1 OHN238      0.0000 
     28 H          41.2363   10.9690   -1.0505 H         1 OHN238      0.0000 
     29 H          41.7183   12.1073    0.2192 H         1 OHN238      0.0000 
     30 H          39.5198   13.3199   -0.2232 H         1 OHN238      0.0000 
     31 H          39.3723   12.3171   -1.6767 H         1 OHN238      0.0000 
     32 H          41.4679   13.1526   -2.5422 H         1 OHN238      0.0000 
     33 H          41.8024   14.0107   -1.0284 H         1 OHN238      0.0000 
     34 H          39.2205   14.7462   -2.1397 H         1 OHN238      0.0000 
     35 H          40.5626   15.1005   -3.2412 H         1 OHN238      0.0000 
     36 H          41.7636   16.2702   -1.5408 H         1 OHN238      0.0000 
     37 H          40.6397   15.7133   -0.2891 H         1 OHN238      0.0000 
     38 H          39.6936   17.6733    0.5450 H         1 OHN238      0.0000 
     39 H          38.1809   17.2098   -0.2530 H         1 OHN238      0.0000 
     40 H          40.3511   19.9785    0.5428 H         1 OHN238      0.0000 
     41 H          38.1962   21.6292   -0.7267 H         1 OHN238      0.0000 
     42 H          39.8343   22.0185    1.6961 H         1 OHN238      0.0000 
     43 H          38.2048   22.5926    1.3022 H         1 OHN238      0.0000 
     44 H          40.4362   24.1484    1.2776 H         1 OHN238      0.0000 
     45 H          38.9644   24.4767    0.3470 H         1 OHN238      0.0000 
     46 H          41.0533   11.2803    4.5975 H         1 OHN238      0.0000 
     47 H          39.5504   11.8519    4.6249 H         1 OHN238      0.0000 
     48 H          39.8642   10.3867    5.2088 H         1 OHN238      0.0000 
@<TRIPOS>BOND
     1    2    1 1    
     2   46    1 1    
     3   47    1 1    
     4   48    1 1    
     5    3    2 1    
     6   22    2 1    
     7   23    2 1    
     8    4    3 1    
     9   24    3 1    
    10   25    3 1    
    11    5    4 1    
    12   26    4 1    
    13   27    4 1    
    14    6    5 1    
    15   28    5 1    
    16   29    5 1    
    17    7    6 1    
    18   30    6 1    
    19   31    6 1    
    20    8    7 1    
    21   32    7 1    
    22   33    7 1    
    23    9    8 1    
    24   34    8 1    
    25   35    8 1    
    26   10    9 1    
    27   36    9 1    
    28   37    9 1    
    29   11   10 2    
    30   12   10 1    
    31   13   12 1    
    32   38   12 1    
    33   39   12 1    
    34   14   13 2    
    35   15   13 am   
    36   16   15 1    
    37   40   15 1    
    38   17   16 1    
    39   19   16 1    
    40   41   16 1    
    41   18   17 1    
    42   42   17 1    
    43   43   17 1    
    44   21   18 1    
    45   44   18 1    
    46   45   18 1    
    47   20   19 2    
    48   21   19 1    
@<TRIPOS>SUBSTRUCTURE
     1 OHN238      1 GROUP   
@<TRIPOS>SET

