#    Name: 3w33_W19_1_INTS_M
#    Modification time : Tue Mar 25 02:09:13 2014

@<TRIPOS>MOLECULE
3w33_W19_1_INTS_M
  101     0     9     0     0
SMALL
NO_CHARGES


@<TRIPOS>ATOM
      1 CA         18.6960   30.5640    9.6260 C.3       3 GLC5        0.0000 
      2 CA         17.5790   32.4710    9.9370 C.3       9 GLL5        0.0000 
      3 CA         19.8130   28.6570    9.3150 C.3       6 GLP5        0.0000 
      4 CA         14.6345   35.7620   11.5065 C.3       3 GLC5        0.0000 
      5 CA         15.9490   34.5580   10.7240 C.3       9 GLL5        0.0000 
      6 CA         13.3200   36.9660   12.2890 C.3       6 GLP5        0.0000 
      7 CA         11.8140   28.7830    7.7190 C.3       3 GLC5        0.0000 
      8 CA         13.6320   29.9650    8.0080 C.3       9 GLL5        0.0000 
      9 CA          9.9960   27.6010    7.4300 C.3       6 GLP5        0.0000 
     10 CA         12.3560   30.1795    6.5540 C.3       3 GLC5        0.0000 
     11 CA         11.0800   30.3940    5.1000 C.3       6 GLP5        0.0000 
     12 CA         13.2630   35.4225   13.0905 C.3       3 GLC5        0.0000 
     13 CA         13.2060   33.8790   13.8920 C.3       9 GLL5        0.0000 
     14 CA         12.7975   33.7820   12.0270 C.3       3 GLC5        0.0000 
     15 CA         12.3890   33.6850   10.1620 C.3       6 GLP5        0.0000 
     16 CA         11.3255   34.7380   14.2515 C.3       3 GLC5        0.0000 
     17 CA          9.4450   35.5970   14.6110 C.3       6 GLP5        0.0000 
     18 CA         12.1930   32.5445   14.9320 C.3       3 GLC5        0.0000 
     19 CA         11.1800   31.2100   15.9720 C.3       6 GLP5        0.0000 
     20 CA         13.9845   32.5080   14.4855 C.3       3 GLC5        0.0000 
     21 CA         14.7630   31.1370   15.0790 C.3       6 GLP5        0.0000 
     22 CA         12.7830   36.3110   15.7595 C.3       3 GLC5        0.0000 
     23 CA         14.1950   34.8430   15.7160 C.3       9 GLL5        0.0000 
     24 CA         11.3710   37.7790   15.8030 C.3       6 GLP5        0.0000 
     25 CA         12.8150   33.4485   16.4670 C.3       3 GLC5        0.0000 
     26 CA         11.4350   32.0540   17.2180 C.3       6 GLP5        0.0000 
     27 CA         16.4605   32.9865   17.3290 C.3       3 GLC5        0.0000 
     28 CA         16.2420   34.9900   17.9680 C.3       9 GLL5        0.0000 
     29 CA         16.6790   30.9830   16.6900 C.3       6 GLP5        0.0000 
     30 CA         15.1230   37.5035   16.7945 C.3       3 GLC5        0.0000 
     31 CA         14.9810   35.8450   17.9060 C.3       9 GLL5        0.0000 
     32 CA         15.2650   39.1620   15.6830 C.3       6 GLP5        0.0000 
     33 CA         14.7735   36.3500   20.0590 C.3       3 GLC5        0.0000 
     34 CA         14.5660   36.8550   22.2120 C.3       6 GLP5        0.0000 
     35 CA         13.4420   37.1220   18.8400 C.3       3 GLC5        0.0000 
     36 CA         11.9030   38.3990   19.7740 C.3       6 GLP5        0.0000 
     37 CA         18.8500   38.6630   16.1205 C.3       3 GLC5        0.0000 
     38 CA         20.2410   37.0910   15.8830 C.3       9 GLL5        0.0000 
     39 CA         17.4590   40.2350   16.3580 C.3       6 GLP5        0.0000 
     40 CA         19.4505   37.7165   14.1320 C.3       3 GLC5        0.0000 
     41 CA         18.6600   38.3420   12.3810 C.3       6 GLP5        0.0000 
     42 N          11.7520   34.2230   15.6855 N.am      2 SEC2        0.0000 
     43 N          13.0870   34.3590   15.1270 N.am      8 SEL2        0.0000 
     44 N          10.4170   34.0870   16.2440 N.am      5 SEP2        0.0000 
     45 O          12.9185   34.8570   17.9475 O.2       1 ALC1        0.0000 
     46 O          13.9540   35.3000   17.0250 O.2       7 ALL1        0.0000 
     47 O          11.8830   34.4140   18.8700 O.2       4 ALP1        0.0000 
     48 CA         13.2750   29.4295    5.6850 C.3       3 GLC5        0.0000 
     49 CA         14.4040   28.5880    7.3480 C.3       9 GLL5        0.0000 
     50 CA         12.1460   30.2710    4.0220 C.3       6 GLP5        0.0000 
     51 CA         14.6515   37.2265    8.4025 C.3       3 GLC5        0.0000 
     52 CA         15.0450   35.0360    8.2210 C.3       9 GLL5        0.0000 
     53 CA         14.2580   39.4170    8.5840 C.3       6 GLP5        0.0000 
     54 CA         16.6175   35.9165    8.0745 C.3       3 GLC5        0.0000 
     55 CA         18.1900   36.7970    7.9280 C.3       6 GLP5        0.0000 
     56 CA         15.4260   35.0555    6.3960 C.3       3 GLC5        0.0000 
     57 CA         15.8070   35.0750    4.5710 C.3       6 GLP5        0.0000 
     58 CA         13.3510   35.8135    7.1305 C.3       3 GLC5        0.0000 
     59 CA         11.6570   36.5910    6.0400 C.3       6 GLP5        0.0000 
     60 CA         13.7170   34.3605    9.1915 C.3       3 GLC5        0.0000 
     61 CA         17.3330   29.0320    4.4095 C.3       3 GLC5        0.0000 
     62 CA         17.0580   28.7870    6.4820 C.3       9 GLL5        0.0000 
     63 CA         17.0680   28.8520    2.4050 C.3       6 GLP5        0.0000 
     64 CA         19.9013   30.6062    6.0067 C.3       3 GLC5        0.0000 
     65 CA         18.1380   29.6370    6.3460 C.3       9 GLL5        0.0000 
     66 CA         21.7010   30.9160    5.4700 C.3       6 GLP5        0.0000 
     67 CA         17.5222   31.0123   11.7417 C.3       3 GLC5        0.0000 
     68 CA         17.4910   29.3750   12.8820 C.3       6 GLP5        0.0000 
     69 CA         18.6964   29.0994    7.9139 C.3       3 GLC5        0.0000 
     70 CA         18.0650   30.9560    6.7410 C.3       9 GLL5        0.0000 
     71 CA         14.1898   31.6608    5.9987 C.3       3 GLC5        0.0000 
     72 CA         15.8170   30.6690    7.4450 C.3       9 GLL5        0.0000 
     73 CA         13.2040   32.4890    4.2870 C.3       6 GLP5        0.0000 
     74 CA         12.8345   31.7897    8.4875 C.3       3 GLC5        0.0000 
     75 CA         14.5340   30.9960    7.9760 C.3       9 GLL5        0.0000 
     76 CA         11.5860   33.0990    8.9830 C.3       6 GLP5        0.0000 
     77 CA         16.7632   36.0750   11.7850 C.3       3 GLC5        0.0000 
     78 CA         17.1970   37.9320   12.3730 C.3       6 GLP5        0.0000 
     79 CA         17.0808   35.5872    8.9947 C.3       3 GLC5        0.0000 
     80 CA         14.1803   34.0312   10.1118 C.3       3 GLC5        0.0000 
     81 CA         15.9940   34.1970    9.3990 C.3       9 GLL5        0.0000 
     82 CA         13.3545   28.6333    9.3875 C.3       3 GLC5        0.0000 
     83 CA         12.6910   27.9900   11.0970 C.3       6 GLP5        0.0000 
     84 CA         15.0353   36.9995   15.5308 C.3       3 GLC5        0.0000 
     85 CA         15.4160   34.8310   15.0410 C.3       9 GLL5        0.0000 
     86 CA         17.6431   32.2154    5.5554 C.3       3 GLC5        0.0000 
     87 CA         16.9090   31.4830    7.2940 C.3       9 GLL5        0.0000 
     88 CA         17.7810   33.5410    4.1920 C.3       6 GLP5        0.0000 
     89 CA         18.6281   34.0439    9.1124 C.3       3 GLC5        0.0000 
     90 CA         16.8110   33.1500    9.0120 C.3       9 GLL5        0.0000 
     91 CA         20.0740   35.1880    8.4180 C.3       6 GLP5        0.0000 
     92 CA         14.2171   35.7720   13.4276 C.3       3 GLC5        0.0000 
     93 CA         15.4230   34.3190   13.7540 C.3       9 GLL5        0.0000 
     94 CA         14.9386   32.8575   14.8226 C.3       3 GLC5        0.0000 
     95 CA         16.0630   37.3072   15.9455 C.3       3 GLC5        0.0000 
     96 CA         16.6660   35.4100   15.5710 C.3       9 GLL5        0.0000 
     97 CA         16.6199   36.4622   13.6786 C.3       3 GLC5        0.0000 
     98 CA         15.4158   34.5737   19.5520 C.3       3 GLC5        0.0000 
     99 CA         15.2200   33.7300   21.1670 C.3       6 GLP5        0.0000 
    100 CA         21.4172   38.7290   16.0142 C.3       3 GLC5        0.0000 
    101 CA         21.8890   40.5960   16.0020 C.3       6 GLP5        0.0000 
@<TRIPOS>BOND
@<TRIPOS>SUBSTRUCTURE
     1 ALC1       45 GROUP        1 X    ALC  0     ROOT ALC X 1
     2 SEC2       42 GROUP        1 X    SEC  0     **** SEC X 2
     3 GLC5        1 GROUP        1 X    GLC  0     **** GLC X 6
     4 ALP1       47 GROUP        1 Y    ALP  0     ROOT ALP Y 8
     5 SEP2       44 GROUP        1 Y    SEP  0     **** SEP Y 9
     6 GLP5        3 GROUP        1 Y    GLP  0     **** GLP Y 13
     7 ALL1       46 GROUP        1 Z    ALL  0     ROOT ALL Z 15
     8 SEL2       43 GROUP        1 Z    SEL  0     **** SEL Z 16
     9 GLL5        2 GROUP        1 Z    GLL  0     **** GLL Z 20
@<TRIPOS>SET

