#    Name: 3w33_W19_1_ligand
#    Modification time : Tue Mar 25 02:09:13 2014

@<TRIPOS>MOLECULE
3w33_W19_1_ligand
   57    61     1     0     0
SMALL
NO_CHARGES


@<TRIPOS>ATOM
      1 C1         18.1380   29.6370    6.3460 C.ar      1 W191101     0.0000 
      2 C2         17.5280   32.8280   11.2660 C.ar      1 W191101     0.0000 
      3 C3         18.0650   30.9560    6.7410 C.ar      1 W191101     0.0000 
      4 C4         17.5790   32.4710    9.9370 C.ar      1 W191101     0.0000 
      5 C5         17.0580   28.7870    6.4820 C.ar      1 W191101     0.0000 
      6 C6         14.5340   30.9960    7.9760 C.2       1 W191101     0.0000 
      7 C7         15.9490   34.5580   10.7240 C.ar      1 W191101     0.0000 
      8 C8         13.6320   29.9650    8.0080 C.2       1 W191101     0.0000 
      9 C9         13.2060   33.8790   13.8920 C.ar      1 W191101     0.0000 
     10 C10        15.8170   30.6690    7.4450 C.ar      1 W191101     0.0000 
     11 C11        15.4160   34.8310   15.0410 C.ar      1 W191101     0.0000 
     12 C12        16.7100   33.8780   11.6700 C.ar      1 W191101     0.0000 
     13 C13        16.9090   31.4830    7.2940 C.ar      1 W191101     0.0000 
     14 C14        16.8110   33.1500    9.0120 C.ar      1 W191101     0.0000 
     15 C15        15.9180   29.3400    7.0420 C.ar      1 W191101     0.0000 
     16 C16        15.9940   34.1970    9.3990 C.ar      1 W191101     0.0000 
     17 C17        14.1950   34.8430   15.7160 C.ar      1 W191101     0.0000 
     18 C18        15.4230   34.3190   13.7540 C.ar      1 W191101     0.0000 
     19 C19        16.6660   35.4100   15.5710 C.2       1 W191101     0.0000 
     20 C20        17.0560   35.4950   16.8450 C.2       1 W191101     0.0000 
     21 C21        18.3500   36.1810   17.1170 C.2       1 W191101     0.0000 
     22 C22        16.2420   34.9900   17.9680 C.3       1 W191101     0.0000 
     23 C23        14.9810   35.8450   17.9060 C.3       1 W191101     0.0000 
     24 C24        20.2410   37.0910   15.8830 C.3       1 W191101     0.0000 
     25 C25        21.6500   36.6330   16.1700 C.3       1 W191101     0.0000 
     26 N26        13.0870   34.3590   15.1270 N.ar      1 W191101     0.0000 
     27 N27        14.3310   33.8280   13.1710 N.ar      1 W191101     0.0000 
     28 N28        13.9540   35.3000   17.0250 N.pl3     1 W191101     0.0000 
     29 N29        16.6390   34.2990   13.0000 N.pl3     1 W191101     0.0000 
     30 N30        19.2900   36.0320   16.1340 N.am      1 W191101     0.0000 
     31 O31        18.5380   36.8390   18.1370 O.2       1 W191101     0.0000 
     32 O32        21.7000   36.2510   17.5370 O.3       1 W191101     0.0000 
     33 O33        16.8660   32.8250    7.6660 O.3       1 W191101     0.0000 
     34 S34        14.4040   28.5880    7.3480 S.3       1 W191101     0.0000 
     35 CL1        15.0450   35.0360    8.2210 Cl        1 W191101     0.0000 
     36 H          19.0236   29.2740    5.9374 H         1 W191101     0.0000 
     37 H          18.0916   32.3228   11.9638 H         1 W191101     0.0000 
     38 H          18.8960   31.5725    6.6222 H         1 W191101     0.0000 
     39 H          18.1894   31.6978    9.6313 H         1 W191101     0.0000 
     40 H          17.0947   27.8273    6.1935 H         1 W191101     0.0000 
     41 H          14.3355   31.9164    8.2936 H         1 W191101     0.0000 
     42 H          15.3458   35.3420   11.0291 H         1 W191101     0.0000 
     43 H          12.7836   29.8400    8.2746 H         1 W191101     0.0000 
     44 H          12.3039   33.4905   13.4217 H         1 W191101     0.0000 
     45 H          17.3096   35.7988   14.7925 H         1 W191101     0.0000 
     46 H          16.7301   35.1555   18.9006 H         1 W191101     0.0000 
     47 H          15.9780   33.9681   17.8215 H         1 W191101     0.0000 
     48 H          15.2743   36.8622   17.5787 H         1 W191101     0.0000 
     49 H          14.5911   35.9531   18.9376 H         1 W191101     0.0000 
     50 H          20.1913   37.4235   14.8344 H         1 W191101     0.0000 
     51 H          20.0268   37.9689   16.5123 H         1 W191101     0.0000 
     52 H          22.3287   37.4566   15.9526 H         1 W191101     0.0000 
     53 H          21.8814   35.8011   15.5063 H         1 W191101     0.0000 
     54 H          12.9832   35.2546   17.4097 H         1 W191101     0.0000 
     55 H          17.5096   34.6179   13.4808 H         1 W191101     0.0000 
     56 H          19.3479   35.1880   15.5604 H         1 W191101     0.0000 
     57 H          20.7654   36.3686   17.8728 H         1 W191101     0.0000 
@<TRIPOS>BOND
     1    3    1 ar   
     2    5    1 ar   
     3   36    1 1    
     4    4    2 ar   
     5   12    2 ar   
     6   37    2 1    
     7   13    3 ar   
     8   38    3 1    
     9   14    4 ar   
    10   39    4 1    
    11   15    5 ar   
    12   40    5 1    
    13    8    6 2    
    14   10    6 1    
    15   41    6 1    
    16   12    7 ar   
    17   16    7 ar   
    18   42    7 1    
    19   34    8 1    
    20   43    8 1    
    21   26    9 ar   
    22   27    9 ar   
    23   44    9 1    
    24   13   10 ar   
    25   15   10 ar   
    26   17   11 ar   
    27   18   11 ar   
    28   19   11 1    
    29   29   12 1    
    30   33   13 1    
    31   16   14 ar   
    32   33   14 1    
    33   34   15 1    
    34   35   16 1    
    35   26   17 ar   
    36   28   17 1    
    37   27   18 ar   
    38   29   18 1    
    39   20   19 2    
    40   45   19 1    
    41   21   20 1    
    42   22   20 1    
    43   30   21 am   
    44   31   21 2    
    45   23   22 1    
    46   46   22 1    
    47   47   22 1    
    48   28   23 1    
    49   48   23 1    
    50   49   23 1    
    51   25   24 1    
    52   30   24 1    
    53   50   24 1    
    54   51   24 1    
    55   32   25 1    
    56   52   25 1    
    57   53   25 1    
    58   54   28 1    
    59   55   29 1    
    60   56   30 1    
    61   57   32 1    
@<TRIPOS>SUBSTRUCTURE
     1 W191101     1 GROUP   
@<TRIPOS>SET

