#    Name: 1xhc_FAD_1_INTS_M
#    Modification time : Tue Mar 25 09:52:39 2014

@<TRIPOS>MOLECULE
1xhc_FAD_1_INTS_M
  128     0    12     0     0
SMALL
NO_CHARGES


@<TRIPOS>ATOM
      1 NZ         34.3480   51.4760   27.5300 N.4       3 LYC4        0.0000 
      2 NZ         34.2780   50.8810   28.8470 N.4      11 LYL4        0.0000 
      3 NZ         33.9340   51.5340   25.1110 N.4       7 LYP4        0.0000 
      4 N          33.0460   51.9790   28.7770 N.am      2 SEC2        0.0000 
      5 N          34.2780   50.8810   28.8470 N.am     10 SEL2        0.0000 
      6 N          31.8140   53.0770   28.7070 N.am      6 SEP2        0.0000 
      7 N          34.3480   51.4760   27.5300 N.am      2 SEC2        0.0000 
      8 N          34.4180   52.0710   26.2130 N.am      6 SEP2        0.0000 
      9 NZ         36.8320   48.9155   28.2840 N.4       3 LYC4        0.0000 
     10 NZ         36.6890   50.1610   28.7900 N.4      11 LYL4        0.0000 
     11 NZ         36.9750   47.6700   27.7780 N.4       7 LYP4        0.0000 
     12 N          36.8320   48.9155   28.2840 N.am      2 SEC2        0.0000 
     13 N          36.6890   50.1610   28.7900 N.am     10 SEL2        0.0000 
     14 N          36.9750   47.6700   27.7780 N.am      6 SEP2        0.0000 
     15 CA         33.6400   51.6975   31.2505 C.3       4 GLC5        0.0000 
     16 CA         34.2500   50.0460   31.7580 C.3      12 GLL5        0.0000 
     17 CA         33.0300   53.3490   30.7430 C.3       8 GLP5        0.0000 
     18 CA         34.5405   48.9155   34.4105 C.3       4 GLC5        0.0000 
     19 CA         34.0740   48.8170   32.6150 C.3      12 GLL5        0.0000 
     20 CA         35.0070   49.0140   36.2060 C.3       8 GLP5        0.0000 
     21 O          34.1200   45.4455   32.9975 O.2       1 ALC1        0.0000 
     22 O          34.5200   46.5360   31.9670 O.2       9 ALL1        0.0000 
     23 O          33.7200   44.3550   34.0280 O.2       5 ALP1        0.0000 
     24 O          34.7995   46.2455   33.1345 O.2       1 ALC1        0.0000 
     25 O          35.0790   45.9550   34.3020 O.2       5 ALP1        0.0000 
     26 CA         30.2615   46.3915   32.2550 C.3       4 GLC5        0.0000 
     27 CA         32.2490   47.2160   32.3020 C.3      12 GLL5        0.0000 
     28 CA         28.2740   45.5670   32.2080 C.3       8 GLP5        0.0000 
     29 O          32.8930   45.0850   33.1610 O.2       1 ALC1        0.0000 
     30 O          32.0660   45.8150   32.2940 O.2       9 ALL1        0.0000 
     31 CA         33.6415   48.4175   34.9465 C.3       4 GLC5        0.0000 
     32 CA         32.2760   47.8210   33.6870 C.3      12 GLL5        0.0000 
     33 CA         28.7360   46.5550   34.5390 C.3       4 GLC5        0.0000 
     34 CA         29.2630   48.3460   35.6190 C.3      12 GLL5        0.0000 
     35 CA         28.2090   44.7640   33.4590 C.3       8 GLP5        0.0000 
     36 CA         29.7855   50.4165   35.9010 C.3       4 GLC5        0.0000 
     37 CA         30.3080   52.4870   36.1830 C.3       8 GLP5        0.0000 
     38 CA         27.2275   46.4355   36.6985 C.3       4 GLC5        0.0000 
     39 CA         28.4810   47.9770   36.6960 C.3      12 GLL5        0.0000 
     40 CA         25.9740   44.8940   36.7010 C.3       8 GLP5        0.0000 
     41 CA         28.2325   48.0440   38.7775 C.3       4 GLC5        0.0000 
     42 CA         27.9840   48.1110   40.8590 C.3       8 GLP5        0.0000 
     43 O          26.3920   48.2955   38.0540 O.2       1 ALC1        0.0000 
     44 O          27.3320   48.5820   36.9480 O.2       9 ALL1        0.0000 
     45 O          25.4520   48.0090   39.1600 O.2       5 ALP1        0.0000 
     46 N          28.2035   46.4770   38.6500 N.am      2 SEC2        0.0000 
     47 N          28.9270   46.9540   37.5100 N.am     10 SEL2        0.0000 
     48 N          27.4800   46.0000   39.7900 N.am      6 SEP2        0.0000 
     49 CA         30.6450   47.9890   38.0515 C.3       4 GLC5        0.0000 
     50 CA         30.1290   46.3100   37.2650 C.3      12 GLL5        0.0000 
     51 CA         31.1610   49.6680   38.8380 C.3       8 GLP5        0.0000 
     52 CA         31.8530   45.3655   37.1470 C.3       4 GLC5        0.0000 
     53 CA         33.5770   44.4210   37.0290 C.3       8 GLP5        0.0000 
     54 CA         29.7535   44.7895   36.1200 C.3       4 GLC5        0.0000 
     55 CA         29.3780   43.2690   34.9750 C.3       8 GLP5        0.0000 
     56 CA         28.7775   45.1190   37.8930 C.3       4 GLC5        0.0000 
     57 CA         27.4260   43.9280   38.5210 C.3       8 GLP5        0.0000 
     58 N          31.2780   45.1160   35.9860 N.am      2 SEC2        0.0000 
     59 N          30.8800   46.6780   36.1740 N.am     10 SEL2        0.0000 
     60 N          31.6760   43.5540   35.7980 N.am      6 SEP2        0.0000 
     61 CA         29.9745   45.8495   34.5265 C.3       4 GLC5        0.0000 
     62 CA         30.4590   47.6690   35.3700 C.3      12 GLL5        0.0000 
     63 CA         29.4900   44.0300   33.6830 C.3       8 GLP5        0.0000 
     64 N          41.6145   54.5470   24.0640 N.am      2 SEC2        0.0000 
     65 N          41.5030   53.9580   22.5380 N.am     10 SEL2        0.0000 
     66 N          41.7260   55.1360   25.5900 N.am      6 SEP2        0.0000 
     67 N          42.4680   55.2345   24.2055 N.am      2 SEC2        0.0000 
     68 N          43.2100   55.3330   22.8210 N.am     10 SEL2        0.0000 
     69 CA         36.6040   46.9800   18.1395 C.3       4 GLC5        0.0000 
     70 CA         37.5050   48.1550   19.1410 C.3      12 GLL5        0.0000 
     71 CA         35.7030   45.8050   17.1380 C.3       8 GLP5        0.0000 
     72 CA         36.5575   49.2270   17.8715 C.3       4 GLC5        0.0000 
     73 CA         35.6100   50.2990   16.6020 C.3       8 GLP5        0.0000 
     74 CA         36.7535   48.8070   23.4690 C.3       4 GLC5        0.0000 
     75 CA         36.0740   49.2220   21.4700 C.3      12 GLL5        0.0000 
     76 CA         37.4330   48.3920   25.4680 C.3       8 GLP5        0.0000 
     77 CA         34.5905   48.1235   21.9755 C.3       4 GLC5        0.0000 
     78 CA         33.1070   47.0250   22.4810 C.3       8 GLP5        0.0000 
     79 CA         37.9050   51.7215   19.7920 C.3       4 GLC5        0.0000 
     80 CA         39.1590   51.3720   21.4340 C.3      12 GLL5        0.0000 
     81 CA         36.6510   52.0710   18.1500 C.3       8 GLP5        0.0000 
     82 CA         38.9500   53.8215   21.4570 C.3       4 GLC5        0.0000 
     83 CA         39.0130   53.0340   23.2930 C.3      12 GLL5        0.0000 
     84 CA         38.8870   54.6090   19.6210 C.3       8 GLP5        0.0000 
     85 CA         39.7625   55.0015   23.9310 C.3       4 GLC5        0.0000 
     86 CA         40.5120   56.9690   24.5690 C.3       8 GLP5        0.0000 
     87 CA         41.1100   52.8020   25.3725 C.3       4 GLC5        0.0000 
     88 CA         39.3520   52.6140   24.6210 C.3      12 GLL5        0.0000 
     89 CA         42.8680   52.9900   26.1240 C.3       8 GLP5        0.0000 
     90 CA         39.4140   55.1355   25.0440 C.3       4 GLC5        0.0000 
     91 CA         38.3160   53.3020   25.5190 C.3      12 GLL5        0.0000 
     92 N          37.1680   54.6960   24.4505 N.am      2 SEC2        0.0000 
     93 N          38.4330   54.6960   25.4920 N.am     10 SEL2        0.0000 
     94 N          35.9030   54.6960   23.4090 N.am      6 SEP2        0.0000 
     95 O          37.3605   55.6615   26.2760 O.2       1 ALC1        0.0000 
     96 O          38.4330   54.6960   25.4920 O.2       9 ALL1        0.0000 
     97 O          36.2880   56.6270   27.0600 O.2       5 ALP1        0.0000 
     98 O          36.8470   54.8280   25.8680 O.2       1 ALC1        0.0000 
     99 O          35.2610   54.9600   26.2440 O.2       5 ALP1        0.0000 
    100 CA         36.0820   54.7015   28.1415 C.3       4 GLC5        0.0000 
    101 CA         37.7180   53.5220   27.9500 C.3      12 GLL5        0.0000 
    102 CA         34.4460   55.8810   28.3330 C.3       8 GLP5        0.0000 
    103 CA         39.2055   54.6550   29.0890 C.3       4 GLC5        0.0000 
    104 CA         40.6930   55.7880   30.2280 C.3       8 GLP5        0.0000 
    105 N          39.5060   52.4980   32.1170 N.am      2 SEC2        0.0000 
    106 N          38.0960   52.4230   31.6360 N.am     10 SEL2        0.0000 
    107 N          40.9160   52.5730   32.5980 N.am      6 SEP2        0.0000 
    108 N          36.2835   55.6995   30.5005 N.am      2 SEC2        0.0000 
    109 N          36.7870   54.3930   30.8670 N.am     10 SEL2        0.0000 
    110 N          35.7800   57.0060   30.1340 N.am      6 SEP2        0.0000 
    111 CA         33.0275   50.9043   33.2082 C.3       4 GLC5        0.0000 
    112 CA         31.8930   52.3770   34.2300 C.3       8 GLP5        0.0000 
    113 CA         30.4133   48.7916   37.3009 C.3       4 GLC5        0.0000 
    114 CA         41.2655   49.6185   20.5682 C.3       4 GLC5        0.0000 
    115 CA         39.8260   50.8790   20.3370 C.3      12 GLL5        0.0000 
    116 CA         42.9680   48.8840   21.1660 C.3       8 GLP5        0.0000 
    117 CA         37.7388   50.9410   19.0619 C.3       4 GLC5        0.0000 
    118 CA         38.0900   49.2690   19.9770 C.3      12 GLL5        0.0000 
    119 CA         36.4072   51.2163   20.2935 C.3       4 GLC5        0.0000 
    120 CA         37.3980   49.7760   21.0560 C.3      12 GLL5        0.0000 
    121 CA         35.4780   52.2750   19.0540 C.3       8 GLP5        0.0000 
    122 CA         38.9646   49.4345   22.7654 C.3       4 GLC5        0.0000 
    123 CA         39.5160   48.0350   24.0990 C.3       8 GLP5        0.0000 
    124 CA         40.4015   53.7065   26.4350 C.3       4 GLC5        0.0000 
    125 CA         42.3770   54.3650   26.6570 C.3       8 GLP5        0.0000 
    126 CA         39.6245   52.2825   28.3402 C.3       4 GLC5        0.0000 
    127 CA         38.5360   52.7940   26.9070 C.3      12 GLL5        0.0000 
    128 CA         41.1220   51.4070   29.2520 C.3       8 GLP5        0.0000 
@<TRIPOS>BOND
@<TRIPOS>SUBSTRUCTURE
     1 ALC1       21 GROUP        1 X    ALC  0     ROOT ALC X 1
     2 SEC2        4 GROUP        1 X    SEC  0     **** SEC X 2
     3 LYC4        1 GROUP        1 X    LYC  0     **** LYC X 4
     4 GLC5       15 GROUP        1 X    GLC  0     **** GLC X 6
     5 ALP1       23 GROUP        1 Y    ALP  0     ROOT ALP Y 8
     6 SEP2        6 GROUP        1 Y    SEP  0     **** SEP Y 9
     7 LYP4        3 GROUP        1 Y    LYP  0     **** LYP Y 11
     8 GLP5       17 GROUP        1 Y    GLP  0     **** GLP Y 13
     9 ALL1       22 GROUP        1 Z    ALL  0     ROOT ALL Z 15
    10 SEL2        5 GROUP        1 Z    SEL  0     **** SEL Z 16
    11 LYL4        2 GROUP        1 Z    LYL  0     **** LYL Z 18
    12 GLL5       16 GROUP        1 Z    GLL  0     **** GLL Z 20
@<TRIPOS>SET

