#    Name: 3v5l_0G1_1_INTS_M
#    Modification time : Tue Mar 25 00:04:08 2014

@<TRIPOS>MOLECULE
3v5l_0G1_1_INTS_M
   74     0     9     0     0
SMALL
NO_CHARGES


@<TRIPOS>ATOM
      1 CA         13.0450    9.3590   -1.3255 C.3       3 GLC5        0.0000 
      2 CA         14.0830    8.7330    0.4150 C.3       9 GLL5        0.0000 
      3 CA         12.0070    9.9850   -3.0660 C.3       6 GLP5        0.0000 
      4 CA         11.9590    9.2090   -0.9970 C.3       3 GLC5        0.0000 
      5 CA         11.9110    8.4330    1.0720 C.3       9 GLL5        0.0000 
      6 CA         10.7055    9.6275   -1.3880 C.3       3 GLC5        0.0000 
      7 CA         10.9080    9.0040    0.2900 C.3       9 GLL5        0.0000 
      8 CA         10.5030   10.2510   -3.0660 C.3       6 GLP5        0.0000 
      9 CA          4.4680    3.6240    4.6780 C.3       3 GLC5        0.0000 
     10 CA          4.0250    5.5430    4.8760 C.3       9 GLL5        0.0000 
     11 CA          4.9110    1.7050    4.4800 C.3       6 GLP5        0.0000 
     12 CA          5.8645    4.7990    4.0845 C.3       3 GLC5        0.0000 
     13 CA          7.7040    4.0550    3.2930 C.3       6 GLP5        0.0000 
     14 CA          1.2195    7.7425   -1.4020 C.3       3 GLC5        0.0000 
     15 CA          2.0640    7.4790    0.6360 C.3       9 GLL5        0.0000 
     16 CA          0.3750    8.0060   -3.4400 C.3       6 GLP5        0.0000 
     17 CA          2.5180    5.8825   -0.3940 C.3       3 GLC5        0.0000 
     18 CA          2.9720    4.2860   -1.4240 C.3       6 GLP5        0.0000 
     19 CA          0.5565    6.3145   -0.0670 C.3       3 GLC5        0.0000 
     20 CA         -0.9510    5.1500   -0.7700 C.3       6 GLP5        0.0000 
     21 O           2.7085    3.8535    2.5545 O.2       1 ALC1        0.0000 
     22 O           2.5320    5.3190    2.4010 O.2       7 ALL1        0.0000 
     23 O           2.8850    2.3880    2.7080 O.2       4 ALP1        0.0000 
     24 O           6.3405    3.5075    0.0720 O.2       1 ALC1        0.0000 
     25 O           6.9070    4.7780   -0.2400 O.2       7 ALL1        0.0000 
     26 O           5.7740    2.2370    0.3840 O.2       4 ALP1        0.0000 
     27 CA          9.8400    4.1145    0.2795 C.3       3 GLC5        0.0000 
     28 CA          8.1770    5.1410   -0.4440 C.3       9 GLL5        0.0000 
     29 CA         11.5030    3.0880    1.0030 C.3       6 GLP5        0.0000 
     30 O           9.1365    2.2055   -3.9605 O.2       1 ALC1        0.0000 
     31 O           9.5780    2.9980   -2.7760 O.2       7 ALL1        0.0000 
     32 O           8.6950    1.4130   -5.1450 O.2       4 ALP1        0.0000 
     33 N           7.6470    2.2690   -2.1040 N.am      2 SEC2        0.0000 
     34 N           8.6830    3.3640   -2.0070 N.am      8 SEL2        0.0000 
     35 N           6.6110    1.1740   -2.2010 N.am      5 SEP2        0.0000 
     36 CA         11.6630    6.0940    3.0928 C.3       3 GLC5        0.0000 
     37 CA         10.5550    6.4540    1.3510 C.3       9 GLL5        0.0000 
     38 CA         12.1800    5.3850    4.7110 C.3       6 GLP5        0.0000 
     39 CA          8.8822    5.3933    2.1183 C.3       3 GLC5        0.0000 
     40 CA          9.9082   10.6020    0.4098 C.3       3 GLC5        0.0000 
     41 CA          9.7290    8.3000    0.0350 C.3       9 GLL5        0.0000 
     42 CA          9.4980   12.5520    0.6570 C.3       6 GLP5        0.0000 
     43 CA          7.9603    7.8798   -0.8797 C.3       3 GLC5        0.0000 
     44 CA          6.2730    8.1050   -2.0450 C.3       6 GLP5        0.0000 
     45 CA          9.6992    8.3208   -1.6042 C.3       3 GLC5        0.0000 
     46 CA          9.7510    8.9870   -3.4940 C.3       6 GLP5        0.0000 
     47 CA         10.9295    4.9970    1.0041 C.3       3 GLC5        0.0000 
     48 CA          9.5660    7.0090    0.5360 C.3       9 GLL5        0.0000 
     49 CA          5.8598    8.8507    0.8060 C.3       3 GLC5        0.0000 
     50 CA          6.8620    7.5220    1.9710 C.3       9 GLL5        0.0000 
     51 CA          5.5050   10.1800   -0.6220 C.3       6 GLP5        0.0000 
     52 CA          6.9592    5.7882    2.7635 C.3       3 GLC5        0.0000 
     53 CA          6.2680    5.0572    2.4668 C.3       3 GLC5        0.0000 
     54 CA          5.0230    5.5730    1.1760 C.3       9 GLL5        0.0000 
     55 CA          3.1150    8.8373    0.2600 C.3       3 GLC5        0.0000 
     56 CA          2.4140    7.7140    2.1080 C.3       9 GLL5        0.0000 
     57 CA          3.9910   10.0780   -0.8520 C.3       6 GLP5        0.0000 
     58 CA          0.2710    7.9468    1.8665 C.3       3 GLC5        0.0000 
     59 CA         -1.6970    8.2970    2.3610 C.3       6 GLP5        0.0000 
     60 CA          5.9695    6.8418   -0.5702 C.3       3 GLC5        0.0000 
     61 CA          7.1329    6.9443   -0.9650 C.3       3 GLC5        0.0000 
     62 CA          8.3890    6.3000    0.3150 C.3       9 GLL5        0.0000 
     63 CA          7.6609    4.8140    1.6989 C.3       3 GLC5        0.0000 
     64 CA         10.3355    7.1860   -2.6730 C.3       3 GLC5        0.0000 
     65 CA         10.2630    4.8540   -1.8620 C.3       9 GLL5        0.0000 
     66 CA         11.2115    4.2365   -0.4245 C.3       3 GLC5        0.0000 
     67 CA          9.7631    4.7280   -3.9281 C.3       3 GLC5        0.0000 
     68 CA         11.8110    4.0290   -3.3620 C.3       9 GLL5        0.0000 
     69 CA          8.4030    5.2660   -5.0170 C.3       6 GLP5        0.0000 
     70 CA         11.3708    3.5168   -4.9977 C.3       3 GLC5        0.0000 
     71 CA         10.6080    3.8480   -2.7710 C.3       9 GLL5        0.0000 
     72 CA         11.5320    3.0950   -6.9290 C.3       6 GLP5        0.0000 
     73 CA         11.8931    2.8960   -1.8634 C.3       3 GLC5        0.0000 
     74 CA         12.4010    1.5840   -0.7540 C.3       6 GLP5        0.0000 
@<TRIPOS>BOND
@<TRIPOS>SUBSTRUCTURE
     1 ALC1       21 GROUP        1 X    ALC  0     ROOT ALC X 1
     2 SEC2       33 GROUP        1 X    SEC  0     **** SEC X 2
     3 GLC5        1 GROUP        1 X    GLC  0     **** GLC X 6
     4 ALP1       23 GROUP        1 Y    ALP  0     ROOT ALP Y 8
     5 SEP2       35 GROUP        1 Y    SEP  0     **** SEP Y 9
     6 GLP5        3 GROUP        1 Y    GLP  0     **** GLP Y 13
     7 ALL1       22 GROUP        1 Z    ALL  0     ROOT ALL Z 15
     8 SEL2       34 GROUP        1 Z    SEL  0     **** SEL Z 16
     9 GLL5        2 GROUP        1 Z    GLL  0     **** GLL Z 20
@<TRIPOS>SET

