#    Name: 3v5l_0G1_1_ligand
#    Modification time : Tue Mar 25 00:04:09 2014

@<TRIPOS>MOLECULE
3v5l_0G1_1_ligand
   56    60     1     0     0
SMALL
NO_CHARGES


@<TRIPOS>ATOM
      1 CBE        14.0830    8.7330    0.4150 C.3       1 0G1701      0.0000 
      2 OBD        13.0540    9.1270    1.3270 O.3       1 0G1701      0.0000 
      3 CBA        11.9110    8.4330    1.0720 C.ar      1 0G1701      0.0000 
      4 CBB        11.7370    7.1520    1.5980 C.ar      1 0G1701      0.0000 
      5 CBC        10.5550    6.4540    1.3510 C.ar      1 0G1701      0.0000 
      6 CAZ        10.9080    9.0040    0.2900 C.ar      1 0G1701      0.0000 
      7 CAY         9.7290    8.3000    0.0350 C.ar      1 0G1701      0.0000 
      8 CAX         9.5660    7.0090    0.5360 C.ar      1 0G1701      0.0000 
      9 CAG         8.3890    6.3000    0.3150 C.2       1 0G1701      0.0000 
     10 CAH         7.2280    6.5520    1.0330 C.ar      1 0G1701      0.0000 
     11 CAA         6.8620    7.5220    1.9710 C.ar      1 0G1701      0.0000 
     12 CAB         5.5670    7.5210    2.4970 C.ar      1 0G1701      0.0000 
     13 CAC         4.6410    6.5460    2.1050 C.ar      1 0G1701      0.0000 
     14 CAJ         3.2120    6.5460    2.6950 C.3       1 0G1701      0.0000 
     15 CAK         3.2760    6.7070    4.2180 C.3       1 0G1701      0.0000 
     16 CAO         4.0250    5.5430    4.8760 C.3       1 0G1701      0.0000 
     17 CAM         2.4140    7.7140    2.1080 C.3       1 0G1701      0.0000 
     18 CAN         2.0640    7.4790    0.6360 C.3       1 0G1701      0.0000 
     19 OAL         2.5320    5.3190    2.4010 O.3       1 0G1701      0.0000 
     20 CAD         5.0230    5.5730    1.1760 C.ar      1 0G1701      0.0000 
     21 CAI         6.3090    5.5840    0.6330 C.ar      1 0G1701      0.0000 
     22 NAE         6.9070    4.7780   -0.2400 N.pl3     1 0G1701      0.0000 
     23 CAF         8.1770    5.1410   -0.4440 C.2       1 0G1701      0.0000 
     24 CAP         9.0170    4.4830   -1.3600 C.2       1 0G1701      0.0000 
     25 CAT        10.2630    4.8540   -1.8620 C.2       1 0G1701      0.0000 
     26 SAS        11.5770    5.9160   -1.8420 S.3       1 0G1701      0.0000 
     27 CAW        12.5140    5.1070   -2.9870 C.2       1 0G1701      0.0000 
     28 CAV        11.8110    4.0290   -3.3620 C.2       1 0G1701      0.0000 
     29 CAU        10.6080    3.8480   -2.7710 C.2       1 0G1701      0.0000 
     30 NAR         9.5780    2.9980   -2.7760 N.pl3     1 0G1701      0.0000 
     31 NAQ         8.6830    3.3640   -2.0070 N.2       1 0G1701      0.0000 
     32 H          12.4774    6.7249    2.1653 H         1 0G1701      0.0000 
     33 H          10.4103    5.5260    1.7707 H         1 0G1701      0.0000 
     34 H          11.0355    9.9464   -0.1008 H         1 0G1701      0.0000 
     35 H           8.9832    8.7338   -0.5212 H         1 0G1701      0.0000 
     36 H           7.5386    8.2288    2.2707 H         1 0G1701      0.0000 
     37 H           5.2906    8.2416    3.1776 H         1 0G1701      0.0000 
     38 H           2.2614    6.7504    4.6161 H         1 0G1701      0.0000 
     39 H           3.7850    7.6414    4.4579 H         1 0G1701      0.0000 
     40 H           3.0032    8.6292    2.1943 H         1 0G1701      0.0000 
     41 H           1.4923    7.8408    2.6795 H         1 0G1701      0.0000 
     42 H           4.3528    4.8467    0.8923 H         1 0G1701      0.0000 
     43 H           6.4707    4.0077   -0.6833 H         1 0G1701      0.0000 
     44 H          13.3105    5.4873   -3.1781 H         1 0G1701      0.0000 
     45 H          12.1623    3.3715   -4.0609 H         1 0G1701      0.0000 
     46 H           9.5834    2.1711   -3.3580 H         1 0G1701      0.0000 
     47 H          14.9362    9.2273    0.5816 H         1 0G1701      0.0000 
     48 H          14.2904    7.7575    0.4880 H         1 0G1701      0.0000 
     49 H          13.8240    8.9073   -0.5350 H         1 0G1701      0.0000 
     50 H           4.9672    5.4749    4.5480 H         1 0G1701      0.0000 
     51 H           4.0672    5.6431    5.8701 H         1 0G1701      0.0000 
     52 H           3.5851    4.6648    4.6883 H         1 0G1701      0.0000 
     53 H           2.8828    7.3709    0.0722 H         1 0G1701      0.0000 
     54 H           1.5122    6.6542    0.5126 H         1 0G1701      0.0000 
     55 H           1.5423    8.2409    0.2521 H         1 0G1701      0.0000 
     56 H           3.0159    4.6219    2.9300 H         1 0G1701      0.0000 
@<TRIPOS>BOND
     1    2    1 1    
     2   47    1 1    
     3   48    1 1    
     4   49    1 1    
     5    3    2 1    
     6    4    3 ar   
     7    6    3 ar   
     8    5    4 ar   
     9   32    4 1    
    10    8    5 ar   
    11   33    5 1    
    12    7    6 ar   
    13   34    6 1    
    14    8    7 ar   
    15   35    7 1    
    16    9    8 1    
    17   10    9 1    
    18   23    9 2    
    19   11   10 ar   
    20   21   10 ar   
    21   12   11 ar   
    22   36   11 1    
    23   13   12 ar   
    24   37   12 1    
    25   14   13 1    
    26   20   13 ar   
    27   15   14 1    
    28   17   14 1    
    29   19   14 1    
    30   16   15 1    
    31   38   15 1    
    32   39   15 1    
    33   50   16 1    
    34   51   16 1    
    35   52   16 1    
    36   18   17 1    
    37   40   17 1    
    38   41   17 1    
    39   53   18 1    
    40   54   18 1    
    41   55   18 1    
    42   56   19 1    
    43   21   20 ar   
    44   42   20 1    
    45   22   21 1    
    46   23   22 1    
    47   43   22 1    
    48   24   23 1    
    49   25   24 1    
    50   31   24 2    
    51   26   25 1    
    52   29   25 2    
    53   27   26 1    
    54   28   27 2    
    55   44   27 1    
    56   29   28 1    
    57   45   28 1    
    58   30   29 1    
    59   31   30 1    
    60   46   30 1    
@<TRIPOS>SUBSTRUCTURE
     1 0G1701      1 GROUP   
@<TRIPOS>SET

