#    Name: 3f63_GTX_1_INTS_M
#    Modification time : Tue Mar 25 03:15:59 2014

@<TRIPOS>MOLECULE
3f63_GTX_1_INTS_M
   63     0    15     0     0
SMALL
NO_CHARGES


@<TRIPOS>ATOM
      1 OD1        -3.8510   18.2610   27.6480 O.co2     3 ASC3        0.0000 
      2 OD1        -3.0910   19.1420   28.3890 O.co2    13 ASL3        0.0000 
      3 OD1        -4.6110   17.3800   26.9070 O.co2     8 ASP3        0.0000 
      4 O          -3.8510   18.2610   27.6480 O.2       1 ALC1        0.0000 
      5 O          -3.0910   19.1420   28.3890 O.2      11 ALL1        0.0000 
      6 O          -4.6110   17.3800   26.9070 O.2       6 ALP1        0.0000 
      7 CA         -3.6190   16.1965   28.9145 C.3       5 GLC5        0.0000 
      8 CA         -2.6380   18.1420   29.3690 C.3      15 GLL5        0.0000 
      9 CA         -4.6000   14.2510   28.4600 C.3      10 GLP5        0.0000 
     10 N          -4.9180   15.8015   30.4425 N.am      2 SEC2        0.0000 
     11 N          -3.7530   16.5150   30.7400 N.am     12 SEL2        0.0000 
     12 N          -6.0830   15.0880   30.1450 N.am      7 SEP2        0.0000 
     13 NZ         -6.2670   19.5855   29.6645 N.4       4 LYC4        0.0000 
     14 NZ         -4.8660   18.3070   30.2660 N.4      14 LYL4        0.0000 
     15 NZ         -7.6680   20.8640   29.0630 N.4       9 LYP4        0.0000 
     16 N          -5.4745   16.6975   30.2055 N.am      2 SEC2        0.0000 
     17 N          -4.8660   18.3070   30.2660 N.am     12 SEL2        0.0000 
     18 N          -6.0620   17.9305   30.7010 N.am      2 SEC2        0.0000 
     19 N          -7.2580   17.5540   31.1360 N.am      7 SEP2        0.0000 
     20 CA          0.6715   16.3140   31.0640 C.3       5 GLC5        0.0000 
     21 CA         -0.8590   17.7290   31.0980 C.3      15 GLL5        0.0000 
     22 CA          2.2020   14.8990   31.0300 C.3      10 GLP5        0.0000 
     23 O          -0.2605   17.2405   33.5175 O.2       1 ALC1        0.0000 
     24 O           0.5490   18.2810   33.0310 O.2      11 ALL1        0.0000 
     25 O          -1.0700   16.2000   34.0040 O.2       6 ALP1        0.0000 
     26 N           1.8860   15.5575   33.9090 N.am      2 SEC2        0.0000 
     27 N           2.7040   16.6830   33.9400 N.am     12 SEL2        0.0000 
     28 N           1.0680   14.4320   33.8780 N.am      7 SEP2        0.0000 
     29 CA          1.0750   17.3750   35.8975 C.3       5 GLC5        0.0000 
     30 CA          1.3400   19.2200   35.1240 C.3      15 GLL5        0.0000 
     31 CA          0.8100   15.5300   36.6710 C.3      10 GLP5        0.0000 
     32 CA         -1.1375   19.6775   36.7635 C.3       5 GLC5        0.0000 
     33 CA         -0.1480   20.2620   35.2400 C.3      15 GLL5        0.0000 
     34 CA         -2.1270   19.0930   38.2870 C.3      10 GLP5        0.0000 
     35 CA         -1.9285   19.7565   34.5625 C.3       5 GLC5        0.0000 
     36 CA         -3.7090   19.2510   33.8850 C.3      10 GLP5        0.0000 
     37 CA          1.2770   23.8040   34.7060 C.3       5 GLC5        0.0000 
     38 CA          0.8150   21.7890   35.4190 C.3      15 GLL5        0.0000 
     39 CA          1.7390   25.8190   33.9930 C.3      10 GLP5        0.0000 
     40 CA          3.3965   24.4500   37.4975 C.3       5 GLC5        0.0000 
     41 CA          2.4310   23.0520   36.9500 C.3      15 GLL5        0.0000 
     42 CA          4.3620   25.8480   38.0450 C.3      10 GLP5        0.0000 
     43 CA          4.0595   24.5275   36.3440 C.3       5 GLC5        0.0000 
     44 CA          3.5810   22.7840   35.9690 C.3      15 GLL5        0.0000 
     45 CA          4.5380   26.2710   36.7190 C.3      10 GLP5        0.0000 
     46 CA          4.4240   23.7475   37.2490 C.3       5 GLC5        0.0000 
     47 CA          4.4860   21.6470   36.4530 C.3      15 GLL5        0.0000 
     48 CA          4.6285   17.8655   35.2815 C.3       5 GLC5        0.0000 
     49 CA          5.3270   17.8260   33.3160 C.3      15 GLL5        0.0000 
     50 CA          3.9300   17.9050   37.2470 C.3      10 GLP5        0.0000 
     51 CA          6.4100   16.2890   33.8910 C.3       5 GLC5        0.0000 
     52 CA          7.4930   14.7520   34.4660 C.3      10 GLP5        0.0000 
     53 N           7.2360   15.6665   31.0210 N.am      2 SEC2        0.0000 
     54 N           6.8080   16.9370   31.6680 N.am     12 SEL2        0.0000 
     55 N           7.6640   14.3960   30.3740 N.am      7 SEP2        0.0000 
     56 CA         -2.4743   18.7558   32.2950 C.3       5 GLC5        0.0000 
     57 CA          2.7228   18.4877   35.8218 C.3       5 GLC5        0.0000 
     58 CA          1.6910   18.9210   33.6690 C.3      15 GLL5        0.0000 
     59 CA          1.0875   23.7120   38.2045 C.3       5 GLC5        0.0000 
     60 CA          1.3010   22.0280   36.8500 C.3      15 GLL5        0.0000 
     61 CA          0.3090   24.8840   39.5090 C.3      10 GLP5        0.0000 
     62 CA          2.3725   24.3685   35.2263 C.3       5 GLC5        0.0000 
     63 CA          4.5165   19.7353   36.6290 C.3       5 GLC5        0.0000 
@<TRIPOS>BOND
@<TRIPOS>SUBSTRUCTURE
     1 ALC1        4 GROUP        1 X    ALC  0     ROOT ALC X 1
     2 SEC2       10 GROUP        1 X    SEC  0     **** SEC X 2
     3 ASC3        1 GROUP        1 X    ASC  0     **** ASC X 3
     4 LYC4       13 GROUP        1 X    LYC  0     **** LYC X 4
     5 GLC5        7 GROUP        1 X    GLC  0     **** GLC X 6
     6 ALP1        6 GROUP        1 Y    ALP  0     ROOT ALP Y 8
     7 SEP2       12 GROUP        1 Y    SEP  0     **** SEP Y 9
     8 ASP3        3 GROUP        1 Y    ASP  0     **** ASP Y 10
     9 LYP4       15 GROUP        1 Y    LYP  0     **** LYP Y 11
    10 GLP5        9 GROUP        1 Y    GLP  0     **** GLP Y 13
    11 ALL1        5 GROUP        1 Z    ALL  0     ROOT ALL Z 15
    12 SEL2       11 GROUP        1 Z    SEL  0     **** SEL Z 16
    13 ASL3        2 GROUP        1 Z    ASL  0     **** ASL Z 17
    14 LYL4       14 GROUP        1 Z    LYL  0     **** LYL Z 18
    15 GLL5        8 GROUP        1 Z    GLL  0     **** GLL Z 20
@<TRIPOS>SET

