#    Name: 3f63_GTX_1_ligand
#    Modification time : Tue Mar 25 03:16:00 2014

@<TRIPOS>MOLECULE
3f63_GTX_1_ligand
   54    53     1     0     0
SMALL
NO_CHARGES


@<TRIPOS>ATOM
      1 N1         -3.0910   19.1420   28.3890 N.4       1 GTX220      0.0000 
      2 CA1        -2.6380   18.1420   29.3690 C.3       1 GTX220      0.0000 
      3 C1         -3.8130   17.6290   30.1660 C.2       1 GTX220      0.0000 
      4 O11        -3.7530   16.5150   30.7400 O.co2     1 GTX220      0.0000 
      5 O12        -4.8660   18.3070   30.2660 O.co2     1 GTX220      0.0000 
      6 CB1        -1.6200   18.7920   30.3120 C.3       1 GTX220      0.0000 
      7 CG1        -0.8590   17.7290   31.0980 C.3       1 GTX220      0.0000 
      8 CD1         0.4070   18.3030   31.6950 C.2       1 GTX220      0.0000 
      9 OE1         1.3920   18.7790   30.8140 O.2       1 GTX220      0.0000 
     10 N2          0.5490   18.2810   33.0310 N.am      1 GTX220      0.0000 
     11 CA2         1.6910   18.9210   33.6690 C.3       1 GTX220      0.0000 
     12 C2          2.9060   18.0350   33.6550 C.2       1 GTX220      0.0000 
     13 O2          2.7040   16.6830   33.9400 O.2       1 GTX220      0.0000 
     14 CB2         1.3400   19.2200   35.1240 C.3       1 GTX220      0.0000 
     15 SG2        -0.1480   20.2620   35.2400 S.3       1 GTX220      0.0000 
     16 C1S         0.8150   21.7890   35.4190 C.3       1 GTX220      0.0000 
     17 C2S         1.3010   22.0280   36.8500 C.3       1 GTX220      0.0000 
     18 C3S         2.4310   23.0520   36.9500 C.3       1 GTX220      0.0000 
     19 C4S         3.5810   22.7840   35.9690 C.3       1 GTX220      0.0000 
     20 C5S         4.4860   21.6470   36.4530 C.3       1 GTX220      0.0000 
     21 C6S         5.7200   21.4840   35.5690 C.3       1 GTX220      0.0000 
     22 N3          4.0950   18.6020   33.3940 N.am      1 GTX220      0.0000 
     23 CA3         5.3270   17.8260   33.3160 C.3       1 GTX220      0.0000 
     24 C3          5.6640   17.3870   31.9070 C.2       1 GTX220      0.0000 
     25 O31         6.8080   16.9370   31.6680 O.co2     1 GTX220      0.0000 
     26 O32         4.8290   17.4660   30.9710 O.co2     1 GTX220      0.0000 
     27 H          -2.1606   17.3206   28.8714 H         1 GTX220      0.0000 
     28 H          -2.1434   19.4479   31.0043 H         1 GTX220      0.0000 
     29 H          -0.9173   19.3810   29.7267 H         1 GTX220      0.0000 
     30 H          -0.6069   16.9041   30.4302 H         1 GTX220      0.0000 
     31 H          -1.4992   17.3485   31.8951 H         1 GTX220      0.0000 
     32 H          -0.1309   17.8189   33.6542 H         1 GTX220      0.0000 
     33 H           1.9275   19.8539   33.1903 H         1 GTX220      0.0000 
     34 H           2.0692   19.8110   35.6292 H         1 GTX220      0.0000 
     35 H           1.0561   18.3582   35.6833 H         1 GTX220      0.0000 
     36 H           0.1266   22.5367   35.0711 H         1 GTX220      0.0000 
     37 H           1.6135   21.6407   34.7158 H         1 GTX220      0.0000 
     38 H           1.6451   21.0725   37.2742 H         1 GTX220      0.0000 
     39 H           0.4528   22.3698   37.4624 H         1 GTX220      0.0000 
     40 H           2.8299   23.0485   37.9735 H         1 GTX220      0.0000 
     41 H           2.0260   24.0545   36.7563 H         1 GTX220      0.0000 
     42 H           4.1747   23.6931   35.8590 H         1 GTX220      0.0000 
     43 H           3.1646   22.5213   34.9950 H         1 GTX220      0.0000 
     44 H           3.9169   20.7135   36.4527 H         1 GTX220      0.0000 
     45 H           4.8026   21.8551   37.4785 H         1 GTX220      0.0000 
     46 H           4.1916   19.6275   33.2346 H         1 GTX220      0.0000 
     47 H           5.2555   16.9220   33.9526 H         1 GTX220      0.0000 
     48 H           6.1799   18.4140   33.7088 H         1 GTX220      0.0000 
     49 H          -2.3317   19.4996   27.8453 H         1 GTX220      0.0000 
     50 H          -3.7558   18.7589   27.7477 H         1 GTX220      0.0000 
     51 H          -3.5284   19.9246   28.8320 H         1 GTX220      0.0000 
     52 H           6.2775   22.3140   35.5527 H         1 GTX220      0.0000 
     53 H           6.3093   20.7413   35.8871 H         1 GTX220      0.0000 
     54 H           5.4738   21.2777   34.6220 H         1 GTX220      0.0000 
@<TRIPOS>BOND
     1    2    1 1    
     2   49    1 1    
     3   50    1 1    
     4   51    1 1    
     5    3    2 1    
     6    6    2 1    
     7   27    2 1    
     8    4    3 ar   
     9    5    3 ar   
    10    7    6 1    
    11   28    6 1    
    12   29    6 1    
    13    8    7 1    
    14   30    7 1    
    15   31    7 1    
    16    9    8 2    
    17   10    8 am   
    18   11   10 1    
    19   32   10 1    
    20   12   11 1    
    21   14   11 1    
    22   33   11 1    
    23   13   12 2    
    24   22   12 am   
    25   15   14 1    
    26   34   14 1    
    27   35   14 1    
    28   16   15 1    
    29   17   16 1    
    30   36   16 1    
    31   37   16 1    
    32   18   17 1    
    33   38   17 1    
    34   39   17 1    
    35   19   18 1    
    36   40   18 1    
    37   41   18 1    
    38   20   19 1    
    39   42   19 1    
    40   43   19 1    
    41   21   20 1    
    42   44   20 1    
    43   45   20 1    
    44   52   21 1    
    45   53   21 1    
    46   54   21 1    
    47   23   22 1    
    48   46   22 1    
    49   24   23 1    
    50   47   23 1    
    51   48   23 1    
    52   25   24 ar   
    53   26   24 ar   
@<TRIPOS>SUBSTRUCTURE
     1 GTX220      1 GROUP   
@<TRIPOS>SET

