#    Name: 3sp9_IL2_1_INTS_M
#    Modification time : Mon Mar 24 18:01:03 2014

@<TRIPOS>MOLECULE
3sp9_IL2_1_INTS_M
   92     0     9     0     0
SMALL
NO_CHARGES


@<TRIPOS>ATOM
      1 O          22.0995   -1.7965    4.7110 O.2       1 ALC1        0.0000 
      2 O          23.1820   -1.7110    5.7200 O.2       7 ALL1        0.0000 
      3 O          21.0170   -1.8820    3.7020 O.2       4 ALP1        0.0000 
      4 O          26.9530   -4.6650    4.7115 O.2       1 ALC1        0.0000 
      5 O          27.9370   -3.7310    5.1990 O.2       7 ALL1        0.0000 
      6 O          25.9690   -5.5990    4.2240 O.2       4 ALP1        0.0000 
      7 N          17.7610    0.7880    2.0415 N.am      2 SEC2        0.0000 
      8 N          18.7010    0.7100    0.9060 N.am      8 SEL2        0.0000 
      9 N          16.8210    0.8660    3.1770 N.am      5 SEP2        0.0000 
     10 N          18.4530    2.0535    0.9750 N.am      2 SEC2        0.0000 
     11 N          18.2050    3.3970    1.0440 N.am      5 SEP2        0.0000 
     12 N          17.9795    0.4525   -0.1880 N.am      2 SEC2        0.0000 
     13 N          17.2580    0.1950   -1.2820 N.am      5 SEP2        0.0000 
     14 N          20.5320   -0.7940    3.1315 N.am      2 SEC2        0.0000 
     15 N          20.0470    0.2940    2.5610 N.am      8 SEL2        0.0000 
     16 N          21.0170   -1.8820    3.7020 N.am      5 SEP2        0.0000 
     17 N          18.4340    0.5800    2.8690 N.am      2 SEC2        0.0000 
     18 CA         25.0970    0.2040    7.6110 C.3       3 GLC5        0.0000 
     19 CA         23.8780   -0.4620    5.8850 C.3       9 GLL5        0.0000 
     20 CA         26.3160    0.8700    9.3370 C.3       6 GLP5        0.0000 
     21 CA         26.1930    0.5305    1.7555 C.3       3 GLC5        0.0000 
     22 CA         25.3070    1.7040    3.1470 C.3       9 GLL5        0.0000 
     23 CA         27.0790   -0.6430    0.3640 C.3       6 GLP5        0.0000 
     24 CA         28.1355   -0.0160    6.0695 C.3       3 GLC5        0.0000 
     25 CA         26.2920   -0.7910    5.1080 C.3       9 GLL5        0.0000 
     26 CA         29.9790    0.7590    7.0310 C.3       6 GLP5        0.0000 
     27 CA         26.0885   -2.3385    2.5390 C.3       3 GLC5        0.0000 
     28 CA         26.7470   -1.8200    4.3920 C.3       9 GLL5        0.0000 
     29 CA         25.4300   -2.8570    0.6860 C.3       6 GLP5        0.0000 
     30 CA         23.6260   -0.2960    0.0335 C.3       3 GLC5        0.0000 
     31 CA         21.7850    0.8050   -0.1650 C.3       9 GLL5        0.0000 
     32 CA         25.4670   -1.3970    0.2320 C.3       6 GLP5        0.0000 
     33 CA         21.4275   -2.1970    0.0060 C.3       3 GLC5        0.0000 
     34 CA         20.8340   -0.2660    0.3720 C.3       9 GLL5        0.0000 
     35 CA         22.0210   -4.1280   -0.3600 C.3       6 GLP5        0.0000 
     36 CA         20.4840   -1.6270    1.9300 C.3       3 GLC5        0.0000 
     37 CA         20.1340   -2.9880    3.4880 C.3       6 GLP5        0.0000 
     38 CA         19.4790   -1.7455   -0.0545 C.3       3 GLC5        0.0000 
     39 CA         18.1240   -3.2250   -0.4810 C.3       6 GLP5        0.0000 
     40 CA         28.6330   -4.8355    1.0510 C.3       3 GLC5        0.0000 
     41 CA         28.6450   -4.0260    2.7170 C.3       9 GLL5        0.0000 
     42 CA         28.6210   -5.6450   -0.6150 C.3       6 GLP5        0.0000 
     43 CA         27.0375   -3.4415    1.7015 C.3       3 GLC5        0.0000 
     44 CA         33.3280   -5.3645   -0.7505 C.3       3 GLC5        0.0000 
     45 CA         32.2420   -4.2230    0.2660 C.3       9 GLL5        0.0000 
     46 CA         34.4140   -6.5060   -1.7670 C.3       6 GLP5        0.0000 
     47 CA         32.3225   -3.1495   -1.4925 C.3       3 GLC5        0.0000 
     48 CA         32.4030   -2.0760   -3.2510 C.3       6 GLP5        0.0000 
     49 CA         30.9045   -5.2965   -0.6460 C.3       3 GLC5        0.0000 
     50 CA         29.5670   -6.3700   -1.5580 C.3       6 GLP5        0.0000 
     51 CA         24.9577    2.3538    6.6685 C.3       3 GLC5        0.0000 
     52 CA         24.9870    1.2870    4.5830 C.3       9 GLL5        0.0000 
     53 CA         25.6250    3.1770    8.5820 C.3       6 GLP5        0.0000 
     54 CA         23.0058    3.9715    4.8752 C.3       3 GLC5        0.0000 
     55 CA         23.5940    1.7740    4.9270 C.3       9 GLL5        0.0000 
     56 CA         22.7880    6.0690    5.4790 C.3       6 GLP5        0.0000 
     57 CA         21.8667   -0.0615    7.0312 C.3       3 GLC5        0.0000 
     58 CA         22.9150    0.7200    5.8000 C.3       9 GLL5        0.0000 
     59 CA         20.3370   -0.2520    8.2200 C.3       6 GLP5        0.0000 
     60 CA         21.6064    2.5438    5.2549 C.3       3 GLC5        0.0000 
     61 CA         22.8530    1.9740    3.6160 C.3       9 GLL5        0.0000 
     62 CA         20.1590    3.4770    6.0200 C.3       6 GLP5        0.0000 
     63 CA         24.6277    0.1882    1.0762 C.3       3 GLC5        0.0000 
     64 CA         23.9310    1.8190    2.5760 C.3       9 GLL5        0.0000 
     65 CA         22.8538    3.6230   -0.0080 C.3       3 GLC5        0.0000 
     66 CA         22.1850    1.8400    0.8810 C.3       9 GLL5        0.0000 
     67 CA         22.7920    5.4620   -1.0890 C.3       6 GLP5        0.0000 
     68 CA         25.7252    2.7909    1.3276 C.3       3 GLC5        0.0000 
     69 CA         23.6460    1.7280    1.2650 C.3       9 GLL5        0.0000 
     70 CA         27.3180    3.8370    0.5920 C.3       6 GLP5        0.0000 
     71 CA         26.0753   -3.6583    4.6460 C.3       3 GLC5        0.0000 
     72 CA         24.7230   -5.1890    4.7850 C.3       6 GLP5        0.0000 
     73 CA         22.8651    1.4627   -1.2850 C.3       3 GLC5        0.0000 
     74 CA         23.3800    1.6310   -3.0240 C.3       6 GLP5        0.0000 
     75 CA         28.2600   -1.5110    1.7752 C.3       3 GLC5        0.0000 
     76 CA         28.7280   -2.5900    3.2320 C.3       9 GLL5        0.0000 
     77 CA         30.0730   -1.9526    5.2590 C.3       3 GLC5        0.0000 
     78 CA         30.1540   -2.1680    3.1410 C.3       9 GLL5        0.0000 
     79 CA         30.8600   -1.5650    6.9840 C.3       6 GLP5        0.0000 
     80 CA         30.8302   -3.7635    4.2728 C.3       3 GLC5        0.0000 
     81 CA         31.2020   -4.9770    5.9590 C.3       6 GLP5        0.0000 
     82 CA         32.0872   -2.9200    3.4537 C.3       3 GLC5        0.0000 
     83 CA         33.7160   -3.2900    4.3210 C.3       6 GLP5        0.0000 
     84 CA         31.2812   -0.6910    1.8268 C.3       3 GLC5        0.0000 
     85 CA         30.7630   -2.9320    2.0320 C.3       9 GLL5        0.0000 
     86 CA         32.1040    1.1680    1.0670 C.3       6 GLP5        0.0000 
     87 CA         29.8668   -4.1231    4.6405 C.3       3 GLC5        0.0000 
     88 CA         30.8347   -2.1540   -0.0930 C.3       3 GLC5        0.0000 
     89 CA         30.5990   -1.0640   -1.8250 C.3       6 GLP5        0.0000 
     90 CA         29.8457   -4.4445    0.5120 C.3       3 GLC5        0.0000 
     91 CA         31.3780   -3.5560    1.2460 C.3       9 GLL5        0.0000 
     92 CA         32.7630   -3.5897    2.5385 C.3       3 GLC5        0.0000 
@<TRIPOS>BOND
@<TRIPOS>SUBSTRUCTURE
     1 ALC1        1 GROUP        1 X    ALC  0     ROOT ALC X 1
     2 SEC2        7 GROUP        1 X    SEC  0     **** SEC X 2
     3 GLC5       18 GROUP        1 X    GLC  0     **** GLC X 6
     4 ALP1        3 GROUP        1 Y    ALP  0     ROOT ALP Y 8
     5 SEP2        9 GROUP        1 Y    SEP  0     **** SEP Y 9
     6 GLP5       20 GROUP        1 Y    GLP  0     **** GLP Y 13
     7 ALL1        2 GROUP        1 Z    ALL  0     ROOT ALL Z 15
     8 SEL2        8 GROUP        1 Z    SEL  0     **** SEL Z 16
     9 GLL5       19 GROUP        1 Z    GLL  0     **** GLL Z 20
@<TRIPOS>SET

