#    Name: 3sp9_IL2_1_ligand
#    Modification time : Mon Mar 24 18:01:03 2014

@<TRIPOS>MOLECULE
3sp9_IL2_1_ligand
   57    58     1     0     0
SMALL
NO_CHARGES


@<TRIPOS>ATOM
      1 C1         24.9870    1.2870    4.5830 C.3       1 IL2901      0.0000 
      2 O1         23.1820   -1.7110    5.7200 O.3       1 IL2901      0.0000 
      3 C2         23.5940    1.7740    4.9270 C.3       1 IL2901      0.0000 
      4 O2         27.9370   -3.7310    5.1990 O.3       1 IL2901      0.0000 
      5 C3         24.9200   -0.2200    4.7890 C.3       1 IL2901      0.0000 
      6 O3         18.7010    0.7100    0.9060 O.co2     1 IL2901      0.0000 
      7 C4         22.9150    0.7200    5.8000 C.3       1 IL2901      0.0000 
      8 O4         20.0470    0.2940    2.5610 O.co2     1 IL2901      0.0000 
      9 C5         23.8780   -0.4620    5.8850 C.3       1 IL2901      0.0000 
     10 C6         25.3070    1.7040    3.1470 C.3       1 IL2901      0.0000 
     11 C7         22.8530    1.9740    3.6160 C.3       1 IL2901      0.0000 
     12 C8         23.9310    1.8190    2.5760 C.2       1 IL2901      0.0000 
     13 C9         26.2920   -0.7910    5.1080 C.2       1 IL2901      0.0000 
     14 C10        23.6460    1.7280    1.2650 C.2       1 IL2901      0.0000 
     15 C11        26.7470   -1.8200    4.3920 C.2       1 IL2901      0.0000 
     16 C12        22.1850    1.8400    0.8810 C.3       1 IL2901      0.0000 
     17 C13        28.1080   -2.4350    4.6220 C.3       1 IL2901      0.0000 
     18 C14        21.7850    0.8050   -0.1650 C.3       1 IL2901      0.0000 
     19 C15        28.7280   -2.5900    3.2320 C.3       1 IL2901      0.0000 
     20 C16        20.8340   -0.2660    0.3720 C.3       1 IL2901      0.0000 
     21 C17        30.1540   -2.1680    3.1410 C.3       1 IL2901      0.0000 
     22 C18        28.6450   -4.0260    2.7170 C.3       1 IL2901      0.0000 
     23 C19        19.7960    0.2900    1.3320 C.2       1 IL2901      0.0000 
     24 C20        30.7630   -2.9320    2.0320 C.1       1 IL2901      0.0000 
     25 C21        31.3780   -3.5560    1.2460 C.1       1 IL2901      0.0000 
     26 C22        32.2420   -4.2230    0.2660 C.3       1 IL2901      0.0000 
     27 H          25.6732    1.7146    5.2639 H         1 IL2901      0.0000 
     28 H          23.6627    2.6920    5.4496 H         1 IL2901      0.0000 
     29 H          24.5466   -0.6590    3.8692 H         1 IL2901      0.0000 
     30 H          21.9998    0.4067    5.3395 H         1 IL2901      0.0000 
     31 H          22.7467    1.1187    6.7800 H         1 IL2901      0.0000 
     32 H          24.3832   -0.3983    6.8356 H         1 IL2901      0.0000 
     33 H          25.8471    0.9355    2.6715 H         1 IL2901      0.0000 
     34 H          25.7895    2.6397    3.1536 H         1 IL2901      0.0000 
     35 H          22.4458    2.9548    3.5804 H         1 IL2901      0.0000 
     36 H          22.1182    1.2152    3.5002 H         1 IL2901      0.0000 
     37 H          26.7866   -0.3387    5.8671 H         1 IL2901      0.0000 
     38 H          24.2975    1.5950    0.5269 H         1 IL2901      0.0000 
     39 H          26.2005   -2.2688    3.6297 H         1 IL2901      0.0000 
     40 H          21.9890    2.8426    0.4837 H         1 IL2901      0.0000 
     41 H          21.5628    1.7042    1.7731 H         1 IL2901      0.0000 
     42 H          28.6984   -1.7913    5.1950 H         1 IL2901      0.0000 
     43 H          22.6912    0.3154   -0.5513 H         1 IL2901      0.0000 
     44 H          21.3036    1.3167   -1.0115 H         1 IL2901      0.0000 
     45 H          28.1443   -1.9730    2.5247 H         1 IL2901      0.0000 
     46 H          21.4231   -1.0397    0.8834 H         1 IL2901      0.0000 
     47 H          20.3243   -0.7453   -0.4752 H         1 IL2901      0.0000 
     48 H          30.6615   -2.3901    4.0718 H         1 IL2901      0.0000 
     49 H          30.2089   -1.1054    2.9383 H         1 IL2901      0.0000 
     50 H          29.0529   -4.1190    1.8087 H         1 IL2901      0.0000 
     51 H          29.1229   -4.6649    3.3198 H         1 IL2901      0.0000 
     52 H          27.6986   -4.3413    2.6469 H         1 IL2901      0.0000 
     53 H          32.4607   -3.6243   -0.5045 H         1 IL2901      0.0000 
     54 H          33.1106   -4.5092    0.6706 H         1 IL2901      0.0000 
     55 H          31.8109   -5.0421   -0.1124 H         1 IL2901      0.0000 
     56 H          22.3506   -1.4791    5.2151 H         1 IL2901      0.0000 
     57 H          27.3141   -4.2096    4.5802 H         1 IL2901      0.0000 
@<TRIPOS>BOND
     1    3    1 1    
     2    5    1 1    
     3   10    1 1    
     4   27    1 1    
     5    9    2 1    
     6   56    2 1    
     7    7    3 1    
     8   11    3 1    
     9   28    3 1    
    10   17    4 1    
    11   57    4 1    
    12    9    5 1    
    13   13    5 1    
    14   29    5 1    
    15   23    6 ar   
    16    9    7 1    
    17   30    7 1    
    18   31    7 1    
    19   23    8 ar   
    20   32    9 1    
    21   12   10 1    
    22   33   10 1    
    23   34   10 1    
    24   12   11 1    
    25   35   11 1    
    26   36   11 1    
    27   14   12 2    
    28   15   13 2    
    29   37   13 1    
    30   16   14 1    
    31   38   14 1    
    32   17   15 1    
    33   39   15 1    
    34   18   16 1    
    35   40   16 1    
    36   41   16 1    
    37   19   17 1    
    38   42   17 1    
    39   20   18 1    
    40   43   18 1    
    41   44   18 1    
    42   21   19 1    
    43   22   19 1    
    44   45   19 1    
    45   23   20 1    
    46   46   20 1    
    47   47   20 1    
    48   24   21 1    
    49   48   21 1    
    50   49   21 1    
    51   50   22 1    
    52   51   22 1    
    53   52   22 1    
    54   25   24 3    
    55   26   25 1    
    56   53   26 1    
    57   54   26 1    
    58   55   26 1    
@<TRIPOS>SUBSTRUCTURE
     1 IL2901      1 GROUP   
@<TRIPOS>SET

