#    Name: 1nuu_NAD_1_INTS_M
#    Modification time : Mon Mar 24 18:56:24 2014

@<TRIPOS>MOLECULE
1nuu_NAD_1_INTS_M
   81     0     9     0     0
SMALL
NO_CHARGES


@<TRIPOS>ATOM
      1 N          12.5870    9.4725   16.8650 N.am      2 SEC2        0.0000 
      2 N          12.1830    9.0800   15.4150 N.am      8 SEL2        0.0000 
      3 N          12.9910    9.8650   18.3150 N.am      5 SEP2        0.0000 
      4 N          13.4640    9.7160   15.7410 N.am      2 SEC2        0.0000 
      5 N          14.7450   10.3520   16.0670 N.am      5 SEP2        0.0000 
      6 CA         10.3800   11.0360   16.9620 C.3       3 GLC5        0.0000 
      7 CA          9.6100   10.7340   15.0920 C.3       9 GLL5        0.0000 
      8 CA         11.1500   11.3380   18.8320 C.3       6 GLP5        0.0000 
      9 CA         10.8510   12.2650   14.8050 C.3       3 GLC5        0.0000 
     10 CA         12.0920   13.7960   14.5180 C.3       6 GLP5        0.0000 
     11 CA          7.7860   12.7970   13.7565 C.3       3 GLC5        0.0000 
     12 CA          8.2280   11.0880   14.5900 C.3       9 GLL5        0.0000 
     13 CA          7.3440   14.5060   12.9230 C.3       6 GLP5        0.0000 
     14 N           4.6725   11.2175   14.8920 N.am      2 SEC2        0.0000 
     15 N           6.0590   11.2080   15.6960 N.am      8 SEL2        0.0000 
     16 N           3.2860   11.2270   14.0880 N.am      5 SEP2        0.0000 
     17 O           6.6445   12.2815   16.2275 O.2       1 ALC1        0.0000 
     18 O           6.0590   11.2080   15.6960 O.2       7 ALL1        0.0000 
     19 O           7.2300   13.3550   16.7590 O.2       4 ALP1        0.0000 
     20 N           4.2845   10.1600   14.1245 N.am      2 SEC2        0.0000 
     21 N           5.2830    9.0930   14.1610 N.am      8 SEL2        0.0000 
     22 O           4.4380    8.0805   13.8220 O.2       1 ALC1        0.0000 
     23 O           5.2830    9.0930   14.1610 O.2       7 ALL1        0.0000 
     24 O           3.5930    7.0680   13.4830 O.2       4 ALP1        0.0000 
     25 O           5.0915    7.4120   14.4110 O.2       1 ALC1        0.0000 
     26 O           4.9000    5.7310   14.6610 O.2       4 ALP1        0.0000 
     27 CA          8.9550   10.5820   12.1795 C.3       3 GLC5        0.0000 
     28 CA          6.9390   10.3010   12.8560 C.3       9 GLL5        0.0000 
     29 CA         10.9710   10.8630   11.5030 C.3       6 GLP5        0.0000 
     30 CA          6.3535   12.0590   12.6700 C.3       3 GLC5        0.0000 
     31 CA          5.7680   13.8170   12.4840 C.3       6 GLP5        0.0000 
     32 O           6.6745    7.9595    5.8320 O.2       1 ALC1        0.0000 
     33 O           6.7900    8.1080    7.2490 O.2       7 ALL1        0.0000 
     34 O           6.5590    7.8110    4.4150 O.2       4 ALP1        0.0000 
     35 CA          3.7020   10.3925   11.0975 C.3       3 GLC5        0.0000 
     36 CA          4.7390   10.3480    9.1550 C.3       9 GLL5        0.0000 
     37 CA          2.6650   10.4370   13.0400 C.3       6 GLP5        0.0000 
     38 CA          4.0485    8.8040    9.8345 C.3       3 GLC5        0.0000 
     39 CA          3.3580    7.2600   10.5140 C.3       6 GLP5        0.0000 
     40 N          11.7115    9.2385   17.7095 N.am      2 SEC2        0.0000 
     41 N          10.4320    8.6120   17.1040 N.am      8 SEL2        0.0000 
     42 N          12.4205    6.8875   18.8635 N.am      2 SEC2        0.0000 
     43 N          10.9450    6.5750   18.6420 N.am      8 SEL2        0.0000 
     44 N          13.8960    7.2000   19.0850 N.am      5 SEP2        0.0000 
     45 O          10.9065   12.0160   22.3960 O.2       1 ALC1        0.0000 
     46 O           9.9260   11.2290   22.3240 O.2       7 ALL1        0.0000 
     47 O          11.8870   12.8030   22.4680 O.2       4 ALP1        0.0000 
     48 CA         10.2045    7.4520   23.6365 C.3       3 GLC5        0.0000 
     49 CA          9.3330    9.2290   23.5620 C.3       9 GLL5        0.0000 
     50 CA         11.0760    5.6750   23.7110 C.3       6 GLP5        0.0000 
     51 N          10.5570    9.4855   25.8385 N.am      2 SEC2        0.0000 
     52 N           9.8870    9.9410   24.6760 N.am      8 SEL2        0.0000 
     53 N          11.2270    9.0300   27.0010 N.am      5 SEP2        0.0000 
     54 CA          5.7755    9.6145   23.6145 C.3       3 GLC5        0.0000 
     55 CA          7.8360    9.3990   23.4330 C.3       9 GLL5        0.0000 
     56 CA          3.7150    9.8300   23.7960 C.3       6 GLP5        0.0000 
     57 CA          6.2345   10.9950   25.4745 C.3       3 GLC5        0.0000 
     58 CA          6.5640    8.9790   25.4500 C.3       9 GLL5        0.0000 
     59 CA          5.9050   13.0110   25.4990 C.3       6 GLP5        0.0000 
     60 CA          4.8640    5.0225   25.8260 C.3       3 GLC5        0.0000 
     61 CA          5.6620    6.6950   26.0890 C.3       9 GLL5        0.0000 
     62 CA          4.0660    3.3500   25.5630 C.3       6 GLP5        0.0000 
     63 CA          5.8680    4.5315   25.4360 C.3       3 GLC5        0.0000 
     64 CA          6.3000    6.1980   24.7930 C.3       9 GLL5        0.0000 
     65 CA          5.4360    2.8650   26.0790 C.3       6 GLP5        0.0000 
     66 CA          9.9450   10.8870   13.1720 C.3       3 GLC5        0.0000 
     67 CA          5.5118    9.2970   16.1687 C.3       3 GLC5        0.0000 
     68 CA          7.0800   10.2950   15.2120 C.3       9 GLL5        0.0000 
     69 CA          4.1530    8.7420   17.7090 C.3       6 GLP5        0.0000 
     70 CA          4.7325   10.1460   13.2453 C.3       3 GLC5        0.0000 
     71 CA          6.6610    9.4090   14.0450 C.3       9 GLL5        0.0000 
     72 CA          8.0738    9.6810    7.6107 C.3       3 GLC5        0.0000 
     73 CA          6.9930    8.8900    9.5590 C.3       9 GLL5        0.0000 
     74 CA          9.4740   10.4990    6.3020 C.3       6 GLP5        0.0000 
     75 CA          4.9469    8.2730   10.1136 C.3       3 GLC5        0.0000 
     76 CA          6.3540    8.8360    8.2800 C.3       9 GLL5        0.0000 
     77 CA         10.2379   10.3064   20.1999 C.3       3 GLC5        0.0000 
     78 CA          8.9480    8.1340   20.5060 C.3       9 GLL5        0.0000 
     79 CA         11.5918    9.6850   23.4340 C.3       3 GLC5        0.0000 
     80 CA          9.8240    9.7870   22.2460 C.3       9 GLL5        0.0000 
     81 CA         13.6050    9.8620   23.9640 C.3       6 GLP5        0.0000 
@<TRIPOS>BOND
@<TRIPOS>SUBSTRUCTURE
     1 ALC1       17 GROUP        1 X    ALC  0     ROOT ALC X 1
     2 SEC2        1 GROUP        1 X    SEC  0     **** SEC X 2
     3 GLC5        6 GROUP        1 X    GLC  0     **** GLC X 6
     4 ALP1       19 GROUP        1 Y    ALP  0     ROOT ALP Y 8
     5 SEP2        3 GROUP        1 Y    SEP  0     **** SEP Y 9
     6 GLP5        8 GROUP        1 Y    GLP  0     **** GLP Y 13
     7 ALL1       18 GROUP        1 Z    ALL  0     ROOT ALL Z 15
     8 SEL2        2 GROUP        1 Z    SEL  0     **** SEL Z 16
     9 GLL5        7 GROUP        1 Z    GLL  0     **** GLL Z 20
@<TRIPOS>SET

