#    Name: 1nuu_NAD_1_ligand
#    Modification time : Mon Mar 24 18:56:24 2014

@<TRIPOS>MOLECULE
1nuu_NAD_1_ligand
   70    74     1     0     0
SMALL
NO_CHARGES


@<TRIPOS>ATOM
      1 PA         10.8260    8.4460   15.5830 P.3       1 NAD401      0.0000 
      2 O1A        12.1830    9.0800   15.4150 O.co2     1 NAD401      0.0000 
      3 O2A        10.7030    7.0200   15.1180 O.co2     1 NAD401      0.0000 
      4 O5B         9.7740    9.3210   14.7540 O.3       1 NAD401      0.0000 
      5 C5B         9.6100   10.7340   15.0920 C.3       1 NAD401      0.0000 
      6 C4B         8.2280   11.0880   14.5900 C.3       1 NAD401      0.0000 
      7 O4B         8.1320   10.8540   13.1830 O.3       1 NAD401      0.0000 
      8 C3B         7.0800   10.2950   15.2120 C.3       1 NAD401      0.0000 
      9 O3B         6.0590   11.2080   15.6960 O.3       1 NAD401      0.0000 
     10 C2B         6.6610    9.4090   14.0450 C.3       1 NAD401      0.0000 
     11 O2B         5.2830    9.0930   14.1610 O.3       1 NAD401      0.0000 
     12 C1B         6.9390   10.3010   12.8560 C.3       1 NAD401      0.0000 
     13 N9A         7.1770    9.6020   11.6150 N.pl3     1 NAD401      0.0000 
     14 C8A         8.1950    8.7390   11.3150 C.2       1 NAD401      0.0000 
     15 N7A         8.1340    8.2710   10.0590 N.2       1 NAD401      0.0000 
     16 C5A         6.9930    8.8900    9.5590 C.ar      1 NAD401      0.0000 
     17 C6A         6.3540    8.8360    8.2800 C.ar      1 NAD401      0.0000 
     18 N6A         6.7900    8.1080    7.2490 N.pl3     1 NAD401      0.0000 
     19 N1A         5.2040    9.5880    8.1070 N.ar      1 NAD401      0.0000 
     20 C2A         4.7390   10.3480    9.1550 C.ar      1 NAD401      0.0000 
     21 N3A         5.2750   10.4570   10.3650 N.ar      1 NAD401      0.0000 
     22 C4A         6.3980    9.7090   10.5070 C.ar      1 NAD401      0.0000 
     23 O3         10.4320    8.6120   17.1040 O.3       1 NAD401      0.0000 
     24 PN          9.9030    7.5070   18.1290 P.3       1 NAD401      0.0000 
     25 O1N        10.9450    6.5750   18.6420 O.co2     1 NAD401      0.0000 
     26 O2N         8.7440    6.7970   17.5130 O.co2     1 NAD401      0.0000 
     27 O5D         9.5190    8.5760   19.2580 O.3       1 NAD401      0.0000 
     28 C5D         8.9480    8.1340   20.5060 C.3       1 NAD401      0.0000 
     29 C4D         8.7070    9.3910   21.2730 C.3       1 NAD401      0.0000 
     30 O4D         7.5160    9.1650   22.0640 O.3       1 NAD401      0.0000 
     31 C3D         9.8240    9.7870   22.2460 C.3       1 NAD401      0.0000 
     32 O3D         9.9260   11.2290   22.3240 O.3       1 NAD401      0.0000 
     33 C2D         9.3330    9.2290   23.5620 C.3       1 NAD401      0.0000 
     34 O2D         9.8870    9.9410   24.6760 O.3       1 NAD401      0.0000 
     35 C1D         7.8360    9.3990   23.4330 C.3       1 NAD401      0.0000 
     36 N1N         7.1190    8.4740   24.2910 N.pl3     1 NAD401      0.0000 
     37 C2N         6.5640    8.9790   25.4500 C.ar      1 NAD401      0.0000 
     38 C3N         5.8280    8.1410   26.3820 C.ar      1 NAD401      0.0000 
     39 C7N         5.2970    8.8530   27.5660 C.2       1 NAD401      0.0000 
     40 O7N         4.6540    8.1160   28.3590 O.2       1 NAD401      0.0000 
     41 N7N         5.4760   10.1710   27.7730 N.am      1 NAD401      0.0000 
     42 C4N         5.6620    6.6950   26.0890 C.ar      1 NAD401      0.0000 
     43 C5N         6.3000    6.1980   24.7930 C.ar      1 NAD401      0.0000 
     44 C6N         6.9610    7.0660   23.9990 C.ar      1 NAD401      0.0000 
     45 H          10.3346   11.3408   14.5844 H         1 NAD401      0.0000 
     46 H           9.6481   10.8859   16.1533 H         1 NAD401      0.0000 
     47 H           8.0360   12.1459   14.7872 H         1 NAD401      0.0000 
     48 H           7.4989    9.6814   15.9720 H         1 NAD401      0.0000 
     49 H           7.3038    8.5795   14.0141 H         1 NAD401      0.0000 
     50 H           6.1756   11.0229   12.7737 H         1 NAD401      0.0000 
     51 H           8.9007    8.4927   11.9698 H         1 NAD401      0.0000 
     52 H           7.5941    7.5389    7.4210 H         1 NAD401      0.0000 
     53 H           6.2733    8.1973    6.3975 H         1 NAD401      0.0000 
     54 H           3.8305   10.9161    8.9521 H         1 NAD401      0.0000 
     55 H           9.6342    7.5088   21.0526 H         1 NAD401      0.0000 
     56 H           8.0110    7.6256   20.3513 H         1 NAD401      0.0000 
     57 H           8.5311   10.2079   20.5951 H         1 NAD401      0.0000 
     58 H          10.7057    9.3086   21.9659 H         1 NAD401      0.0000 
     59 H           9.5485    8.1835   23.5726 H         1 NAD401      0.0000 
     60 H           7.6006   10.4229   23.6984 H         1 NAD401      0.0000 
     61 H           6.6580    9.9811   25.6902 H         1 NAD401      0.0000 
     62 H           5.0821   10.5418   28.6141 H         1 NAD401      0.0000 
     63 H           5.9869   10.6619   27.0673 H         1 NAD401      0.0000 
     64 H           5.1868    6.0927   26.6653 H         1 NAD401      0.0000 
     65 H           6.1836    5.2103   24.6016 H         1 NAD401      0.0000 
     66 H           7.4046    6.7352   23.0997 H         1 NAD401      0.0000 
     67 H           6.5640   11.9834   16.0751 H         1 NAD401      0.0000 
     68 H           5.1794    8.2133   13.6969 H         1 NAD401      0.0000 
     69 H          10.9054   11.4152   22.4025 H         1 NAD401      0.0000 
     70 H          10.7426   10.3302   24.3346 H         1 NAD401      0.0000 
@<TRIPOS>BOND
     1    2    1 ar   
     2    3    1 ar   
     3    4    1 1    
     4   23    1 1    
     5    5    4 1    
     6    6    5 1    
     7   45    5 1    
     8   46    5 1    
     9    7    6 1    
    10    8    6 1    
    11   47    6 1    
    12   12    7 1    
    13    9    8 1    
    14   10    8 1    
    15   48    8 1    
    16   67    9 1    
    17   11   10 1    
    18   12   10 1    
    19   49   10 1    
    20   68   11 1    
    21   13   12 1    
    22   50   12 1    
    23   14   13 1    
    24   22   13 1    
    25   15   14 2    
    26   51   14 1    
    27   16   15 1    
    28   17   16 ar   
    29   22   16 ar   
    30   18   17 1    
    31   19   17 ar   
    32   52   18 1    
    33   53   18 1    
    34   20   19 ar   
    35   21   20 ar   
    36   54   20 1    
    37   22   21 ar   
    38   24   23 1    
    39   25   24 ar   
    40   26   24 ar   
    41   27   24 1    
    42   28   27 1    
    43   29   28 1    
    44   55   28 1    
    45   56   28 1    
    46   30   29 1    
    47   31   29 1    
    48   57   29 1    
    49   35   30 1    
    50   32   31 1    
    51   33   31 1    
    52   58   31 1    
    53   69   32 1    
    54   34   33 1    
    55   35   33 1    
    56   59   33 1    
    57   70   34 1    
    58   36   35 1    
    59   60   35 1    
    60   37   36 ar   
    61   44   36 ar   
    62   38   37 ar   
    63   61   37 1    
    64   39   38 1    
    65   42   38 ar   
    66   40   39 2    
    67   41   39 am   
    68   62   41 1    
    69   63   41 1    
    70   43   42 ar   
    71   64   42 1    
    72   44   43 ar   
    73   65   43 1    
    74   66   44 1    
@<TRIPOS>SUBSTRUCTURE
     1 NAD401      1 GROUP   
@<TRIPOS>SET

