#    Name: 1sff_IK2_2_INTS_M
#    Modification time : Tue Mar 25 02:25:40 2014

@<TRIPOS>MOLECULE
1sff_IK2_2_INTS_M
   75     0    15     0     0
SMALL
NO_CHARGES


@<TRIPOS>ATOM
      1 N          39.3475   56.2490   32.8655 N.am      2 SEC2        0.0000 
      2 N          38.3330   56.2200   31.9270 N.am     12 SEL2        0.0000 
      3 N          40.3620   56.2780   33.8040 N.am      7 SEP2        0.0000 
      4 CA         39.1800   59.5395   33.9040 C.3       5 GLC5        0.0000 
      5 CA         38.5340   58.6610   32.3170 C.3      15 GLL5        0.0000 
      6 CA         39.8260   60.4180   35.4910 C.3      10 GLP5        0.0000 
      7 CA         38.3215   59.9865   30.6690 C.3       5 GLC5        0.0000 
      8 CA         38.1090   61.3120   29.0210 C.3      10 GLP5        0.0000 
      9 CA         37.3490   59.4745   29.9500 C.3       5 GLC5        0.0000 
     10 CA         36.5890   57.6370   30.8790 C.3      15 GLL5        0.0000 
     11 N          35.6690   60.1030   30.1500 N.am      2 SEC2        0.0000 
     12 N          36.1250   58.8610   30.6990 N.am     12 SEL2        0.0000 
     13 N          35.2130   61.3450   29.6010 N.am      7 SEP2        0.0000 
     14 O          35.8585   59.6045   31.7910 O.2       1 ALC1        0.0000 
     15 O          36.1250   58.8610   30.6990 O.2      11 ALL1        0.0000 
     16 O          35.5920   60.3480   32.8830 O.2       6 ALP1        0.0000 
     17 CA         33.9795   56.1535   30.9955 C.3       5 GLC5        0.0000 
     18 CA         34.7740   56.4430   29.4840 C.3      15 GLL5        0.0000 
     19 CA         33.1850   55.8640   32.5070 C.3      10 GLP5        0.0000 
     20 OD1        33.0655   59.1825   29.7700 O.co2     3 ASC3        0.0000 
     21 OD1        33.7420   57.3630   29.3810 O.co2    13 ASL3        0.0000 
     22 OD1        32.3890   61.0020   30.1590 O.co2     8 ASP3        0.0000 
     23 CA         30.6080   57.9415   27.6290 C.3       5 GLC5        0.0000 
     24 CA         31.3370   56.9140   29.4060 C.3      15 GLL5        0.0000 
     25 CA         29.8790   58.9690   25.8520 C.3      10 GLP5        0.0000 
     26 CA         32.2610   56.3890   30.9565 C.3       5 GLC5        0.0000 
     27 CA         31.7860   58.4610   30.8675 C.3       5 GLC5        0.0000 
     28 CA         32.2350   60.0080   32.3290 C.3      10 GLP5        0.0000 
     29 NZ         29.4450   53.7585   29.9140 N.4       4 LYC4        0.0000 
     30 NZ         30.1460   54.7680   28.9630 N.4      14 LYL4        0.0000 
     31 NZ         27.6070   53.1460   31.4410 N.4       9 LYP4        0.0000 
     32 N          28.7210   55.1010   28.2295 N.am      2 SEC2        0.0000 
     33 N          30.1460   54.7680   28.9630 N.am     12 SEL2        0.0000 
     34 N          27.2960   55.4340   27.4960 N.am      7 SEP2        0.0000 
     35 N          29.4450   53.7585   29.9140 N.am      2 SEC2        0.0000 
     36 N          28.7440   52.7490   30.8650 N.am      7 SEP2        0.0000 
     37 NZ         28.0705   55.3905   30.6335 N.4       4 LYC4        0.0000 
     38 NZ         29.0290   56.4310   30.0990 N.4      14 LYL4        0.0000 
     39 N          28.0705   55.3905   30.6335 N.am      2 SEC2        0.0000 
     40 N          29.0290   56.4310   30.0990 N.am     12 SEL2        0.0000 
     41 N          27.1120   54.3500   31.1680 N.am      7 SEP2        0.0000 
     42 CA         39.4285   54.0175   32.4690 C.3       5 GLC5        0.0000 
     43 CA         37.7950   55.0930   31.4340 C.3      15 GLL5        0.0000 
     44 CA         41.0620   52.9420   33.5040 C.3      10 GLP5        0.0000 
     45 CA         37.3990   54.8730   33.2825 C.3       5 GLC5        0.0000 
     46 CA         37.0030   54.6530   35.1310 C.3      10 GLP5        0.0000 
     47 CA         37.7060   53.0315   29.2145 C.3       5 GLC5        0.0000 
     48 CA         36.1270   53.8310   30.1400 C.3      15 GLL5        0.0000 
     49 CA         39.2850   52.2320   28.2890 C.3      10 GLP5        0.0000 
     50 CA         37.0010   51.9390   30.6035 C.3       5 GLC5        0.0000 
     51 CA         37.8750   50.0470   31.0670 C.3      10 GLP5        0.0000 
     52 CA         34.6560   54.8475   31.3235 C.3       5 GLC5        0.0000 
     53 N          36.8245   51.0815   29.1395 N.am      2 SEC2        0.0000 
     54 N          35.5940   51.3660   28.4480 N.am     12 SEL2        0.0000 
     55 N          38.0550   50.7970   29.8310 N.am      7 SEP2        0.0000 
     56 N          33.1725   53.2230   26.6365 N.am      2 SEC2        0.0000 
     57 N          34.2130   53.3600   27.6150 N.am     12 SEL2        0.0000 
     58 N          32.1320   53.0860   25.6580 N.am      7 SEP2        0.0000 
     59 N          34.0435   54.3255   26.8240 N.am      2 SEC2        0.0000 
     60 N          33.8740   55.2910   26.0330 N.am      7 SEP2        0.0000 
     61 N          37.5515   52.1070   26.8100 N.am      2 SEC2        0.0000 
     62 N          36.3630   52.7400   26.4550 N.am     12 SEL2        0.0000 
     63 N          38.7400   51.4740   27.1650 N.am      7 SEP2        0.0000 
     64 CA         39.3050   57.4067   30.5712 C.3       5 GLC5        0.0000 
     65 CA         37.8140   57.4700   31.7020 C.3      15 GLL5        0.0000 
     66 CA         40.4360   56.7480   29.1330 C.3      10 GLP5        0.0000 
     67 CA         37.7133   56.8012   29.4160 C.3       5 GLC5        0.0000 
     68 CA         39.1500   56.5630   28.2360 C.3      10 GLP5        0.0000 
     69 CA         35.8246   57.5161   28.5155 C.3       5 GLC5        0.0000 
     70 CA         35.9640   56.4420   30.3130 C.3      15 GLL5        0.0000 
     71 CA         36.1240   58.2910   26.9910 C.3      10 GLP5        0.0000 
     72 CA         35.5465   53.3615   31.8405 C.3       5 GLC5        0.0000 
     73 CA         36.6030   55.1590   30.6140 C.3      15 GLL5        0.0000 
     74 CA         34.7280   52.2280   33.3040 C.3      10 GLP5        0.0000 
     75 CA         37.9065   55.5208   29.4090 C.3       5 GLC5        0.0000 
@<TRIPOS>BOND
@<TRIPOS>SUBSTRUCTURE
     1 ALC1       14 GROUP        1 X    ALC  0     ROOT ALC X 1
     2 SEC2        1 GROUP        1 X    SEC  0     **** SEC X 2
     3 ASC3       20 GROUP        1 X    ASC  0     **** ASC X 3
     4 LYC4       29 GROUP        1 X    LYC  0     **** LYC X 4
     5 GLC5        4 GROUP        1 X    GLC  0     **** GLC X 6
     6 ALP1       16 GROUP        1 Y    ALP  0     ROOT ALP Y 8
     7 SEP2        3 GROUP        1 Y    SEP  0     **** SEP Y 9
     8 ASP3       22 GROUP        1 Y    ASP  0     **** ASP Y 10
     9 LYP4       31 GROUP        1 Y    LYP  0     **** LYP Y 11
    10 GLP5        6 GROUP        1 Y    GLP  0     **** GLP Y 13
    11 ALL1       15 GROUP        1 Z    ALL  0     ROOT ALL Z 15
    12 SEL2        2 GROUP        1 Z    SEL  0     **** SEL Z 16
    13 ASL3       21 GROUP        1 Z    ASL  0     **** ASL Z 17
    14 LYL4       30 GROUP        1 Z    LYL  0     **** LYL Z 18
    15 GLL5        5 GROUP        1 Z    GLL  0     **** GLL Z 20
@<TRIPOS>SET

