#    Name: 1sff_IK2_2_ligand
#    Modification time : Tue Mar 25 02:25:40 2014

@<TRIPOS>MOLECULE
1sff_IK2_2_ligand
   32    32     1     0     0
SMALL
NO_CHARGES


@<TRIPOS>ATOM
      1 N1         38.3330   56.2200   31.9270 N.ar      1 IK2450      0.0000 
      2 C2         37.8140   57.4700   31.7020 C.ar      1 IK2450      0.0000 
      3 C2A        38.5340   58.6610   32.3170 C.3       1 IK2450      0.0000 
      4 C3         36.5890   57.6370   30.8790 C.ar      1 IK2450      0.0000 
      5 O3         36.1250   58.8610   30.6990 O.3       1 IK2450      0.0000 
      6 C4         35.9640   56.4420   30.3130 C.ar      1 IK2450      0.0000 
      7 C4A        34.7740   56.4430   29.4840 C.3       1 IK2450      0.0000 
      8 N4A        33.7420   57.3630   29.3810 N.4       1 IK2450      0.0000 
      9 OX         32.6710   56.5880   29.0140 O.3       1 IK2450      0.0000 
     10 C1'        31.3370   56.9140   29.4060 C.3       1 IK2450      0.0000 
     11 C2'        30.0960   55.9760   29.4920 C.2       1 IK2450      0.0000 
     12 O1'        30.1460   54.7680   28.9630 O.co2     1 IK2450      0.0000 
     13 O2'        29.0290   56.4310   30.0990 O.co2     1 IK2450      0.0000 
     14 C5         36.6030   55.1590   30.6140 C.ar      1 IK2450      0.0000 
     15 C6         37.7950   55.0930   31.4340 C.ar      1 IK2450      0.0000 
     16 C5A        36.1270   53.8310   30.1400 C.3       1 IK2450      0.0000 
     17 O4P        36.5200   53.6910   28.7630 O.3       1 IK2450      0.0000 
     18 P          35.6620   52.7320   27.7760 P.3       1 IK2450      0.0000 
     19 O1P        35.5940   51.3660   28.4480 O.co2     1 IK2450      0.0000 
     20 O2P        34.2130   53.3600   27.6150 O.co2     1 IK2450      0.0000 
     21 O3P        36.3630   52.7400   26.4550 O.co2     1 IK2450      0.0000 
     22 H          34.2769   55.3558   29.6414 H         1 IK2450      0.0000 
     23 H          35.1650   56.2094   28.3676 H         1 IK2450      0.0000 
     24 H          30.9633   57.8351   28.7697 H         1 IK2450      0.0000 
     25 H          31.3657   57.4570   30.4535 H         1 IK2450      0.0000 
     26 H          38.1927   54.1623   31.6111 H         1 IK2450      0.0000 
     27 H          35.0427   53.7820   30.2459 H         1 IK2450      0.0000 
     28 H          36.5737   53.0507   30.7572 H         1 IK2450      0.0000 
     29 H          39.4755   58.7360   31.9884 H         1 IK2450      0.0000 
     30 H          38.0779   59.5238   32.0990 H         1 IK2450      0.0000 
     31 H          38.5759   58.5953   33.3140 H         1 IK2450      0.0000 
     32 H          36.0342   59.2412   31.6194 H         1 IK2450      0.0000 
@<TRIPOS>BOND
     1    2    1 ar   
     2   15    1 ar   
     3    3    2 1    
     4    4    2 ar   
     5   29    3 1    
     6   30    3 1    
     7   31    3 1    
     8    5    4 1    
     9    6    4 ar   
    10   32    5 1    
    11    7    6 1    
    12   14    6 ar   
    13    8    7 1    
    14   22    7 1    
    15   23    7 1    
    16    9    8 1    
    17   10    9 1    
    18   11   10 1    
    19   24   10 1    
    20   25   10 1    
    21   12   11 ar   
    22   13   11 ar   
    23   15   14 ar   
    24   16   14 1    
    25   26   15 1    
    26   17   16 1    
    27   27   16 1    
    28   28   16 1    
    29   18   17 1    
    30   19   18 ar   
    31   20   18 ar   
    32   21   18 ar   
@<TRIPOS>SUBSTRUCTURE
     1 IK2450      1 GROUP   
@<TRIPOS>SET

