#    Name: 4dqe_017_1_INTS_M
#    Modification time : Mon Apr  7 22:54:29 2014

@<TRIPOS>MOLECULE
4dqe_017_1_INTS_M
   84     0     9     0     0
SMALL
NO_CHARGES


@<TRIPOS>ATOM
      1 O         -11.6810   -4.7640  -18.9795 O.2       1 ALC1        0.0000 
      2 O         -10.9900   -6.0950  -18.2400 O.2       7 ALL1        0.0000 
      3 O         -12.3720   -3.4330  -19.7190 O.2       4 ALP1        0.0000 
      4 O         -11.3495   -7.2160  -19.1560 O.2       1 ALC1        0.0000 
      5 O         -11.7090   -8.3370  -20.0720 O.2       4 ALP1        0.0000 
      6 CA        -10.1110   -1.9180  -15.4760 C.3       3 GLC5        0.0000 
      7 CA         -9.2930   -3.5400  -16.3340 C.3       9 GLL5        0.0000 
      8 CA        -10.9290   -0.2960  -14.6180 C.3       6 GLP5        0.0000 
      9 CA         -3.9630   -5.0090  -13.8630 C.3       3 GLC5        0.0000 
     10 CA         -3.1340   -3.4150  -15.2050 C.3       9 GLL5        0.0000 
     11 CA         -4.7920   -6.6030  -12.5210 C.3       6 GLP5        0.0000 
     12 CA         -1.5830   -1.8915  -15.0875 C.3       3 GLC5        0.0000 
     13 CA         -0.0320   -0.3680  -14.9700 C.3       6 GLP5        0.0000 
     14 CA         -2.4355   -3.7370  -19.2435 C.3       3 GLC5        0.0000 
     15 CA         -3.0340   -4.3580  -17.5210 C.3       9 GLL5        0.0000 
     16 CA         -1.8370   -3.1160  -20.9660 C.3       6 GLP5        0.0000 
     17 CA         -1.7505   -5.8295  -17.7270 C.3       3 GLC5        0.0000 
     18 CA         -0.4670   -7.3010  -17.9330 C.3       6 GLP5        0.0000 
     19 CA         -7.7440   -1.6335  -17.9920 C.3       3 GLC5        0.0000 
     20 CA         -6.3560   -1.4280  -16.4480 C.3       9 GLL5        0.0000 
     21 CA         -9.1320   -1.8390  -19.5360 C.3       6 GLP5        0.0000 
     22 N          -6.0795    1.2305  -18.0470 N.am      2 SEC2        0.0000 
     23 N          -5.5480    0.8010  -16.7840 N.am      8 SEL2        0.0000 
     24 N          -6.6110    1.6600  -19.3100 N.am      5 SEP2        0.0000 
     25 O          -4.7225    1.2110  -17.7630 O.2       1 ALC1        0.0000 
     26 O          -5.5480    0.8010  -16.7840 O.2       7 ALL1        0.0000 
     27 O          -3.8970    1.6210  -18.7420 O.2       4 ALP1        0.0000 
     28 O          -4.0320    0.5550  -17.2135 O.2       1 ALC1        0.0000 
     29 O          -2.5160    0.3090  -17.6430 O.2       4 ALP1        0.0000 
     30 O          -5.0870    2.4725  -14.4615 O.2       1 ALC1        0.0000 
     31 O          -4.7900    0.9810  -13.9590 O.2       7 ALL1        0.0000 
     32 O          -5.3840    3.9640  -14.9640 O.2       4 ALP1        0.0000 
     33 CA          0.6345    3.8020  -11.7425 C.3       3 GLC5        0.0000 
     34 CA         -0.8890    2.2730  -11.9720 C.3       9 GLL5        0.0000 
     35 CA          2.1580    5.3310  -11.5130 C.3       6 GLP5        0.0000 
     36 CA          0.9280    1.4595  -11.9675 C.3       3 GLC5        0.0000 
     37 CA          2.7450    0.6460  -11.9630 C.3       6 GLP5        0.0000 
     38 CA         -0.4605    0.9525  -13.4710 C.3       3 GLC5        0.0000 
     39 N          -0.3185    4.8380  -12.5475 N.am      2 SEC2        0.0000 
     40 N          -1.1700    3.6790  -11.8870 N.am      8 SEL2        0.0000 
     41 N           0.5330    5.9970  -13.2080 N.am      5 SEP2        0.0000 
     42 CA         -2.3840    4.0305  -13.0885 C.3       3 GLC5        0.0000 
     43 CA         -2.1550    3.9200  -10.8820 C.3       9 GLL5        0.0000 
     44 CA         -2.6130    4.1410  -15.2950 C.3       6 GLP5        0.0000 
     45 CA         -1.9580    5.8210  -11.4650 C.3       3 GLC5        0.0000 
     46 CA         -1.7610    7.7220  -12.0480 C.3       6 GLP5        0.0000 
     47 N          -2.6455    5.3780  -12.6295 N.am      2 SEC2        0.0000 
     48 N          -3.2050    4.7380  -11.4290 N.am      8 SEL2        0.0000 
     49 N          -2.0860    6.0180  -13.8300 N.am      5 SEP2        0.0000 
     50 CA         -3.5370    4.0890  -13.3390 C.3       3 GLC5        0.0000 
     51 CA         -4.4610    4.0370  -11.3830 C.3       9 GLL5        0.0000 
     52 CA         -8.2360    3.7690  -13.9430 C.3       3 GLC5        0.0000 
     53 CA         -7.4760    2.5680  -12.5770 C.3       9 GLL5        0.0000 
     54 CA         -8.9960    4.9700  -15.3090 C.3       6 GLP5        0.0000 
     55 CA         -9.6393   -3.9872  -14.3057 C.3       3 GLC5        0.0000 
     56 CA        -10.5180   -4.0870  -12.5640 C.3       6 GLP5        0.0000 
     57 CA         -9.4220   -3.0155  -18.1756 C.3       3 GLC5        0.0000 
     58 CA        -11.6000   -4.1510  -16.4886 C.3       3 GLC5        0.0000 
     59 CA        -10.2000   -4.1780  -17.1510 C.3       9 GLL5        0.0000 
     60 CA        -13.4880   -4.1100  -16.1620 C.3       6 GLP5        0.0000 
     61 CA        -11.0975   -5.9985  -15.7639 C.3       3 GLC5        0.0000 
     62 CA        -12.3270   -6.9710  -14.3700 C.3       6 GLP5        0.0000 
     63 CA         -1.5762   -2.8860  -17.3140 C.3       3 GLC5        0.0000 
     64 CA         -3.7250   -3.3520  -16.6110 C.3       9 GLL5        0.0000 
     65 CA          0.2270   -1.9170  -17.5620 C.3       6 GLP5        0.0000 
     66 CA         -0.9533   -0.0500  -11.6402 C.3       3 GLC5        0.0000 
     67 CA         -2.2160    1.6370  -11.5810 C.3       9 GLL5        0.0000 
     68 CA         -0.3540   -2.0550  -11.5040 C.3       6 GLP5        0.0000 
     69 CA         -1.5168    2.5745  -13.7348 C.3       3 GLC5        0.0000 
     70 CA         -1.4810    3.1940  -15.6930 C.3       6 GLP5        0.0000 
     71 CA         -9.3502    2.7107  -11.9730 C.3       3 GLC5        0.0000 
     72 CA        -11.1020    2.6570  -12.0270 C.3       6 GLP5        0.0000 
     73 CA         -9.2680    0.8307   -9.2592 C.3       3 GLC5        0.0000 
     74 CA         -7.9380    2.0130  -10.2730 C.3       9 GLL5        0.0000 
     75 CA        -10.6160    0.3230   -8.0780 C.3       6 GLP5        0.0000 
     76 CA         -9.5110    1.9977  -11.2337 C.3       3 GLC5        0.0000 
     77 CA         -7.9020    0.6640  -10.6080 C.3       9 GLL5        0.0000 
     78 CA         -6.3905   -0.4407  -10.0730 C.3       3 GLC5        0.0000 
     79 CA         -5.0030   -1.3490   -8.8800 C.3       6 GLP5        0.0000 
     80 CA         -7.9730   -1.3752  -10.4310 C.3       3 GLC5        0.0000 
     81 CA         -8.1680   -3.2180   -9.5960 C.3       6 GLP5        0.0000 
     82 CA         -9.3253    1.7032  -12.2245 C.3       3 GLC5        0.0000 
     83 CA         -7.6540    0.2710  -11.9240 C.3       9 GLL5        0.0000 
     84 CA         -9.2040    0.1798  -13.6990 C.3       3 GLC5        0.0000 
@<TRIPOS>BOND
@<TRIPOS>SUBSTRUCTURE
     1 ALC1        1 GROUP        1 X    ALC  0     ROOT ALC X 1
     2 SEC2       22 GROUP        1 X    SEC  0     **** SEC X 2
     3 GLC5        6 GROUP        1 X    GLC  0     **** GLC X 6
     4 ALP1        3 GROUP        1 Y    ALP  0     ROOT ALP Y 8
     5 SEP2       24 GROUP        1 Y    SEP  0     **** SEP Y 9
     6 GLP5        8 GROUP        1 Y    GLP  0     **** GLP Y 13
     7 ALL1        2 GROUP        1 Z    ALL  0     ROOT ALL Z 15
     8 SEL2       23 GROUP        1 Z    SEL  0     **** SEL Z 16
     9 GLL5        7 GROUP        1 Z    GLL  0     **** GLL Z 20
@<TRIPOS>SET

