#    Name: 4dqe_017_1_ligand
#    Modification time : Mon Apr  7 22:54:29 2014

@<TRIPOS>MOLECULE
4dqe_017_1_ligand
   75    78     1     0     0
SMALL
NO_CHARGES


@<TRIPOS>ATOM
      1 N1        -10.9900   -6.0950  -18.2400 N.pl3     1 017101      0.0000 
      2 C2        -10.0620   -5.5100  -17.4420 C.ar      1 017101      0.0000 
      3 C3         -9.0100   -6.2380  -16.8870 C.ar      1 017101      0.0000 
      4 C4         -8.0840   -5.5890  -16.0640 C.ar      1 017101      0.0000 
      5 C5         -8.2280   -4.2350  -15.7610 C.ar      1 017101      0.0000 
      6 C6         -9.2930   -3.5400  -16.3340 C.ar      1 017101      0.0000 
      7 C7        -10.2000   -4.1780  -17.1510 C.ar      1 017101      0.0000 
      8 S8         -7.1750   -3.3940  -14.8480 S.o2      1 017101      0.0000 
      9 O9         -7.9250   -2.3300  -14.2120 O.2       1 017101      0.0000 
     10 O10        -6.4860   -4.2340  -13.9280 O.2       1 017101      0.0000 
     11 N11        -6.0040   -2.7060  -15.7820 N.pl3     1 017101      0.0000 
     12 C12        -5.2280   -3.6390  -16.6350 C.3       1 017101      0.0000 
     13 C13        -3.7250   -3.3520  -16.6110 C.3       1 017101      0.0000 
     14 C14        -3.1340   -3.4150  -15.2050 C.3       1 017101      0.0000 
     15 C15        -3.0340   -4.3580  -17.5210 C.3       1 017101      0.0000 
     16 C16        -6.3560   -1.4280  -16.4480 C.3       1 017101      0.0000 
     17 C17        -5.4580   -0.3210  -15.8860 C.3       1 017101      0.0000 
     18 O18        -5.5480    0.8010  -16.7840 O.3       1 017101      0.0000 
     19 C19        -5.8300    0.1060  -14.4650 C.3       1 017101      0.0000 
     20 N20        -4.7900    0.9810  -13.9590 N.am      1 017101      0.0000 
     21 C21        -3.8940    0.6530  -13.0650 C.2       1 017101      0.0000 
     22 O22        -3.6970   -0.4060  -12.5140 O.2       1 017101      0.0000 
     23 O23        -3.0220    1.7400  -12.7570 O.3       1 017101      0.0000 
     24 C24        -2.2160    1.6370  -11.5810 C.3       1 017101      0.0000 
     25 C25        -0.8890    2.2730  -11.9720 C.3       1 017101      0.0000 
     26 O26        -1.1700    3.6790  -11.8870 O.3       1 017101      0.0000 
     27 C27        -2.1550    3.9200  -10.8820 C.3       1 017101      0.0000 
     28 O28        -3.2050    4.7380  -11.4290 O.3       1 017101      0.0000 
     29 C29        -4.4610    4.0370  -11.3830 C.3       1 017101      0.0000 
     30 C30        -4.2480    2.8030  -10.4980 C.3       1 017101      0.0000 
     31 C31        -2.7420    2.5700  -10.5090 C.3       1 017101      0.0000 
     32 C32        -7.1650    0.8520  -14.3520 C.3       1 017101      0.0000 
     33 C33        -7.4760    2.5680  -12.5770 C.ar      1 017101      0.0000 
     34 C34        -7.7210    2.9610  -11.2610 C.ar      1 017101      0.0000 
     35 C35        -7.9380    2.0130  -10.2730 C.ar      1 017101      0.0000 
     36 C36        -7.9020    0.6640  -10.6080 C.ar      1 017101      0.0000 
     37 C37        -7.6540    0.2710  -11.9240 C.ar      1 017101      0.0000 
     38 C38        -7.4430    1.2280  -12.9200 C.ar      1 017101      0.0000 
     39 H         -11.8928   -5.6653  -18.2531 H         1 017101      0.0000 
     40 H         -10.6892   -6.9042  -18.7446 H         1 017101      0.0000 
     41 H          -8.9149   -7.2376  -17.0790 H         1 017101      0.0000 
     42 H          -7.2877   -6.1179  -15.6782 H         1 017101      0.0000 
     43 H          -9.3970   -2.5271  -16.1371 H         1 017101      0.0000 
     44 H         -10.9952   -3.6416  -17.5488 H         1 017101      0.0000 
     45 H          -5.5751   -3.5766  -17.6789 H         1 017101      0.0000 
     46 H          -5.3868   -4.6776  -16.3033 H         1 017101      0.0000 
     47 H          -3.5598   -2.3625  -17.0209 H         1 017101      0.0000 
     48 H          -7.3901   -1.1680  -16.2531 H         1 017101      0.0000 
     49 H          -6.1931   -1.4972  -17.5174 H         1 017101      0.0000 
     50 H          -4.4366   -0.6988  -15.8763 H         1 017101      0.0000 
     51 H          -5.8833   -0.7814  -13.8407 H         1 017101      0.0000 
     52 H          -4.8042    1.9634  -14.3869 H         1 017101      0.0000 
     53 H          -2.0654    0.6976  -11.2289 H         1 017101      0.0000 
     54 H          -0.6468    1.9703  -12.9678 H         1 017101      0.0000 
     55 H          -0.1449    1.9679  -11.2684 H         1 017101      0.0000 
     56 H          -1.7308    4.3530  -10.0127 H         1 017101      0.0000 
     57 H          -4.7702    3.6977  -12.3631 H         1 017101      0.0000 
     58 H          -5.2430    4.6384  -10.9378 H         1 017101      0.0000 
     59 H          -4.7476    1.9669  -10.9266 H         1 017101      0.0000 
     60 H          -4.5752    3.0143   -9.5077 H         1 017101      0.0000 
     61 H          -2.3864    2.3096   -9.5609 H         1 017101      0.0000 
     62 H          -7.9600    0.2082  -14.7272 H         1 017101      0.0000 
     63 H          -7.1193    1.7492  -14.9686 H         1 017101      0.0000 
     64 H          -7.3180    3.2897  -13.3001 H         1 017101      0.0000 
     65 H          -7.7400    3.9651  -11.0253 H         1 017101      0.0000 
     66 H          -8.1226    2.3006   -9.3084 H         1 017101      0.0000 
     67 H          -8.0588   -0.0505   -9.8832 H         1 017101      0.0000 
     68 H          -7.6262   -0.7296  -12.1631 H         1 017101      0.0000 
     69 H          -2.1528   -3.2220  -15.2056 H         1 017101      0.0000 
     70 H          -3.5629   -2.7516  -14.5918 H         1 017101      0.0000 
     71 H          -3.2549   -4.3174  -14.7914 H         1 017101      0.0000 
     72 H          -2.0441   -4.2181  -17.5453 H         1 017101      0.0000 
     73 H          -3.1897   -5.2989  -17.2204 H         1 017101      0.0000 
     74 H          -3.3624   -4.2932  -18.4633 H         1 017101      0.0000 
     75 H          -4.6464    0.8626  -17.2122 H         1 017101      0.0000 
@<TRIPOS>BOND
     1    2    1 1    
     2   39    1 1    
     3   40    1 1    
     4    3    2 ar   
     5    7    2 ar   
     6    4    3 ar   
     7   41    3 1    
     8    5    4 ar   
     9   42    4 1    
    10    6    5 ar   
    11    8    5 1    
    12    7    6 ar   
    13   43    6 1    
    14   44    7 1    
    15    9    8 2    
    16   10    8 2    
    17   11    8 1    
    18   12   11 1    
    19   16   11 1    
    20   13   12 1    
    21   45   12 1    
    22   46   12 1    
    23   14   13 1    
    24   15   13 1    
    25   47   13 1    
    26   69   14 1    
    27   70   14 1    
    28   71   14 1    
    29   72   15 1    
    30   73   15 1    
    31   74   15 1    
    32   17   16 1    
    33   48   16 1    
    34   49   16 1    
    35   18   17 1    
    36   19   17 1    
    37   50   17 1    
    38   75   18 1    
    39   20   19 1    
    40   32   19 1    
    41   51   19 1    
    42   21   20 am   
    43   52   20 1    
    44   22   21 2    
    45   23   21 1    
    46   24   23 1    
    47   25   24 1    
    48   31   24 1    
    49   53   24 1    
    50   26   25 1    
    51   54   25 1    
    52   55   25 1    
    53   27   26 1    
    54   28   27 1    
    55   31   27 1    
    56   56   27 1    
    57   29   28 1    
    58   30   29 1    
    59   57   29 1    
    60   58   29 1    
    61   31   30 1    
    62   59   30 1    
    63   60   30 1    
    64   61   31 1    
    65   38   32 1    
    66   62   32 1    
    67   63   32 1    
    68   34   33 ar   
    69   38   33 ar   
    70   64   33 1    
    71   35   34 ar   
    72   65   34 1    
    73   36   35 ar   
    74   66   35 1    
    75   37   36 ar   
    76   67   36 1    
    77   38   37 ar   
    78   68   37 1    
@<TRIPOS>SUBSTRUCTURE
     1 017101      1 GROUP   
@<TRIPOS>SET

