#    Name: 2brm_DFZ_1_INTS_M
#    Modification time : Mon Mar 24 21:33:17 2014

@<TRIPOS>MOLECULE
2brm_DFZ_1_INTS_M
   61     0     9     0     0
SMALL
NO_CHARGES


@<TRIPOS>ATOM
      1 CA          6.6300   -2.9120   20.9930 C.3       3 GLC5        0.0000 
      2 CA          6.0690   -2.2850   19.4910 C.3       9 GLL5        0.0000 
      3 CA          7.1910   -3.5390   22.4950 C.3       6 GLP5        0.0000 
      4 CA          5.7675   -0.9335   21.2275 C.3       3 GLC5        0.0000 
      5 CA          5.4660    0.4180   22.9640 C.3       6 GLP5        0.0000 
      6 CA          5.1880   -0.3305   19.0430 C.3       3 GLC5        0.0000 
      7 CA          4.3070    1.6240   18.5950 C.3       6 GLP5        0.0000 
      8 CA          5.2975   -2.0745   17.8645 C.3       3 GLC5        0.0000 
      9 CA          4.5260   -1.8640   16.2380 C.3       6 GLP5        0.0000 
     10 CA          2.3340   -4.5325   16.1060 C.3       3 GLC5        0.0000 
     11 CA          2.1820   -6.3430   17.1790 C.3       9 GLL5        0.0000 
     12 CA          2.4860   -2.7220   15.0330 C.3       6 GLP5        0.0000 
     13 CA          5.0855   -8.8335   18.8540 C.3       3 GLC5        0.0000 
     14 CA          3.3880   -8.5960   18.3040 C.3       9 GLL5        0.0000 
     15 CA          6.7830   -9.0710   19.4040 C.3       6 GLP5        0.0000 
     16 N           4.2105   -0.8465   20.7215 N.am      2 SEC2        0.0000 
     17 N           4.8520   -2.1560   19.9810 N.am      8 SEL2        0.0000 
     18 N           3.5690    0.4630   21.4620 N.am      5 SEP2        0.0000 
     19 CA          5.5585   -3.3190   21.1325 C.3       3 GLC5        0.0000 
     20 CA          3.9260   -3.0990   19.7700 C.3       9 GLL5        0.0000 
     21 CA          3.3545   -1.1320   19.4735 C.3       3 GLC5        0.0000 
     22 CA          2.7830    0.8350   19.1770 C.3       6 GLP5        0.0000 
     23 CA          6.1085   -5.8380   19.8635 C.3       3 GLC5        0.0000 
     24 CA          5.5390   -4.3340   18.5170 C.3       9 GLL5        0.0000 
     25 CA          6.6780   -7.3420   21.2100 C.3       6 GLP5        0.0000 
     26 CA          6.3650   -3.9365   20.5060 C.3       3 GLC5        0.0000 
     27 O           1.7595   -1.9355   20.3855 O.2       1 ALC1        0.0000 
     28 O           2.6610   -3.1610   20.1650 O.2       7 ALL1        0.0000 
     29 O           0.8580   -0.7100   20.6060 O.2       4 ALP1        0.0000 
     30 CA          4.8795   -8.0470   19.8550 C.3       3 GLC5        0.0000 
     31 CA          3.5100   -7.3500   18.9160 C.3       9 GLL5        0.0000 
     32 CA          6.2490   -8.7440   20.7940 C.3       6 GLP5        0.0000 
     33 CA          3.7925   -3.4235   17.6165 C.3       3 GLC5        0.0000 
     34 CA          3.0590   -4.9830   18.9950 C.3       9 GLL5        0.0000 
     35 CA          6.0590   -3.1315   16.2150 C.3       3 GLC5        0.0000 
     36 CA          7.5920   -4.3990   16.1920 C.3       9 GLL5        0.0000 
     37 CA          7.3650   -3.0950   14.9000 C.3       3 GLC5        0.0000 
     38 CA          7.1380   -1.7910   13.6080 C.3       6 GLP5        0.0000 
     39 CA          7.0735   -7.2530   18.3530 C.3       3 GLC5        0.0000 
     40 CA          7.3640   -5.4350   17.3020 C.3       9 GLL5        0.0000 
     41 CA          9.3055   -4.5840   18.0385 C.3       3 GLC5        0.0000 
     42 CA         11.2470   -3.7330   18.7750 C.3       6 GLP5        0.0000 
     43 CA         -0.7565   -3.1837   19.0057 C.3       3 GLC5        0.0000 
     44 CA          0.7620   -4.6430   19.9740 C.3       9 GLL5        0.0000 
     45 CA         -1.8450   -2.2020   17.7660 C.3       6 GLP5        0.0000 
     46 CA          0.8190   -6.8100   21.1940 C.3       3 GLC5        0.0000 
     47 CA          0.2530   -5.9090   19.7010 C.3       9 GLL5        0.0000 
     48 CA          2.0520   -7.5590   22.5550 C.3       6 GLP5        0.0000 
     49 CA         -1.7635   -3.4103   19.2067 C.3       3 GLC5        0.0000 
     50 CA         -1.9300   -5.2530   20.5090 C.3       9 GLL5        0.0000 
     51 CA          1.2769   -5.1735   21.7886 C.3       3 GLC5        0.0000 
     52 CA         -0.0980   -3.6880   20.5170 C.3       9 GLL5        0.0000 
     53 CA          1.8890   -6.2720   23.3930 C.3       6 GLP5        0.0000 
     54 CA          0.8137   -6.0827   15.4425 C.3       3 GLC5        0.0000 
     55 CA         -0.4910   -5.1980   14.0120 C.3       6 GLP5        0.0000 
     56 CA          4.6679   -2.9316   17.5971 C.3       3 GLC5        0.0000 
     57 CA          4.2350   -4.2300   19.0210 C.3       9 GLL5        0.0000 
     58 CA          2.6310   -7.1717   20.5965 C.3       3 GLC5        0.0000 
     59 CA          2.9100   -6.2190   18.3600 C.3       9 GLL5        0.0000 
     60 CA          2.4965   -9.6370   19.1732 C.3       3 GLC5        0.0000 
     61 CA          1.7270  -11.2700   20.0310 C.3       6 GLP5        0.0000 
@<TRIPOS>BOND
@<TRIPOS>SUBSTRUCTURE
     1 ALC1       27 GROUP        1 X    ALC  0     ROOT ALC X 1
     2 SEC2       16 GROUP        1 X    SEC  0     **** SEC X 2
     3 GLC5        1 GROUP        1 X    GLC  0     **** GLC X 6
     4 ALP1       29 GROUP        1 Y    ALP  0     ROOT ALP Y 8
     5 SEP2       18 GROUP        1 Y    SEP  0     **** SEP Y 9
     6 GLP5        3 GROUP        1 Y    GLP  0     **** GLP Y 13
     7 ALL1       28 GROUP        1 Z    ALL  0     ROOT ALL Z 15
     8 SEL2       17 GROUP        1 Z    SEL  0     **** SEL Z 16
     9 GLL5        2 GROUP        1 Z    GLL  0     **** GLL Z 20
@<TRIPOS>SET

