#    Name: 2brm_DFZ_1_ligand
#    Modification time : Mon Mar 24 21:33:17 2014

@<TRIPOS>MOLECULE
2brm_DFZ_1_ligand
   43    46     1     0     0
SMALL
NO_CHARGES


@<TRIPOS>ATOM
      1 C2          6.0690   -2.2850   19.4910 C.ar      1 DFZ1275     0.0000 
      2 C10         2.0930   -4.2810   19.7290 C.2       1 DFZ1275     0.0000 
      3 C11         0.7620   -4.6430   19.9740 C.ar      1 DFZ1275     0.0000 
      4 C12         0.2530   -5.9090   19.7010 C.ar      1 DFZ1275     0.0000 
      5 C13        -1.0810   -6.2130   19.9650 C.ar      1 DFZ1275     0.0000 
      6 C14        -1.9300   -5.2530   20.5090 C.ar      1 DFZ1275     0.0000 
      7 C15        -1.4340   -3.9840   20.7860 C.ar      1 DFZ1275     0.0000 
      8 C16        -0.0980   -3.6880   20.5170 C.ar      1 DFZ1275     0.0000 
      9 C19         2.1820   -6.3430   17.1790 C.ar      1 DFZ1275     0.0000 
     10 C20         2.0550   -7.5920   16.5670 C.ar      1 DFZ1275     0.0000 
     11 C21         2.6560   -8.7200   17.1260 C.ar      1 DFZ1275     0.0000 
     12 C22         3.3880   -8.5960   18.3040 C.ar      1 DFZ1275     0.0000 
     13 N1          4.8520   -2.1560   19.9810 N.ar      1 DFZ1275     0.0000 
     14 C6          3.9260   -3.0990   19.7700 C.ar      1 DFZ1275     0.0000 
     15 C5          4.2350   -4.2300   19.0210 C.ar      1 DFZ1275     0.0000 
     16 N9          5.9720   -5.3620   17.7820 N.pl3     1 DFZ1275     0.0000 
     17 C4          5.5390   -4.3340   18.5170 C.ar      1 DFZ1275     0.0000 
     18 N3          6.4120   -3.3440   18.7820 N.ar      1 DFZ1275     0.0000 
     19 N90         2.6610   -3.1610   20.1650 N.pl3     1 DFZ1275     0.0000 
     20 C17         3.5100   -7.3500   18.9160 C.ar      1 DFZ1275     0.0000 
     21 C1          3.0590   -4.9830   18.9950 C.2       1 DFZ1275     0.0000 
     22 C18         2.9100   -6.2190   18.3600 C.ar      1 DFZ1275     0.0000 
     23 C23         7.5920   -4.3990   16.1920 C.3       1 DFZ1275     0.0000 
     24 C8          7.3640   -5.4350   17.3020 C.3       1 DFZ1275     0.0000 
     25 O24         8.4060   -3.3250   16.6890 O.3       1 DFZ1275     0.0000 
     26 H           6.7858   -1.5245   19.6694 H         1 DFZ1275     0.0000 
     27 H           0.8705   -6.6324   19.2980 H         1 DFZ1275     0.0000 
     28 H          -1.4415   -7.1560   19.7558 H         1 DFZ1275     0.0000 
     29 H          -2.9088   -5.4799   20.7027 H         1 DFZ1275     0.0000 
     30 H          -2.0477   -3.2659   21.1872 H         1 DFZ1275     0.0000 
     31 H           0.2636   -2.7392   20.7246 H         1 DFZ1275     0.0000 
     32 H           1.7389   -5.5187   16.7578 H         1 DFZ1275     0.0000 
     33 H           1.5127   -7.6803   15.6953 H         1 DFZ1275     0.0000 
     34 H           2.5588   -9.6329   16.6720 H         1 DFZ1275     0.0000 
     35 H           3.8365   -9.4195   18.7207 H         1 DFZ1275     0.0000 
     36 H           5.3621   -6.1551   17.5117 H         1 DFZ1275     0.0000 
     37 H           2.2047   -2.4735   20.7061 H         1 DFZ1275     0.0000 
     38 H           4.0505   -7.2613   19.7912 H         1 DFZ1275     0.0000 
     39 H           6.6109   -4.0436   15.8617 H         1 DFZ1275     0.0000 
     40 H           8.0686   -4.9119   15.3507 H         1 DFZ1275     0.0000 
     41 H           7.5819   -6.4241   16.8973 H         1 DFZ1275     0.0000 
     42 H           8.0637   -5.2280   18.1126 H         1 DFZ1275     0.0000 
     43 H           7.9591   -3.0314   17.5340 H         1 DFZ1275     0.0000 
@<TRIPOS>BOND
     1   13    1 ar   
     2   18    1 ar   
     3   26    1 1    
     4    3    2 1    
     5   19    2 1    
     6   21    2 2    
     7    4    3 ar   
     8    8    3 ar   
     9    5    4 ar   
    10   27    4 1    
    11    6    5 ar   
    12   28    5 1    
    13    7    6 ar   
    14   29    6 1    
    15    8    7 ar   
    16   30    7 1    
    17   31    8 1    
    18   10    9 ar   
    19   22    9 ar   
    20   32    9 1    
    21   11   10 ar   
    22   33   10 1    
    23   12   11 ar   
    24   34   11 1    
    25   20   12 ar   
    26   35   12 1    
    27   14   13 ar   
    28   15   14 ar   
    29   19   14 1    
    30   17   15 ar   
    31   21   15 1    
    32   17   16 1    
    33   24   16 1    
    34   36   16 1    
    35   18   17 ar   
    36   37   19 1    
    37   22   20 ar   
    38   38   20 1    
    39   22   21 1    
    40   24   23 1    
    41   25   23 1    
    42   39   23 1    
    43   40   23 1    
    44   41   24 1    
    45   42   24 1    
    46   43   25 1    
@<TRIPOS>SUBSTRUCTURE
     1 DFZ1275     1 GROUP   
@<TRIPOS>SET

