#    Name: 4i8v_BHF_4_INTS_M
#    Modification time : Tue Mar 25 02:34:52 2014

@<TRIPOS>MOLECULE
4i8v_BHF_4_INTS_M
   52     0     3     0     0
SMALL
NO_CHARGES


@<TRIPOS>ATOM
      1 CA        -16.3010   89.1715  -62.8905 C.3       1 GLC5        0.0000 
      2 CA        -15.6920   90.0310  -61.4310 C.3       3 GLL5        0.0000 
      3 CA        -16.9100   88.3120  -64.3500 C.3       2 GLP5        0.0000 
      4 CA        -15.9290   91.8935  -61.0175 C.3       1 GLC5        0.0000 
      5 CA        -16.1660   93.7560  -60.6040 C.3       2 GLP5        0.0000 
      6 CA         -9.3835   87.2160  -62.2150 C.3       1 GLC5        0.0000 
      7 CA        -11.4390   87.6660  -63.0090 C.3       3 GLL5        0.0000 
      8 CA         -7.3280   86.7660  -61.4210 C.3       2 GLP5        0.0000 
      9 CA         -8.8555   87.8575  -64.3640 C.3       1 GLC5        0.0000 
     10 CA        -10.3980   86.7750  -63.1910 C.3       3 GLL5        0.0000 
     11 CA         -7.3130   88.9400  -65.5370 C.3       2 GLP5        0.0000 
     12 CA         -9.6380   83.5680  -62.4980 C.3       1 GLC5        0.0000 
     13 CA        -10.3510   85.6130  -62.4130 C.3       3 GLL5        0.0000 
     14 CA         -8.9250   81.5230  -62.5830 C.3       2 GLP5        0.0000 
     15 CA         -9.3265   86.0355  -61.4350 C.3       1 GLC5        0.0000 
     16 CA        -11.3250   85.3050  -61.4490 C.3       3 GLL5        0.0000 
     17 CA        -16.1240   87.9875  -62.1710 C.3       1 GLC5        0.0000 
     18 CA        -15.5730   88.8330  -60.6790 C.3       3 GLL5        0.0000 
     19 CA        -16.6750   87.1420  -63.6630 C.3       2 GLP5        0.0000 
     20 CA        -13.7272   89.8915  -60.3125 C.3       1 GLC5        0.0000 
     21 CA        -11.8220   90.3510  -59.5700 C.3       2 GLP5        0.0000 
     22 CA        -15.1813   89.8865  -59.0780 C.3       1 GLC5        0.0000 
     23 CA        -14.7300   90.3410  -57.1010 C.3       2 GLP5        0.0000 
     24 CA        -14.6820   89.8167  -64.5768 C.3       1 GLC5        0.0000 
     25 CA        -13.5890   89.4760  -62.6350 C.3       3 GLL5        0.0000 
     26 CA        -16.2750   90.0230  -66.0470 C.3       2 GLP5        0.0000 
     27 CA        -12.4555   89.9808  -61.3383 C.3       1 GLC5        0.0000 
     28 CA        -11.6543   89.3037  -61.4772 C.3       1 GLC5        0.0000 
     29 CA        -11.5340   88.8470  -63.7600 C.3       3 GLL5        0.0000 
     30 CA         -8.7138   86.0250  -62.7050 C.3       1 GLC5        0.0000 
     31 CA         -7.0530   85.8560  -62.6080 C.3       2 GLP5        0.0000 
     32 CA        -11.2270   85.7145  -59.4105 C.3       1 GLC5        0.0000 
     33 CA        -10.5950   85.6990  -57.4860 C.3       2 GLP5        0.0000 
     34 CA        -12.2353   84.3385  -62.6835 C.3       1 GLC5        0.0000 
     35 CA        -12.3930   86.1550  -61.2210 C.3       3 GLL5        0.0000 
     36 CA        -12.8550   82.8700  -63.7910 C.3       2 GLP5        0.0000 
     37 CA        -12.4150   89.0683  -60.7300 C.3       1 GLC5        0.0000 
     38 CA        -12.4570   87.3170  -61.9810 C.3       3 GLL5        0.0000 
     39 CA        -15.9283   89.5408  -58.2840 C.3       1 GLC5        0.0000 
     40 CA        -16.5360   88.3900  -59.6160 C.3       3 GLL5        0.0000 
     41 CA        -15.7980   88.1375  -57.2305 C.3       1 GLC5        0.0000 
     42 CA        -16.2160   87.2310  -58.8810 C.3       3 GLL5        0.0000 
     43 CA        -14.9530   89.2700  -56.0830 C.3       2 GLP5        0.0000 
     44 CA        -18.5422   85.3145  -57.8792 C.3       1 GLC5        0.0000 
     45 CA        -17.0700   86.7790  -57.8750 C.3       3 GLL5        0.0000 
     46 CA        -19.4260   83.5000  -58.0270 C.3       2 GLP5        0.0000 
     47 CA        -16.6815   88.6633  -57.0152 C.3       1 GLC5        0.0000 
     48 CA        -18.5730   88.6340  -58.3070 C.3       3 GLL5        0.0000 
     49 CA        -18.3925   90.4237  -57.7372 C.3       1 GLC5        0.0000 
     50 CA        -18.6400   91.9850  -56.6620 C.3       2 GLP5        0.0000 
     51 CA        -19.0096   87.7931  -59.6106 C.3       1 GLC5        0.0000 
     52 CA        -20.2650   87.6780  -60.9120 C.3       2 GLP5        0.0000 
@<TRIPOS>BOND
@<TRIPOS>SUBSTRUCTURE
     1 GLC5        1 GROUP        1 X    GLC  0     ROOT GLC X 6
     2 GLP5        3 GROUP        1 Y    GLP  0     ROOT GLP Y 13
     3 GLL5        2 GROUP        1 Z    GLL  0     ROOT GLL Z 20
@<TRIPOS>SET

