#    Name: 4i8v_BHF_4_ligand
#    Modification time : Tue Mar 25 02:34:52 2014

@<TRIPOS>MOLECULE
4i8v_BHF_4_ligand
   33    36     1     0     0
SMALL
NO_CHARGES


@<TRIPOS>ATOM
      1 C8        -15.6920   90.0310  -61.4310 C.2       1 BHF601      0.0000 
      2 C9        -14.7380   90.3790  -62.4050 C.2       1 BHF601      0.0000 
      3 O2        -14.8100   91.4260  -63.0810 O.2       1 BHF601      0.0000 
      4 C10       -13.5890   89.4760  -62.6350 C.ar      1 BHF601      0.0000 
      5 C11       -12.5890   89.7450  -63.5780 C.ar      1 BHF601      0.0000 
      6 C12       -11.5340   88.8470  -63.7600 C.ar      1 BHF601      0.0000 
      7 C13       -11.4390   87.6660  -63.0090 C.ar      1 BHF601      0.0000 
      8 C14       -10.3980   86.7750  -63.1910 C.ar      1 BHF601      0.0000 
      9 C15       -10.3510   85.6130  -62.4130 C.ar      1 BHF601      0.0000 
     10 C16       -11.3250   85.3050  -61.4490 C.ar      1 BHF601      0.0000 
     11 C17       -12.3930   86.1550  -61.2210 C.ar      1 BHF601      0.0000 
     12 C18       -12.4570   87.3170  -61.9810 C.ar      1 BHF601      0.0000 
     13 C19       -13.5590   88.2540  -61.7990 C.ar      1 BHF601      0.0000 
     14 O1        -14.5190   87.9770  -60.8750 O.3       1 BHF601      0.0000 
     15 C7        -15.5730   88.8330  -60.6790 C.2       1 BHF601      0.0000 
     16 C1        -16.5360   88.3900  -59.6160 C.ar      1 BHF601      0.0000 
     17 C2        -16.2160   87.2310  -58.8810 C.ar      1 BHF601      0.0000 
     18 C3        -17.0700   86.7790  -57.8750 C.ar      1 BHF601      0.0000 
     19 C4        -18.2470   87.4790  -57.5880 C.ar      1 BHF601      0.0000 
     20 C5        -18.5730   88.6340  -58.3070 C.ar      1 BHF601      0.0000 
     21 C6        -17.7170   89.0910  -59.3180 C.ar      1 BHF601      0.0000 
     22 H         -16.4933   90.6534  -61.2565 H         1 BHF601      0.0000 
     23 H         -12.6325   90.6055  -64.1369 H         1 BHF601      0.0000 
     24 H         -10.8044   89.0560  -64.4648 H         1 BHF601      0.0000 
     25 H          -9.6678   86.9558  -63.8834 H         1 BHF601      0.0000 
     26 H          -9.5604   84.9461  -62.5531 H         1 BHF601      0.0000 
     27 H         -11.2348   84.4295  -60.9073 H         1 BHF601      0.0000 
     28 H         -13.0996   85.9420  -60.5302 H         1 BHF601      0.0000 
     29 H         -15.3501   86.7222  -59.0915 H         1 BHF601      0.0000 
     30 H         -16.8365   85.9323  -57.3437 H         1 BHF601      0.0000 
     31 H         -18.8739   87.1436  -56.8467 H         1 BHF601      0.0000 
     32 H         -19.4349   89.1450  -58.0958 H         1 BHF601      0.0000 
     33 H         -17.9517   89.9401  -59.8434 H         1 BHF601      0.0000 
@<TRIPOS>BOND
     1    2    1 1    
     2   15    1 2    
     3   22    1 1    
     4    3    2 2    
     5    4    2 1    
     6    5    4 ar   
     7   13    4 ar   
     8    6    5 ar   
     9   23    5 1    
    10    7    6 ar   
    11   24    6 1    
    12    8    7 ar   
    13   12    7 ar   
    14    9    8 ar   
    15   25    8 1    
    16   10    9 ar   
    17   26    9 1    
    18   11   10 ar   
    19   27   10 1    
    20   12   11 ar   
    21   28   11 1    
    22   13   12 ar   
    23   14   13 1    
    24   15   14 1    
    25   16   15 1    
    26   17   16 ar   
    27   21   16 ar   
    28   18   17 ar   
    29   29   17 1    
    30   19   18 ar   
    31   30   18 1    
    32   20   19 ar   
    33   31   19 1    
    34   21   20 ar   
    35   32   20 1    
    36   33   21 1    
@<TRIPOS>SUBSTRUCTURE
     1 BHF601      1 GROUP   
@<TRIPOS>SET

