#    Name: 4IKT_1_CAVITY_N1_ALL.mol2
#    Modification time : Tue Mar 11 05:37:40 2014

@<TRIPOS>MOLECULE
4IKT_1_CAVITY_N1_ALL.mol2
   61     0     5     0     0
SMALL
NO_CHARGES


@<TRIPOS>ATOM
      1 CA         22.3213   -7.6414   25.4891 C.3       4 GLY6        0.0000 
      2 CA         21.8411   -8.9097   24.8483 C.3       4 GLY6        0.0000 
      3 O          21.3609  -10.1781   24.2074 O.2       2 ALA2        0.0000 
      4 CA         18.1704   -1.3165   26.6142 C.3       4 GLY6        0.0000 
      5 O          19.5890   -1.7839   26.4763 O.2       2 ALA2        0.0000 
      6 O          21.0077   -2.2513   26.3383 O.2       2 ALA2        0.0000 
      7 O          19.1088   -3.0522   25.8354 O.2       2 ALA2        0.0000 
      8 O          20.5275   -3.5196   25.6975 O.2       2 ALA2        0.0000 
      9 CA         20.0473   -4.7880   25.0566 C.3       4 GLY6        0.0000 
     10 CA         21.4659   -5.2554   24.9187 C.3       4 GLY6        0.0000 
     11 N          22.8845   -5.7228   24.7808 N.2       2 ALA2        0.0000 
     12 CA         20.9857   -6.5237   24.2779 C.3       4 GLY6        0.0000 
     13 CA         22.4043   -6.9911   24.1399 C.3       4 GLY6        0.0000 
     14 OG         21.9241   -8.2595   23.4991 O.2       1 SER1        0.0000 
     15 OG         23.3428   -8.7269   23.3611 O.2       1 SER1        0.0000 
     16 OG         21.4439   -9.5278   22.8582 O.2       1 SER1        0.0000 
     17 N          21.5709   -0.3327   25.6300 N.2       2 ALA2        0.0000 
     18 N          22.9895   -0.8001   25.4921 N.2       2 ALA2        0.0000 
     19 N          19.6721   -1.1336   25.1271 N.2       2 ALA2        0.0000 
     20 N          21.0907   -1.6010   24.9892 N.2       2 ALA2        0.0000 
     21 N          22.5093   -2.0684   24.8512 N.2       2 ALA2        0.0000 
     22 N          23.9280   -2.5358   24.7133 N.2       2 ALA2        0.0000 
     23 DU         19.1919   -2.4020   24.4862 H         5 CUB7        0.0000 
     24 DU         20.6105   -2.8694   24.3483 H         5 CUB7        0.0000 
     25 CA         22.0291   -3.3368   24.2104 C.3       4 GLY6        0.0000 
     26 N          23.4478   -3.8042   24.0724 N.2       2 ALA2        0.0000 
     27 DU         20.1303   -4.1377   23.7075 H         5 CUB7        0.0000 
     28 DU         21.5489   -4.6051   23.5695 H         5 CUB7        0.0000 
     29 N          22.9676   -5.0725   23.4316 N.2       2 ALA2        0.0000 
     30 DU         19.6501   -5.4061   23.0666 H         5 CUB7        0.0000 
     31 DU         21.0688   -5.8735   22.9287 H         5 CUB7        0.0000 
     32 DU         22.4874   -6.3409   22.7907 H         5 CUB7        0.0000 
     33 CA         23.9060   -6.8083   22.6528 C.3       4 GLY6        0.0000 
     34 OG         22.0072   -7.6092   22.1499 O.2       1 SER1        0.0000 
     35 O          18.8167    1.2524   24.5567 O.2       2 ALA2        0.0000 
     36 CA         20.2353    0.7850   24.4188 C.3       4 GLY6        0.0000 
     37 CA         18.3365   -0.0160   23.9158 C.3       4 GLY6        0.0000 
     38 DU         19.7551   -0.4834   23.7779 H         5 CUB7        0.0000 
     39 O          21.1738   -0.9508   23.6400 O.2       2 ALA2        0.0000 
     40 CA         22.5924   -1.4182   23.5020 C.3       4 GLY6        0.0000 
     41 CA         24.0110   -1.8856   23.3641 C.3       4 GLY6        0.0000 
     42 DU         20.6936   -2.2191   22.9991 H         5 CUB7        0.0000 
     43 N          22.1122   -2.6865   22.8612 N.2       2 ALA2        0.0000 
     44 N          23.5308   -3.1539   22.7232 N.2       2 ALA2        0.0000 
     45 DU         20.2134   -3.4875   22.3583 H         5 CUB7        0.0000 
     46 N          21.6320   -3.9549   22.2203 N.2       2 ALA2        0.0000 
     47 N          23.0506   -4.4223   22.0824 N.2       2 ALA2        0.0000 
     48 DU         21.1518   -5.2233   21.5795 H         5 CUB7        0.0000 
     49 NZ         22.5704   -5.6906   21.4416 N.2       3 LYS4        0.0000 
     50 OG         22.0902   -6.9590   20.8007 O.2       1 SER1        0.0000 
     51 N          19.8382    0.1668   22.4287 N.2       2 ALA2        0.0000 
     52 N          21.2568   -0.3005   22.2908 N.2       2 ALA2        0.0000 
     53 CA         20.7766   -1.5689   21.6499 C.3       4 GLY6        0.0000 
     54 N          22.1952   -2.0363   21.5120 N.2       2 ALA2        0.0000 
     55 DU         18.8778   -2.3699   21.1470 H         5 CUB7        0.0000 
     56 DU         20.2964   -2.8373   21.0091 H         5 CUB7        0.0000 
     57 N          21.7150   -3.3047   20.8712 N.2       2 ALA2        0.0000 
     58 DU         19.8162   -4.1056   20.3683 H         5 CUB7        0.0000 
     59 CA         21.2348   -4.5730   20.2303 C.3       4 GLY6        0.0000 
     60 NZ         22.6535   -5.0404   20.0924 N.2       3 LYS4        0.0000 
     61 O          20.8597   -0.9187   20.3008 O.2       2 ALA2        0.0000 
@<TRIPOS>BOND
@<TRIPOS>SUBSTRUCTURE
     1 SER1       14 GROUP   
     2 ALA2        3 GROUP   
     3 LYS4       49 GROUP   
     4 GLY6        1 GROUP   
     5 CUB7       23 GROUP   
@<TRIPOS>SET

