#    Name: 4ikt_TFV_1_INTS_M
#    Modification time : Tue Mar 25 04:08:15 2014

@<TRIPOS>MOLECULE
4ikt_TFV_1_INTS_M
   55     0     6     0     0
SMALL
NO_CHARGES


@<TRIPOS>ATOM
      1 CA         21.2965    1.4375   22.9650 C.3       2 GLC5        0.0000 
      2 CA         20.5010   -0.1900   22.3850 C.3       6 GLL5        0.0000 
      3 CA         22.0920    3.0650   23.5450 C.3       4 GLP5        0.0000 
      4 CA         20.6480    0.7545   18.8125 C.3       2 GLC5        0.0000 
      5 CA         20.0660    0.0860   20.3270 C.3       6 GLL5        0.0000 
      6 CA         21.2300    1.4230   17.2980 C.3       4 GLP5        0.0000 
      7 CA         18.7140    1.5405   20.5790 C.3       2 GLC5        0.0000 
      8 CA         17.3620    2.9950   20.8310 C.3       4 GLP5        0.0000 
      9 CA         22.8215   -7.0455   16.7460 C.3       2 GLC5        0.0000 
     10 CA         21.1440   -6.8820   17.8120 C.3       6 GLL5        0.0000 
     11 CA         24.4990   -7.2090   15.6800 C.3       4 GLP5        0.0000 
     12 CA         21.9435   -4.1060   16.2650 C.3       2 GLC5        0.0000 
     13 CA         20.6460   -5.3630   15.9340 C.3       6 GLL5        0.0000 
     14 CA         23.2410   -2.8490   16.5960 C.3       4 GLP5        0.0000 
     15 CA         20.4045   -0.8000   14.2420 C.3       2 GLC5        0.0000 
     16 CA         19.3940   -2.5450   13.7270 C.3       6 GLL5        0.0000 
     17 CA         21.4150    0.9450   14.7570 C.3       4 GLP5        0.0000 
     18 Zn         20.7420   -4.4775   12.2510 Zn        1 ZIC7        0.0000 
     19 Zn         20.6230   -4.6840   13.3000 Zn        5 ZIL7        0.0000 
     20 Zn         20.8610   -4.2710   11.2020 Zn        3 ZIP7        0.0000 
     21 CA         21.9290   -4.0310   14.6265 C.3       2 GLC5        0.0000 
     22 CA         21.1670   -5.8540   13.7160 C.3       6 GLL5        0.0000 
     23 CA         22.6910   -2.2080   15.5370 C.3       4 GLP5        0.0000 
     24 CA         20.5760   -6.5035   11.1040 C.3       2 GLC5        0.0000 
     25 CA         21.8430   -6.6870   12.7000 C.3       6 GLL5        0.0000 
     26 CA         19.3090   -6.3200    9.5080 C.3       4 GLP5        0.0000 
     27 Zn         21.5240   -5.1580   11.3790 Zn        1 ZIC7        0.0000 
     28 Zn         22.1870   -6.0450   11.5560 Zn        5 ZIL7        0.0000 
     29 CA         24.8610   -9.0620   12.7930 C.3       2 GLC5        0.0000 
     30 CA         22.8700   -8.6720   11.8840 C.3       6 GLL5        0.0000 
     31 CA         26.8520   -9.4520   13.7020 C.3       4 GLP5        0.0000 
     32 CA         25.0270   -7.8310    9.6990 C.3       2 GLC5        0.0000 
     33 CA         23.2100   -8.0000   10.7210 C.3       6 GLL5        0.0000 
     34 CA         26.8440   -7.6620    8.6770 C.3       4 GLP5        0.0000 
     35 CA         17.8102    0.6623   21.5302 C.3       2 GLC5        0.0000 
     36 CA         19.8660   -0.7180   21.3620 C.3       6 GLL5        0.0000 
     37 CA         16.3970    2.0560   21.5450 C.3       4 GLP5        0.0000 
     38 CA         22.0694    0.0435   21.4156 C.3       2 GLC5        0.0000 
     39 CA         24.0140    0.2710   21.7310 C.3       4 GLP5        0.0000 
     40 CA         21.6478   -2.5065   19.3173 C.3       2 GLC5        0.0000 
     41 CA         20.3630   -2.1120   21.0480 C.3       6 GLL5        0.0000 
     42 CA         23.2750   -2.5010   18.0470 C.3       4 GLP5        0.0000 
     43 CA         22.4787   -1.0483   21.5380 C.3       2 GLC5        0.0000 
     44 CA         22.3780   -3.2396   19.4905 C.3       2 GLC5        0.0000 
     45 CA         21.5240   -2.6230   21.6420 C.3       6 GLL5        0.0000 
     46 CA         21.1880   -2.9118   15.8152 C.3       2 GLC5        0.0000 
     47 CA         19.3190   -3.0500   16.6800 C.3       6 GLL5        0.0000 
     48 CA         21.2015   -2.6993   14.7438 C.3       2 GLC5        0.0000 
     49 CA         20.0300   -3.8360   14.1740 C.3       6 GLL5        0.0000 
     50 CA         23.7465  -10.1465   10.8442 C.3       2 GLC5        0.0000 
     51 CA         24.4530  -11.9570   10.3860 C.3       4 GLP5        0.0000 
     52 CA         22.6277   -7.1717    8.8050 C.3       2 GLC5        0.0000 
     53 CA         22.2300   -7.0130    6.9650 C.3       4 GLP5        0.0000 
     54 CA         21.1673   -6.8253   10.0765 C.3       2 GLC5        0.0000 
     55 CA         22.8410   -6.6610   10.5690 C.3       6 GLL5        0.0000 
@<TRIPOS>BOND
@<TRIPOS>SUBSTRUCTURE
     1 ZIC7       18 GROUP        1 X    ZIC  0     ROOT ZIC X 5
     2 GLC5        1 GROUP        1 X    GLC  0     **** GLC X 6
     3 ZIP7       20 GROUP        1 Y    ZIP  0     ROOT ZIP Y 12
     4 GLP5        3 GROUP        1 Y    GLP  0     **** GLP Y 13
     5 ZIL7       19 GROUP        1 Z    ZIL  0     ROOT ZIL Z 19
     6 GLL5        2 GROUP        1 Z    GLL  0     **** GLL Z 20
@<TRIPOS>SET

