#    Name: 4ikt_TFV_1_ligand
#    Modification time : Tue Mar 25 04:08:15 2014

@<TRIPOS>MOLECULE
4ikt_TFV_1_ligand
   44    46     1     0     0
SMALL
NO_CHARGES


@<TRIPOS>ATOM
      1 F3         20.5010   -0.1900   22.3850 F         1 TFV401      0.0000 
      2 C18        19.8660   -0.7180   21.3620 C.3       1 TFV401      0.0000 
      3 F1         18.5810   -0.7450   21.6690 F         1 TFV401      0.0000 
      4 F2         20.0660    0.0860   20.3270 F         1 TFV401      0.0000 
      5 C15        20.3630   -2.1120   21.0480 C.ar      1 TFV401      0.0000 
      6 C14        19.6780   -2.9120   20.1270 C.ar      1 TFV401      0.0000 
      7 N6         20.1060   -4.1540   19.8220 N.ar      1 TFV401      0.0000 
      8 C16        21.5240   -2.6230   21.6420 C.ar      1 TFV401      0.0000 
      9 C17        21.9520   -3.9180   21.3120 C.ar      1 TFV401      0.0000 
     10 C13        21.2240   -4.6860   20.3910 C.ar      1 TFV401      0.0000 
     11 N5         21.6590   -5.9400   20.0730 N.pl3     1 TFV401      0.0000 
     12 C11        20.8780   -6.9170   19.3210 C.3       1 TFV401      0.0000 
     13 C10        21.1440   -6.8820   17.8120 C.3       1 TFV401      0.0000 
     14 N4         20.6410   -5.6440   17.2550 N.pl3     1 TFV401      0.0000 
     15 C7         20.6460   -5.3630   15.9340 C.ar      1 TFV401      0.0000 
     16 N3         21.2100   -6.2010   15.0310 N.ar      1 TFV401      0.0000 
     17 C8         20.0510   -4.1810   15.5070 C.ar      1 TFV401      0.0000 
     18 CL         19.3190   -3.0500   16.6800 Cl        1 TFV401      0.0000 
     19 C9         20.0300   -3.8360   14.1740 C.ar      1 TFV401      0.0000 
     20 C12        19.3940   -2.5450   13.7270 C.3       1 TFV401      0.0000 
     21 N2         20.6230   -4.6840   13.3000 N.ar      1 TFV401      0.0000 
     22 C6         21.1670   -5.8540   13.7160 C.ar      1 TFV401      0.0000 
     23 C5         21.8430   -6.6870   12.7000 C.ar      1 TFV401      0.0000 
     24 N1         22.1870   -6.0450   11.5560 N.ar      1 TFV401      0.0000 
     25 C4         22.2070   -8.0110   12.9060 C.ar      1 TFV401      0.0000 
     26 C3         22.8700   -8.6720   11.8840 C.ar      1 TFV401      0.0000 
     27 C2         23.2100   -8.0000   10.7210 C.ar      1 TFV401      0.0000 
     28 C1         22.8410   -6.6610   10.5690 C.ar      1 TFV401      0.0000 
     29 H          18.8212   -2.5199   19.6790 H         1 TFV401      0.0000 
     30 H          22.0537   -2.0606   22.3076 H         1 TFV401      0.0000 
     31 H          22.7975   -4.3031   21.7444 H         1 TFV401      0.0000 
     32 H          22.6166   -6.2599   20.3731 H         1 TFV401      0.0000 
     33 H          19.7935   -6.7531   19.4765 H         1 TFV401      0.0000 
     34 H          21.0900   -7.9442   19.6774 H         1 TFV401      0.0000 
     35 H          20.6531   -7.7495   17.3630 H         1 TFV401      0.0000 
     36 H          22.2218   -6.9797   17.6574 H         1 TFV401      0.0000 
     37 H          20.2595   -4.9519   17.9489 H         1 TFV401      0.0000 
     38 H          21.9930   -8.4807   13.7812 H         1 TFV401      0.0000 
     39 H          23.1116   -9.6699   11.9900 H         1 TFV401      0.0000 
     40 H          23.7272   -8.4759    9.9762 H         1 TFV401      0.0000 
     41 H          23.0854   -6.1772    9.6897 H         1 TFV401      0.0000 
     42 H          19.8352   -1.7500   14.1433 H         1 TFV401      0.0000 
     43 H          19.4514   -2.4264   12.7357 H         1 TFV401      0.0000 
     44 H          18.4252   -2.5041   13.9715 H         1 TFV401      0.0000 
@<TRIPOS>BOND
     1    2    1 1    
     2    3    2 1    
     3    4    2 1    
     4    5    2 1    
     5    6    5 ar   
     6    8    5 ar   
     7    7    6 ar   
     8   29    6 1    
     9   10    7 ar   
    10    9    8 ar   
    11   30    8 1    
    12   10    9 ar   
    13   31    9 1    
    14   11   10 1    
    15   12   11 1    
    16   32   11 1    
    17   13   12 1    
    18   33   12 1    
    19   34   12 1    
    20   14   13 1    
    21   35   13 1    
    22   36   13 1    
    23   15   14 1    
    24   37   14 1    
    25   16   15 ar   
    26   17   15 ar   
    27   22   16 ar   
    28   18   17 1    
    29   19   17 ar   
    30   20   19 1    
    31   21   19 ar   
    32   42   20 1    
    33   43   20 1    
    34   44   20 1    
    35   22   21 ar   
    36   23   22 1    
    37   24   23 ar   
    38   25   23 ar   
    39   28   24 ar   
    40   26   25 ar   
    41   38   25 1    
    42   27   26 ar   
    43   39   26 1    
    44   28   27 ar   
    45   40   27 1    
    46   41   28 1    
@<TRIPOS>SUBSTRUCTURE
     1 TFV401      1 GROUP   
@<TRIPOS>SET

