#    Name: 3nnu_EDB_1_INTS_M
#    Modification time : Tue Mar 25 01:53:11 2014

@<TRIPOS>MOLECULE
3nnu_EDB_1_INTS_M
   86     0     9     0     0
SMALL
NO_CHARGES


@<TRIPOS>ATOM
      1 CA         20.0160   13.8830   29.3315 C.3       3 GLC5        0.0000 
      2 CA         18.6190   12.3390   29.4570 C.3       9 GLL5        0.0000 
      3 CA         21.4130   15.4270   29.2060 C.3       6 GLP5        0.0000 
      4 CA         20.2985   10.7360   28.3105 C.3       3 GLC5        0.0000 
      5 CA         19.3070   11.3800   30.2120 C.3       9 GLL5        0.0000 
      6 CA         21.2900   10.0920   26.4090 C.3       6 GLP5        0.0000 
      7 CA         19.1765   10.4705   33.1935 C.3       3 GLC5        0.0000 
      8 CA         18.6330   10.5730   31.1380 C.3       9 GLL5        0.0000 
      9 CA         19.7200   10.3680   35.2490 C.3       6 GLP5        0.0000 
     10 CA         14.6660   13.2635   25.2715 C.3       3 GLC5        0.0000 
     11 CA         16.0910   14.5890   24.7260 C.3       9 GLL5        0.0000 
     12 CA         13.2410   11.9380   25.8170 C.3       6 GLP5        0.0000 
     13 CA         16.2740   12.6765   24.4735 C.3       3 GLC5        0.0000 
     14 CA         16.4570   10.7640   24.2210 C.3       6 GLP5        0.0000 
     15 CA         17.9690   13.5735   24.2885 C.3       3 GLC5        0.0000 
     16 CA         19.8470   12.5580   23.8510 C.3       6 GLP5        0.0000 
     17 CA         13.1500   18.3415   24.5390 C.3       3 GLC5        0.0000 
     18 CA         14.0000   18.5760   26.2800 C.3       9 GLL5        0.0000 
     19 CA         12.3000   18.1070   22.7980 C.3       6 GLP5        0.0000 
     20 N          18.4400   13.8640   26.0165 N.am      2 SEC2        0.0000 
     21 N          17.3030   13.1630   26.8620 N.am      8 SEL2        0.0000 
     22 N          19.5770   14.5650   25.1710 N.am      5 SEP2        0.0000 
     23 O          15.5140   14.5135   29.1760 O.2       1 ALC1        0.0000 
     24 O          16.4990   13.4340   28.9100 O.2       7 ALL1        0.0000 
     25 O          14.5290   15.5930   29.4420 O.2       4 ALP1        0.0000 
     26 CA         14.1170   17.3605   21.9495 C.3       3 GLC5        0.0000 
     27 CA         15.9340   16.6140   21.1010 C.3       9 GLL5        0.0000 
     28 CA         16.4265   12.4400   22.9955 C.3       3 GLC5        0.0000 
     29 CA         16.3960   14.1160   21.7700 C.3       9 GLL5        0.0000 
     30 CA         18.1215   13.3370   22.8105 C.3       3 GLC5        0.0000 
     31 CA         18.3910   13.7460   20.0680 C.3       3 GLC5        0.0000 
     32 CA         16.4460   14.2320   20.3950 C.3       9 GLL5        0.0000 
     33 CA         20.3360   13.2600   19.7410 C.3       6 GLP5        0.0000 
     34 CA         12.8185   22.0745   28.3490 C.3       3 GLC5        0.0000 
     35 CA         13.0600   20.6610   26.8480 C.3       9 GLL5        0.0000 
     36 CA         12.5770   23.4880   29.8500 C.3       6 GLP5        0.0000 
     37 CA         11.9390   21.6070   25.5715 C.3       3 GLC5        0.0000 
     38 CA         10.8180   22.5530   24.2950 C.3       6 GLP5        0.0000 
     39 N          11.9490   23.8810   26.3945 N.am      2 SEC2        0.0000 
     40 N          13.2710   23.0280   26.6720 N.am      8 SEL2        0.0000 
     41 N          10.6270   24.7340   26.1170 N.am      5 SEP2        0.0000 
     42 CA         15.3035   13.2575   31.8675 C.3       3 GLC5        0.0000 
     43 CA         14.8210   11.8790   30.6730 C.3       9 GLL5        0.0000 
     44 CA         15.7860   14.6360   33.0620 C.3       6 GLP5        0.0000 
     45 CA         13.6175   12.2325   29.4095 C.3       3 GLC5        0.0000 
     46 CA         12.4140   12.5860   28.1460 C.3       6 GLP5        0.0000 
     47 CA         13.2705   11.6220   31.5685 C.3       3 GLC5        0.0000 
     48 CA         11.7200   11.3650   32.4640 C.3       6 GLP5        0.0000 
     49 CA         14.8190   10.1155   29.9455 C.3       3 GLC5        0.0000 
     50 CA         14.8170    8.3520   29.2180 C.3       6 GLP5        0.0000 
     51 CA         18.0095   10.0520   33.8345 C.3       3 GLC5        0.0000 
     52 CA         16.2990    9.7360   32.4200 C.3       9 GLL5        0.0000 
     53 CA         17.6090    8.4445   32.8280 C.3       3 GLC5        0.0000 
     54 CA         18.9190    7.1530   33.2360 C.3       6 GLP5        0.0000 
     55 CA         15.8575    8.9415   34.2430 C.3       3 GLC5        0.0000 
     56 CA         15.4160    8.1470   36.0660 C.3       6 GLP5        0.0000 
     57 CA         15.5580    9.0440   30.8190 C.3       3 GLC5        0.0000 
     58 CA         18.0415   10.7303   28.4453 C.3       3 GLC5        0.0000 
     59 CA         17.1200    9.6010   27.0560 C.3       6 GLP5        0.0000 
     60 CA         18.4320    8.9022   32.2215 C.3       3 GLC5        0.0000 
     61 CA         17.5325   10.1263   29.1315 C.3       3 GLC5        0.0000 
     62 CA         16.0870   11.4395   33.1955 C.3       3 GLC5        0.0000 
     63 CA         17.2570   10.7300   31.2760 C.3       9 GLL5        0.0000 
     64 CA         15.3960   12.6460   34.5430 C.3       6 GLP5        0.0000 
     65 CA         15.8672    9.7795   30.0570 C.3       3 GLC5        0.0000 
     66 CA         16.3412   13.3588   31.5555 C.3       3 GLC5        0.0000 
     67 CA         16.5780   11.6840   30.5160 C.3       9 GLL5        0.0000 
     68 CA         17.0083   10.8412   28.5525 C.3       3 GLC5        0.0000 
     69 CA         17.5742   16.0407   24.7777 C.3       3 GLC5        0.0000 
     70 CA         19.1160   16.9850   25.3000 C.3       6 GLP5        0.0000 
     71 CA         17.4007   17.3242   26.2090 C.3       3 GLC5        0.0000 
     72 CA         15.3330   17.5750   26.5150 C.3       9 GLL5        0.0000 
     73 CA         14.0624   17.1964   28.2255 C.3       3 GLC5        0.0000 
     74 CA         12.3690   16.1620   28.5800 C.3       6 GLP5        0.0000 
     75 CA         16.8605   14.0485   18.4850 C.3       3 GLC5        0.0000 
     76 CA         17.3860   13.2300   16.8720 C.3       6 GLP5        0.0000 
     77 CA         14.7045   16.9625   19.1635 C.3       3 GLC5        0.0000 
     78 CA         16.2240   15.5020   19.8010 C.3       9 GLL5        0.0000 
     79 CA         13.3300   17.8670   17.8760 C.3       6 GLP5        0.0000 
     80 CA         16.1785   12.3760   20.4832 C.3       3 GLC5        0.0000 
     81 CA         15.9360   10.5780   19.8840 C.3       6 GLP5        0.0000 
     82 CA         12.6277   18.7311   27.8646 C.3       3 GLC5        0.0000 
     83 CA         11.4950   17.4150   28.5340 C.3       6 GLP5        0.0000 
     84 CA         18.0180   15.7116   20.7995 C.3       3 GLC5        0.0000 
     85 CA         16.1110   15.3630   22.3120 C.3       9 GLL5        0.0000 
     86 CA         19.7780   16.4810   20.3670 C.3       6 GLP5        0.0000 
@<TRIPOS>BOND
@<TRIPOS>SUBSTRUCTURE
     1 ALC1       23 GROUP        1 X    ALC  0     ROOT ALC X 1
     2 SEC2       20 GROUP        1 X    SEC  0     **** SEC X 2
     3 GLC5        1 GROUP        1 X    GLC  0     **** GLC X 6
     4 ALP1       25 GROUP        1 Y    ALP  0     ROOT ALP Y 8
     5 SEP2       22 GROUP        1 Y    SEP  0     **** SEP Y 9
     6 GLP5        3 GROUP        1 Y    GLP  0     **** GLP Y 13
     7 ALL1       24 GROUP        1 Z    ALL  0     ROOT ALL Z 15
     8 SEL2       21 GROUP        1 Z    SEL  0     **** SEL Z 16
     9 GLL5        2 GROUP        1 Z    GLL  0     **** GLL Z 20
@<TRIPOS>SET

