#    Name: 3nnu_EDB_1_ligand
#    Modification time : Tue Mar 25 01:53:11 2014

@<TRIPOS>MOLECULE
3nnu_EDB_1_ligand
   49    52     1     0     0
SMALL
NO_CHARGES


@<TRIPOS>ATOM
      1 C1         18.6190   12.3390   29.4570 C.ar      1 EDB355      0.0000 
      2 C2         19.3070   11.3800   30.2120 C.ar      1 EDB355      0.0000 
      3 C3         18.6330   10.5730   31.1380 C.ar      1 EDB355      0.0000 
      4 C4         17.2570   10.7300   31.2760 C.ar      1 EDB355      0.0000 
      5 C5         16.5780   11.6840   30.5160 C.ar      1 EDB355      0.0000 
      6 C6         17.2150   12.4790   29.5820 C.ar      1 EDB355      0.0000 
      7 C13        15.9740   15.6040   23.7850 C.2       1 EDB355      0.0000 
      8 C14        16.0910   14.5890   24.7260 C.2       1 EDB355      0.0000 
      9 C15        15.8340   15.2430   25.9330 C.2       1 EDB355      0.0000 
     10 N16        15.5810   16.5590   25.6530 N.pl3     1 EDB355      0.0000 
     11 N17        15.6540   16.8170   24.2850 N.pl3     1 EDB355      0.0000 
     12 C23        15.3330   17.5750   26.5150 C.ar      1 EDB355      0.0000 
     13 C24        14.0000   18.5760   26.2800 C.ar      1 EDB355      0.0000 
     14 C25        14.1300   19.6350   27.1710 C.ar      1 EDB355      0.0000 
     15 C26        14.8570   19.7610   28.3590 C.ar      1 EDB355      0.0000 
     16 C27        15.8260   18.7980   28.6240 C.ar      1 EDB355      0.0000 
     17 C28        16.0380   17.7520   27.7210 C.ar      1 EDB355      0.0000 
     18 N36        15.8350   14.8090   27.2280 N.2       1 EDB355      0.0000 
     19 C38        16.5820   13.7780   27.6300 C.2       1 EDB355      0.0000 
     20 O40        17.3030   13.1630   26.8620 O.2       1 EDB355      0.0000 
     21 N42        16.4990   13.4340   28.9100 N.am      1 EDB355      0.0000 
     22 C45        16.2240   15.5020   19.8010 C.2       1 EDB355      0.0000 
     23 S46        15.9340   16.6140   21.1010 S.3       1 EDB355      0.0000 
     24 C47        16.1110   15.3630   22.3120 C.2       1 EDB355      0.0000 
     25 C48        16.3960   14.1160   21.7700 C.2       1 EDB355      0.0000 
     26 C49        16.4460   14.2320   20.3950 C.2       1 EDB355      0.0000 
     27 C56        13.0600   20.6610   26.8480 C.3       1 EDB355      0.0000 
     28 C58        13.6560   21.9340   26.2860 C.2       1 EDB355      0.0000 
     29 O60        13.2710   23.0280   26.6720 O.2       1 EDB355      0.0000 
     30 N62        14.5920   21.7900   25.3630 N.am      1 EDB355      0.0000 
     31 CL64       14.8210   11.8790   30.6730 Cl        1 EDB355      0.0000 
     32 CL66       16.2990    9.7360   32.4200 Cl        1 EDB355      0.0000 
     33 H          19.1292   12.9469   28.8076 H         1 EDB355      0.0000 
     34 H          20.3242   11.2665   30.0843 H         1 EDB355      0.0000 
     35 H          19.1403    9.8909   31.6933 H         1 EDB355      0.0000 
     36 H          16.2882   13.7057   24.5926 H         1 EDB355      0.0000 
     37 H          15.5150   17.6177   23.8603 H         1 EDB355      0.0000 
     38 H          13.4107   18.3285   25.6582 H         1 EDB355      0.0000 
     39 H          14.6831   20.5226   28.9978 H         1 EDB355      0.0000 
     40 H          16.3871   18.8532   29.4824 H         1 EDB355      0.0000 
     41 H          16.7830   17.0380   27.9579 H         1 EDB355      0.0000 
     42 H          15.7644   13.9776   29.5229 H         1 EDB355      0.0000 
     43 H          16.2002   15.8348   18.9912 H         1 EDB355      0.0000 
     44 H          16.5335   13.3152   22.2692 H         1 EDB355      0.0000 
     45 H          16.6383   13.4278   19.7997 H         1 EDB355      0.0000 
     46 H          12.4986   20.8948   27.7589 H         1 EDB355      0.0000 
     47 H          12.3612   20.2356   26.1198 H         1 EDB355      0.0000 
     48 H          14.8348   20.8494   25.1255 H         1 EDB355      0.0000 
     49 H          14.9721   22.6347   24.9862 H         1 EDB355      0.0000 
@<TRIPOS>BOND
     1    2    1 ar   
     2    6    1 ar   
     3   33    1 1    
     4    3    2 ar   
     5   34    2 1    
     6    4    3 ar   
     7   35    3 1    
     8    5    4 ar   
     9   32    4 1    
    10    6    5 ar   
    11   31    5 1    
    12   21    6 1    
    13    8    7 2    
    14   11    7 1    
    15   24    7 1    
    16    9    8 1    
    17   36    8 1    
    18   10    9 1    
    19   18    9 2    
    20   11   10 1    
    21   12   10 1    
    22   37   11 1    
    23   13   12 ar   
    24   17   12 ar   
    25   14   13 ar   
    26   38   13 1    
    27   15   14 ar   
    28   27   14 1    
    29   16   15 ar   
    30   39   15 1    
    31   17   16 ar   
    32   40   16 1    
    33   41   17 1    
    34   19   18 1    
    35   20   19 2    
    36   21   19 am   
    37   42   21 1    
    38   23   22 1    
    39   26   22 2    
    40   43   22 1    
    41   24   23 1    
    42   25   24 2    
    43   26   25 1    
    44   44   25 1    
    45   45   26 1    
    46   28   27 1    
    47   46   27 1    
    48   47   27 1    
    49   29   28 2    
    50   30   28 am   
    51   48   30 1    
    52   49   30 1    
@<TRIPOS>SUBSTRUCTURE
     1 EDB355      1 GROUP   
@<TRIPOS>SET

