#    Name: 3be0_CNL_2_INTS_M
#    Modification time : Mon Mar 24 19:19:01 2014

@<TRIPOS>MOLECULE
3be0_CNL_2_INTS_M
   32     0     3     0     0
SMALL
NO_CHARGES


@<TRIPOS>ATOM
      1 CA          4.0685   23.4900   34.4285 C.3       1 GLC5        0.0000 
      2 CA          4.3040   22.6390   36.1870 C.3       3 GLL5        0.0000 
      3 CA          3.8330   24.3410   32.6700 C.3       2 GLP5        0.0000 
      4 CA          2.9840   21.3755   34.9855 C.3       1 GLC5        0.0000 
      5 CA          1.6640   20.1120   33.7840 C.3       2 GLP5        0.0000 
      6 CA          6.9980   24.0350   37.0820 C.3       1 GLC5        0.0000 
      7 CA          5.5690   22.4520   37.1430 C.3       3 GLL5        0.0000 
      8 CA          8.4270   25.6180   37.0210 C.3       2 GLP5        0.0000 
      9 CA          5.3815   18.9925   35.2390 C.3       1 GLC5        0.0000 
     10 CA          5.0020   19.8890   37.2130 C.3       3 GLL5        0.0000 
     11 CA          5.7610   18.0960   33.2650 C.3       2 GLP5        0.0000 
     12 CA          2.0420   19.0425   39.8255 C.3       1 GLC5        0.0000 
     13 CA          2.5970   19.5500   38.0770 C.3       3 GLL5        0.0000 
     14 CA          1.4870   18.5350   41.5740 C.3       2 GLP5        0.0000 
     15 CA          1.9015   17.9475   37.1355 C.3       1 GLC5        0.0000 
     16 CA          1.2060   16.3450   36.1940 C.3       2 GLP5        0.0000 
     17 CA          4.1270   25.6235   38.0320 C.3       1 GLC5        0.0000 
     18 CA          4.4900   23.9110   39.0410 C.3       3 GLL5        0.0000 
     19 CA          3.7640   27.3360   37.0230 C.3       2 GLP5        0.0000 
     20 CA          5.9825   24.2650   40.5845 C.3       1 GLC5        0.0000 
     21 CA          7.4750   24.6190   42.1280 C.3       2 GLP5        0.0000 
     22 CA          6.8375   23.4755   40.9175 C.3       1 GLC5        0.0000 
     23 CA          6.2000   22.3320   39.7070 C.3       3 GLL5        0.0000 
     24 CA          4.9180   22.4630   41.4920 C.3       1 GLC5        0.0000 
     25 CA          3.6360   22.5940   43.2770 C.3       2 GLP5        0.0000 
     26 CA          6.9276   22.2009   35.6890 C.3       1 GLC5        0.0000 
     27 CA          6.1180   20.9800   36.8650 C.3       3 GLL5        0.0000 
     28 CA          8.3280   22.6390   34.6130 C.3       2 GLP5        0.0000 
     29 CA          1.4581   20.9859   38.5962 C.3       1 GLC5        0.0000 
     30 CA          3.6720   20.5950   37.7100 C.3       3 GLL5        0.0000 
     31 CA         -0.0960   21.6600   39.5930 C.3       2 GLP5        0.0000 
     32 CA          2.3381   20.2119   35.6917 C.3       1 GLC5        0.0000 
@<TRIPOS>BOND
@<TRIPOS>SUBSTRUCTURE
     1 GLC5        1 GROUP        1 X    GLC  0     ROOT GLC X 6
     2 GLP5        3 GROUP        1 Y    GLP  0     ROOT GLP Y 13
     3 GLL5        2 GROUP        1 Z    GLL  0     ROOT GLL Z 20
@<TRIPOS>SET

