#    Name: 3be0_CNL_2_ligand
#    Modification time : Mon Mar 24 19:19:01 2014

@<TRIPOS>MOLECULE
3be0_CNL_2_ligand
   29    30     1     0     0
SMALL
NO_CHARGES


@<TRIPOS>ATOM
      1 C1          3.6720   20.5950   37.7100 C.3       1 CNL500      0.0000 
      2 C2          3.1830   21.5520   36.5340 C.3       1 CNL500      0.0000 
      3 C3          4.3040   22.6390   36.1870 C.3       1 CNL500      0.0000 
      4 C4          5.5690   22.4520   37.1430 C.3       1 CNL500      0.0000 
      5 C5          6.1180   20.9800   36.8650 C.3       1 CNL500      0.0000 
      6 C6          5.0020   19.8890   37.2130 C.3       1 CNL500      0.0000 
      7 C7          2.5970   19.5500   38.0770 C.3       1 CNL500      0.0000 
      8 C8          5.0780   22.5370   38.6630 C.3       1 CNL500      0.0000 
      9 C9          4.4900   23.9110   39.0410 C.3       1 CNL500      0.0000 
     10 C10         6.2000   22.3320   39.7070 C.3       1 CNL500      0.0000 
     11 O           4.0330   21.4730   38.8780 O.3       1 CNL500      0.0000 
     12 H           2.2953   22.0652   36.8510 H         1 CNL500      0.0000 
     13 H           2.9986   20.9592   35.6585 H         1 CNL500      0.0000 
     14 H           3.8945   23.6161   36.3436 H         1 CNL500      0.0000 
     15 H           4.6150   22.4990   35.1718 H         1 CNL500      0.0000 
     16 H           6.2802   23.1476   36.9409 H         1 CNL500      0.0000 
     17 H           6.9733   20.8067   37.4886 H         1 CNL500      0.0000 
     18 H           6.3682   20.8951   35.8255 H         1 CNL500      0.0000 
     19 H           4.7883   19.3252   36.3251 H         1 CNL500      0.0000 
     20 H           5.3761   19.2567   37.9954 H         1 CNL500      0.0000 
     21 H           2.3650   18.9667   37.2986 H         1 CNL500      0.0000 
     22 H           2.9015   18.9471   38.8144 H         1 CNL500      0.0000 
     23 H           1.7485   19.9818   38.3829 H         1 CNL500      0.0000 
     24 H           5.1577   24.6460   38.9228 H         1 CNL500      0.0000 
     25 H           3.6963   24.1428   38.4785 H         1 CNL500      0.0000 
     26 H           4.1910   23.9373   39.9949 H         1 CNL500      0.0000 
     27 H           6.6337   21.4357   39.6149 H         1 CNL500      0.0000 
     28 H           6.9221   23.0178   39.6157 H         1 CNL500      0.0000 
     29 H           5.8527   22.3948   40.6426 H         1 CNL500      0.0000 
@<TRIPOS>BOND
     1    2    1 1    
     2    6    1 1    
     3    7    1 1    
     4   11    1 1    
     5    3    2 1    
     6   12    2 1    
     7   13    2 1    
     8    4    3 1    
     9   14    3 1    
    10   15    3 1    
    11    5    4 1    
    12    8    4 1    
    13   16    4 1    
    14    6    5 1    
    15   17    5 1    
    16   18    5 1    
    17   19    6 1    
    18   20    6 1    
    19   21    7 1    
    20   22    7 1    
    21   23    7 1    
    22    9    8 1    
    23   10    8 1    
    24   11    8 1    
    25   24    9 1    
    26   25    9 1    
    27   26    9 1    
    28   27   10 1    
    29   28   10 1    
    30   29   10 1    
@<TRIPOS>SUBSTRUCTURE
     1 CNL500      1 GROUP   
@<TRIPOS>SET

