#    Name: 2pl0_STI_1_INTS_M
#    Modification time : Mon Mar 24 19:12:31 2014

@<TRIPOS>MOLECULE
2pl0_STI_1_INTS_M
   93     0     9     0     0
SMALL
NO_CHARGES


@<TRIPOS>ATOM
      1 CA         30.9980   17.8645    6.6120 C.3       3 GLC5        0.0000 
      2 CA         30.3950   16.1200    5.5550 C.3       9 GLL5        0.0000 
      3 CA         31.6010   19.6090    7.6690 C.3       6 GLP5        0.0000 
      4 CA         32.6920   18.5685    4.2205 C.3       3 GLC5        0.0000 
      5 CA         30.8250   17.7460    3.8980 C.3       9 GLL5        0.0000 
      6 CA         34.5590   19.3910    4.5430 C.3       6 GLP5        0.0000 
      7 CA         25.7910   16.0915    6.2600 C.3       3 GLC5        0.0000 
      8 CA         26.2060   16.2690    8.0720 C.3       9 GLL5        0.0000 
      9 CA         25.3760   15.9140    4.4480 C.3       6 GLP5        0.0000 
     10 O          24.4610   17.8040    7.4540 O.2       1 ALC1        0.0000 
     11 O          25.1030   17.0500    8.3970 O.2       7 ALL1        0.0000 
     12 O          23.8190   18.5580    6.5110 O.2       4 ALP1        0.0000 
     13 CA         22.1870   13.8310   11.3755 C.3       3 GLC5        0.0000 
     14 CA         22.1930   15.9500   11.2730 C.3       9 GLL5        0.0000 
     15 CA         22.1810   11.7120   11.4780 C.3       6 GLP5        0.0000 
     16 CA         21.1740   17.2695   12.0335 C.3       3 GLC5        0.0000 
     17 CA         20.1550   18.5890   12.7940 C.3       6 GLP5        0.0000 
     18 CA         24.5965   19.3760   11.1780 C.3       3 GLC5        0.0000 
     19 CA         24.1620   17.2540   10.6200 C.3       9 GLL5        0.0000 
     20 CA         25.0310   21.4980   11.7360 C.3       6 GLP5        0.0000 
     21 CA         22.0455   18.6800   13.8365 C.3       3 GLC5        0.0000 
     22 CA         23.9360   18.7710   14.8790 C.3       9 GLL5        0.0000 
     23 CA         21.3880   18.9275   14.9290 C.3       3 GLC5        0.0000 
     24 CA         23.0740   18.0890   15.7900 C.3       9 GLL5        0.0000 
     25 CA         19.7020   19.7660   14.0680 C.3       6 GLP5        0.0000 
     26 CA         24.7300   22.5210   16.3725 C.3       3 GLC5        0.0000 
     27 CA         24.3530   20.4900   16.5850 C.3       9 GLL5        0.0000 
     28 CA         25.1070   24.5520   16.1600 C.3       6 GLP5        0.0000 
     29 CA         26.3725   20.1300   14.5290 C.3       3 GLC5        0.0000 
     30 CA         24.5750   19.9810   15.2930 C.3       9 GLL5        0.0000 
     31 CA         28.1700   20.2790   13.7650 C.3       6 GLP5        0.0000 
     32 CA         21.8080   21.9175   19.3865 C.3       3 GLC5        0.0000 
     33 CA         23.2760   20.3770   18.8800 C.3       9 GLL5        0.0000 
     34 CA         20.3400   23.4580   19.8930 C.3       6 GLP5        0.0000 
     35 CA         25.7865   18.1635   18.6070 C.3       3 GLC5        0.0000 
     36 CA         24.9350   19.0940   20.1820 C.3       9 GLL5        0.0000 
     37 CA         26.6380   17.2330   17.0320 C.3       6 GLP5        0.0000 
     38 O          24.9110   19.3440   23.0500 O.2       1 ALC1        0.0000 
     39 O          24.3330   18.2690   22.4410 O.2       7 ALL1        0.0000 
     40 O          25.4890   20.4190   23.6590 O.2       4 ALP1        0.0000 
     41 CA         25.3315   18.2695   25.1225 C.3       3 GLC5        0.0000 
     42 CA         24.4670   17.1930   23.4340 C.3       9 GLL5        0.0000 
     43 CA         26.1960   19.3460   26.8110 C.3       6 GLP5        0.0000 
     44 N          26.2965   18.4100   13.9605 N.am      2 SEC2        0.0000 
     45 N          25.2280   18.4670   12.9470 N.am      8 SEL2        0.0000 
     46 N          27.3650   18.3530   14.9740 N.am      5 SEP2        0.0000 
     47 CA         24.2060   15.4855    6.0500 C.3       3 GLC5        0.0000 
     48 CA         23.0360   15.0570    7.6520 C.3       9 GLL5        0.0000 
     49 CA         22.3825   14.0220    5.9850 C.3       3 GLC5        0.0000 
     50 CA         21.7290   12.9870    4.3180 C.3       6 GLP5        0.0000 
     51 CA         22.6130   17.2015    7.8865 C.3       3 GLC5        0.0000 
     52 CA         22.1900   19.3460    8.1210 C.3       6 GLP5        0.0000 
     53 CA         28.0488   18.8575    3.1265 C.3       3 GLC5        0.0000 
     54 CA         28.6700   17.7700    5.0050 C.3       9 GLL5        0.0000 
     55 CA         26.9860   19.6710    1.7210 C.3       6 GLP5        0.0000 
     56 CA         30.1930   19.8120    3.1543 C.3       3 GLC5        0.0000 
     57 CA         29.5530   18.3180    4.0590 C.3       9 GLL5        0.0000 
     58 CA         30.1970   21.5920    2.3300 C.3       6 GLP5        0.0000 
     59 CA         30.8950   18.8205    5.8238 C.3       3 GLC5        0.0000 
     60 CA         27.1273   16.5600    4.9203 C.3       3 GLC5        0.0000 
     61 CA         26.8265   15.6605    5.7672 C.3       3 GLC5        0.0000 
     62 CA         28.1590   16.0470    6.7960 C.3       9 GLL5        0.0000 
     63 CA         28.8564   18.3537    7.1481 C.3       3 GLC5        0.0000 
     64 CA         29.1940   20.0810    8.2020 C.3       6 GLP5        0.0000 
     65 CA         27.0583   12.9123    7.0957 C.3       3 GLC5        0.0000 
     66 CA         28.3950   14.7670    7.3770 C.3       9 GLL5        0.0000 
     67 CA         26.1880   11.2910    6.3420 C.3       6 GLP5        0.0000 
     68 CA         20.3930   15.8773   10.2833 C.3       3 GLC5        0.0000 
     69 CA         22.1550   15.3590    9.9920 C.3       9 GLL5        0.0000 
     70 CA         18.6120   16.1000    9.9340 C.3       6 GLP5        0.0000 
     71 CA         22.5389   17.5591    8.8528 C.3       3 GLC5        0.0000 
     72 CA         22.3427   18.3715   11.3645 C.3       3 GLC5        0.0000 
     73 CA         21.0070   19.6640   11.6180 C.3       6 GLP5        0.0000 
     74 CA         22.9343   18.2125    9.6160 C.3       3 GLC5        0.0000 
     75 CA         23.1950   16.9040   11.6020 C.3       9 GLL5        0.0000 
     76 CA         24.6432   20.4370   13.4110 C.3       3 GLC5        0.0000 
     77 CA         25.0715   17.8315   16.1833 C.3       3 GLC5        0.0000 
     78 CA         21.5370   16.9600   15.9788 C.3       3 GLC5        0.0000 
     79 CA         20.1080   15.5710   15.5200 C.3       6 GLP5        0.0000 
     80 CA         24.9080   18.2207   17.1588 C.3       3 GLC5        0.0000 
     81 CA         22.8580   18.6090   17.0850 C.3       9 GLL5        0.0000 
     82 CA         25.5510   18.7342   16.4855 C.3       3 GLC5        0.0000 
     83 CA         26.5373   19.1852   21.7605 C.3       3 GLC5        0.0000 
     84 CA         28.0740   19.8570   22.8340 C.3       6 GLP5        0.0000 
     85 CA         21.0748   19.2180   21.2172 C.3       3 GLC5        0.0000 
     86 CA         22.9000   18.5900   22.2030 C.3       9 GLL5        0.0000 
     87 CA         19.3060   19.2710   20.7440 C.3       6 GLP5        0.0000 
     88 CA         21.5087   20.3905   22.8867 C.3       3 GLC5        0.0000 
     89 CA         22.7870   19.7400   21.1780 C.3       9 GLL5        0.0000 
     90 CA         20.1740   21.6160   24.0830 C.3       6 GLP5        0.0000 
     91 CA         22.2493   13.6128    8.7903 C.3       3 GLC5        0.0000 
     92 CA         23.1110   15.7050    9.0180 C.3       9 GLL5        0.0000 
     93 CA         21.6640   11.9310    9.0020 C.3       6 GLP5        0.0000 
@<TRIPOS>BOND
@<TRIPOS>SUBSTRUCTURE
     1 ALC1       10 GROUP        1 X    ALC  0     ROOT ALC X 1
     2 SEC2       44 GROUP        1 X    SEC  0     **** SEC X 2
     3 GLC5        1 GROUP        1 X    GLC  0     **** GLC X 6
     4 ALP1       12 GROUP        1 Y    ALP  0     ROOT ALP Y 8
     5 SEP2       46 GROUP        1 Y    SEP  0     **** SEP Y 9
     6 GLP5        3 GROUP        1 Y    GLP  0     **** GLP Y 13
     7 ALL1       11 GROUP        1 Z    ALL  0     ROOT ALL Z 15
     8 SEL2       45 GROUP        1 Z    SEL  0     **** SEL Z 16
     9 GLL5        2 GROUP        1 Z    GLL  0     **** GLL Z 20
@<TRIPOS>SET

