#    Name: 2pl0_STI_1_ligand
#    Modification time : Mon Mar 24 19:12:31 2014

@<TRIPOS>MOLECULE
2pl0_STI_1_ligand
   69    73     1     0     0
SMALL
NO_CHARGES


@<TRIPOS>ATOM
      1 C1         29.5530   18.3180    4.0590 C.ar      1 STI200      0.0000 
      2 C6         28.6700   17.7700    5.0050 C.ar      1 STI200      0.0000 
      3 C5         29.0870   16.6420    5.7800 C.ar      1 STI200      0.0000 
      4 C4         30.3950   16.1200    5.5550 C.ar      1 STI200      0.0000 
      5 N3         31.1990   16.6850    4.6360 N.ar      1 STI200      0.0000 
      6 C2         30.8250   17.7460    3.8980 C.ar      1 STI200      0.0000 
      7 C7         28.1590   16.0470    6.7960 C.ar      1 STI200      0.0000 
      8 C12        28.3950   14.7670    7.3770 C.ar      1 STI200      0.0000 
      9 C11        27.4620   14.3000    8.3220 C.ar      1 STI200      0.0000 
     10 N10        26.3970   15.0630    8.6440 N.ar      1 STI200      0.0000 
     11 C9         26.2060   16.2690    8.0720 C.ar      1 STI200      0.0000 
     12 N8         27.0670   16.7450    7.1750 N.ar      1 STI200      0.0000 
     13 N13        25.1030   17.0500    8.3970 N.pl3     1 STI200      0.0000 
     14 C14        24.1300   16.6660    9.3360 C.ar      1 STI200      0.0000 
     15 C19        23.1110   15.7050    9.0180 C.ar      1 STI200      0.0000 
     16 C18        22.1550   15.3590    9.9920 C.ar      1 STI200      0.0000 
     17 C17        22.1930   15.9500   11.2730 C.ar      1 STI200      0.0000 
     18 C16        23.1950   16.9040   11.6020 C.ar      1 STI200      0.0000 
     19 C15        24.1620   17.2540   10.6200 C.ar      1 STI200      0.0000 
     20 N21        23.1750   17.4890   12.9100 N.am      1 STI200      0.0000 
     21 C22        24.1680   18.2310   13.5100 C.2       1 STI200      0.0000 
     22 C23        23.9360   18.7710   14.8790 C.ar      1 STI200      0.0000 
     23 C25        23.0740   18.0890   15.7900 C.ar      1 STI200      0.0000 
     24 C26        22.8580   18.6090   17.0850 C.ar      1 STI200      0.0000 
     25 C27        23.4980   19.8080   17.4860 C.ar      1 STI200      0.0000 
     26 C28        24.3530   20.4900   16.5850 C.ar      1 STI200      0.0000 
     27 C29        24.5750   19.9810   15.2930 C.ar      1 STI200      0.0000 
     28 C46        23.2760   20.3770   18.8800 C.3       1 STI200      0.0000 
     29 N48        23.4910   19.3560   19.9290 N.3       1 STI200      0.0000 
     30 C53        24.9350   19.0940   20.1820 C.3       1 STI200      0.0000 
     31 C52        25.0660   17.9330   21.1920 C.3       1 STI200      0.0000 
     32 N51        24.3330   18.2690   22.4410 N.4       1 STI200      0.0000 
     33 C54        24.4670   17.1930   23.4340 C.3       1 STI200      0.0000 
     34 C50        22.9000   18.5900   22.2030 C.3       1 STI200      0.0000 
     35 C49        22.7870   19.7400   21.1780 C.3       1 STI200      0.0000 
     36 O29        25.2280   18.4670   12.9470 O.2       1 STI200      0.0000 
     37 C20        23.0360   15.0570    7.6520 C.3       1 STI200      0.0000 
     38 H          29.2733   19.1197    3.4978 H         1 STI200      0.0000 
     39 H          27.7452   18.1614    5.1453 H         1 STI200      0.0000 
     40 H          30.6916   15.3070    6.1162 H         1 STI200      0.0000 
     41 H          31.4650   18.1649    3.1954 H         1 STI200      0.0000 
     42 H          29.1974   14.2262    7.1170 H         1 STI200      0.0000 
     43 H          27.6154   13.3755    8.7512 H         1 STI200      0.0000 
     44 H          24.9845   17.9781    7.9187 H         1 STI200      0.0000 
     45 H          21.4258   14.6733    9.7706 H         1 STI200      0.0000 
     46 H          21.4941   15.6924   11.9761 H         1 STI200      0.0000 
     47 H          24.8872   17.9396   10.8499 H         1 STI200      0.0000 
     48 H          22.2718   17.3172   13.4712 H         1 STI200      0.0000 
     49 H          22.6169   17.2258   15.4987 H         1 STI200      0.0000 
     50 H          22.2397   18.1216   17.7355 H         1 STI200      0.0000 
     51 H          24.8093   21.3574   16.8806 H         1 STI200      0.0000 
     52 H          25.1912   20.4684   14.6424 H         1 STI200      0.0000 
     53 H          22.2518   20.7706   18.9374 H         1 STI200      0.0000 
     54 H          23.9632   21.2218   19.0258 H         1 STI200      0.0000 
     55 H          25.4141   19.9701   20.6034 H         1 STI200      0.0000 
     56 H          25.4378   18.8086   19.2653 H         1 STI200      0.0000 
     57 H          26.1220   17.7770   21.3979 H         1 STI200      0.0000 
     58 H          24.6548   17.0358   20.7362 H         1 STI200      0.0000 
     59 H          24.8099   19.1801   22.8726 H         1 STI200      0.0000 
     60 H          22.4205   18.9064   23.1256 H         1 STI200      0.0000 
     61 H          22.3751   17.7252   21.8055 H         1 STI200      0.0000 
     62 H          21.7342   19.9226   20.9852 H         1 STI200      0.0000 
     63 H          23.2332   20.6292   21.6128 H         1 STI200      0.0000 
     64 H          25.4226   17.0330   23.6816 H         1 STI200      0.0000 
     65 H          23.9766   17.4047   24.2794 H         1 STI200      0.0000 
     66 H          24.1033   16.3259   23.0935 H         1 STI200      0.0000 
     67 H          23.8684   14.5462    7.4371 H         1 STI200      0.0000 
     68 H          22.2727   14.4142    7.5873 H         1 STI200      0.0000 
     69 H          22.9117   15.7337    6.9263 H         1 STI200      0.0000 
@<TRIPOS>BOND
     1    2    1 ar   
     2    6    1 ar   
     3   38    1 1    
     4    3    2 ar   
     5   39    2 1    
     6    4    3 ar   
     7    7    3 1    
     8    5    4 ar   
     9   40    4 1    
    10    6    5 ar   
    11   41    6 1    
    12    8    7 ar   
    13   12    7 ar   
    14    9    8 ar   
    15   42    8 1    
    16   10    9 ar   
    17   43    9 1    
    18   11   10 ar   
    19   12   11 ar   
    20   13   11 1    
    21   14   13 1    
    22   44   13 1    
    23   15   14 ar   
    24   19   14 ar   
    25   16   15 ar   
    26   37   15 1    
    27   17   16 ar   
    28   45   16 1    
    29   18   17 ar   
    30   46   17 1    
    31   19   18 ar   
    32   20   18 1    
    33   47   19 1    
    34   21   20 am   
    35   48   20 1    
    36   22   21 1    
    37   36   21 2    
    38   23   22 ar   
    39   27   22 ar   
    40   24   23 ar   
    41   49   23 1    
    42   25   24 ar   
    43   50   24 1    
    44   26   25 ar   
    45   28   25 1    
    46   27   26 ar   
    47   51   26 1    
    48   52   27 1    
    49   29   28 1    
    50   53   28 1    
    51   54   28 1    
    52   30   29 1    
    53   35   29 1    
    54   31   30 1    
    55   55   30 1    
    56   56   30 1    
    57   32   31 1    
    58   57   31 1    
    59   58   31 1    
    60   33   32 1    
    61   34   32 1    
    62   59   32 1    
    63   64   33 1    
    64   65   33 1    
    65   66   33 1    
    66   35   34 1    
    67   60   34 1    
    68   61   34 1    
    69   62   35 1    
    70   63   35 1    
    71   67   37 1    
    72   68   37 1    
    73   69   37 1    
@<TRIPOS>SUBSTRUCTURE
     1 STI200      1 GROUP   
@<TRIPOS>SET

