#    Name: 4kby_C2E_1_INTS_M
#    Modification time : Tue Mar 25 07:43:09 2014

@<TRIPOS>MOLECULE
4kby_C2E_1_INTS_M
   47     0    12     0     0
SMALL
NO_CHARGES


@<TRIPOS>ATOM
      1 NZ        -15.2760  -13.1180   -5.7825 N.4       3 LYC4        0.0000 
      2 NZ        -16.5540  -13.5400   -5.5310 N.4      11 LYL4        0.0000 
      3 NZ        -13.0210  -12.1790   -6.7690 N.4       7 LYP4        0.0000 
      4 N         -15.2760  -13.1180   -5.7825 N.am      2 SEC2        0.0000 
      5 N         -16.5540  -13.5400   -5.5310 N.am     10 SEL2        0.0000 
      6 N         -13.9980  -12.6960   -6.0340 N.am      6 SEP2        0.0000 
      7 CA        -19.6675  -20.2030   -8.6895 C.3       4 GLC5        0.0000 
      8 CA        -18.7500  -18.5820   -9.2980 C.3      12 GLL5        0.0000 
      9 CA        -20.5850  -21.8240   -8.0810 C.3       8 GLP5        0.0000 
     10 O         -11.4835  -19.5280  -10.0990 O.2       1 ALC1        0.0000 
     11 O         -12.1890  -20.0980  -10.6830 O.2       9 ALL1        0.0000 
     12 O         -10.7780  -18.9580   -9.5150 O.2       5 ALP1        0.0000 
     13 CA        -16.4655  -20.3255  -11.3530 C.3       4 GLC5        0.0000 
     14 CA        -15.5820  -20.6010   -9.5590 C.3      12 GLL5        0.0000 
     15 CA        -17.3490  -20.0500  -13.1470 C.3       8 GLP5        0.0000 
     16 NZ        -23.5545  -18.8545   -8.6930 N.4       3 LYC4        0.0000 
     17 NZ        -22.1360  -18.2070   -9.0570 N.4      11 LYL4        0.0000 
     18 NZ        -25.6600  -18.5880   -7.6560 N.4       7 LYP4        0.0000 
     19 N         -23.5545  -18.8545   -8.6930 N.am      2 SEC2        0.0000 
     20 N         -22.1360  -18.2070   -9.0570 N.am     10 SEL2        0.0000 
     21 N         -24.9730  -19.5020   -8.3290 N.am      6 SEP2        0.0000 
     22 N         -23.5995  -16.9355   -7.3615 N.am      2 SEC2        0.0000 
     23 N         -22.1710  -16.2670   -7.6950 N.am     10 SEL2        0.0000 
     24 N         -25.0280  -17.6040   -7.0280 N.am      6 SEP2        0.0000 
     25 N         -22.9045  -15.3330   -6.8930 N.am      2 SEC2        0.0000 
     26 N         -23.6380  -14.3990   -6.0910 N.am      6 SEP2        0.0000 
     27 CA        -18.5785  -17.2010   -2.9225 C.3       4 GLC5        0.0000 
     28 CA        -19.5060  -17.4550   -4.8560 C.3      12 GLL5        0.0000 
     29 CA        -17.6510  -16.9470   -0.9890 C.3       8 GLP5        0.0000 
     30 CA        -15.2855  -22.9375   -3.5350 C.3       4 GLC5        0.0000 
     31 CA        -14.7980  -20.8830   -4.0890 C.3      12 GLL5        0.0000 
     32 CA        -15.7730  -24.9920   -2.9810 C.3       8 GLP5        0.0000 
     33 CA        -17.3895  -16.1208  -10.8673 C.3       4 GLC5        0.0000 
     34 CA        -17.4650  -15.3100   -8.6900 C.3      12 GLL5        0.0000 
     35 CA        -17.2080  -16.2720  -12.7430 C.3       8 GLP5        0.0000 
     36 CA        -17.8314  -17.9699  -10.9765 C.3       4 GLC5        0.0000 
     37 CA        -17.3180  -18.7440   -9.5890 C.3      12 GLL5        0.0000 
     38 CA        -17.6110  -17.5990  -12.6570 C.3       8 GLP5        0.0000 
     39 CA        -21.2525  -15.7957   -5.3745 C.3       4 GLC5        0.0000 
     40 CA        -20.7400  -17.5440   -5.5820 C.3      12 GLL5        0.0000 
     41 CA        -22.3820  -14.0920   -5.5300 C.3       8 GLP5        0.0000 
     42 CA        -17.2255  -16.9786   -3.3279 C.3       4 GLC5        0.0000 
     43 CA        -17.5630  -18.4520   -4.3660 C.3      12 GLL5        0.0000 
     44 CA        -16.7480  -16.1840   -1.7110 C.3       8 GLP5        0.0000 
     45 CA        -14.2560  -19.1515   -2.6835 C.3       4 GLC5        0.0000 
     46 CA        -15.2700  -19.6370   -4.4990 C.3      12 GLL5        0.0000 
     47 CA        -13.4780  -18.0430   -1.0730 C.3       8 GLP5        0.0000 
@<TRIPOS>BOND
@<TRIPOS>SUBSTRUCTURE
     1 ALC1       10 GROUP        1 X    ALC  0     ROOT ALC X 1
     2 SEC2        4 GROUP        1 X    SEC  0     **** SEC X 2
     3 LYC4        1 GROUP        1 X    LYC  0     **** LYC X 4
     4 GLC5        7 GROUP        1 X    GLC  0     **** GLC X 6
     5 ALP1       12 GROUP        1 Y    ALP  0     ROOT ALP Y 8
     6 SEP2        6 GROUP        1 Y    SEP  0     **** SEP Y 9
     7 LYP4        3 GROUP        1 Y    LYP  0     **** LYP Y 11
     8 GLP5        9 GROUP        1 Y    GLP  0     **** GLP Y 13
     9 ALL1       11 GROUP        1 Z    ALL  0     ROOT ALL Z 15
    10 SEL2        5 GROUP        1 Z    SEL  0     **** SEL Z 16
    11 LYL4        2 GROUP        1 Z    LYL  0     **** LYL Z 18
    12 GLL5        8 GROUP        1 Z    GLL  0     **** GLL Z 20
@<TRIPOS>SET

