#    Name: 4kby_C2E_1_ligand
#    Modification time : Tue Mar 25 07:43:09 2014

@<TRIPOS>MOLECULE
4kby_C2E_1_ligand
   68    74     1     0     0
SMALL
NO_CHARGES


@<TRIPOS>ATOM
      1 P1        -17.5100  -14.4210   -6.2710 P.3       1 C2E401      0.0000 
      2 O2P       -16.5540  -13.5400   -5.5310 O.co2     1 C2E401      0.0000 
      3 O1P       -18.5230  -13.4740   -6.9090 O.co2     1 C2E401      0.0000 
      4 O5'       -16.8380  -15.1790   -7.4640 O.3       1 C2E401      0.0000 
      5 C5'       -17.4650  -15.3100   -8.6900 C.3       1 C2E401      0.0000 
      6 C4'       -17.6770  -16.6290   -9.2930 C.3       1 C2E401      0.0000 
      7 O4'       -16.6910  -17.6120   -9.0410 O.3       1 C2E401      0.0000 
      8 C3'       -18.8210  -17.2930   -8.7080 C.3       1 C2E401      0.0000 
      9 O3'       -20.0850  -16.6930   -8.9410 O.3       1 C2E401      0.0000 
     10 C2'       -18.7500  -18.5820   -9.2980 C.3       1 C2E401      0.0000 
     11 O2'       -19.5260  -18.6070  -10.4800 O.3       1 C2E401      0.0000 
     12 C1'       -17.3180  -18.7440   -9.5890 C.3       1 C2E401      0.0000 
     13 N9        -16.8300  -20.1290   -9.3030 N.pl3     1 C2E401      0.0000 
     14 C8        -17.5550  -21.1490   -8.8300 C.2       1 C2E401      0.0000 
     15 N7        -16.7990  -22.2550   -8.7500 N.2       1 C2E401      0.0000 
     16 C5        -15.5600  -21.9540   -9.1940 C.2       1 C2E401      0.0000 
     17 C6        -14.3680  -22.6800   -9.3410 C.2       1 C2E401      0.0000 
     18 O6        -14.3090  -24.0140   -8.9890 O.2       1 C2E401      0.0000 
     19 N1        -13.2810  -22.0580   -9.8270 N.am      1 C2E401      0.0000 
     20 C2        -13.3550  -20.7550  -10.1620 C.2       1 C2E401      0.0000 
     21 N2        -12.1890  -20.0980  -10.6830 N.pl3     1 C2E401      0.0000 
     22 N3        -14.4710  -20.0290  -10.0410 N.2       1 C2E401      0.0000 
     23 C4        -15.5820  -20.6010   -9.5590 C.2       1 C2E401      0.0000 
     24 P11       -21.2670  -17.3990   -8.1690 P.3       1 C2E401      0.0000 
     25 O21       -22.1360  -18.2070   -9.0570 O.co2     1 C2E401      0.0000 
     26 O11       -22.1710  -16.2670   -7.6950 O.co2     1 C2E401      0.0000 
     27 O5A       -20.7790  -18.1670   -6.8540 O.3       1 C2E401      0.0000 
     28 C5A       -20.7400  -17.5440   -5.5820 C.3       1 C2E401      0.0000 
     29 C4A       -19.5060  -17.4550   -4.8560 C.3       1 C2E401      0.0000 
     30 O4A       -18.9040  -18.7810   -4.6420 O.3       1 C2E401      0.0000 
     31 C3A       -18.4760  -16.7220   -5.6230 C.3       1 C2E401      0.0000 
     32 O3A       -18.3520  -15.3770   -5.2930 O.3       1 C2E401      0.0000 
     33 C2A       -17.2100  -17.4670   -5.4240 C.3       1 C2E401      0.0000 
     34 O2A       -16.2010  -16.6740   -4.9690 O.3       1 C2E401      0.0000 
     35 C1A       -17.5630  -18.4520   -4.3660 C.3       1 C2E401      0.0000 
     36 N91       -16.5940  -19.5660   -4.1710 N.pl3     1 C2E401      0.0000 
     37 C81       -16.9130  -20.7080   -3.5640 C.2       1 C2E401      0.0000 
     38 N71       -15.8450  -21.5180   -3.5220 N.2       1 C2E401      0.0000 
     39 C51       -14.7980  -20.8830   -4.0890 C.2       1 C2E401      0.0000 
     40 C61       -13.4550  -21.2210   -4.3140 C.2       1 C2E401      0.0000 
     41 O61       -12.9730  -22.4350   -3.9150 O.2       1 C2E401      0.0000 
     42 N11       -12.6320  -20.3430   -4.9230 N.am      1 C2E401      0.0000 
     43 C21       -13.1130  -19.1540   -5.3130 C.2       1 C2E401      0.0000 
     44 N21       -12.2320  -18.2140   -5.9830 N.pl3     1 C2E401      0.0000 
     45 N31       -14.3910  -18.8050   -5.1080 N.2       1 C2E401      0.0000 
     46 C41       -15.2700  -19.6370   -4.4990 C.2       1 C2E401      0.0000 
     47 H         -16.9256  -14.6615   -9.4821 H         1 C2E401      0.0000 
     48 H         -18.4944  -14.7820   -8.6669 H         1 C2E401      0.0000 
     49 H         -17.8554  -16.5523  -10.3578 H         1 C2E401      0.0000 
     50 H         -18.6294  -17.4114   -7.6324 H         1 C2E401      0.0000 
     51 H         -19.0484  -19.3263   -8.5944 H         1 C2E401      0.0000 
     52 H         -17.2731  -18.6243  -10.7418 H         1 C2E401      0.0000 
     53 H         -18.5009  -21.0984   -8.5778 H         1 C2E401      0.0000 
     54 H         -12.3872  -22.5772   -9.9446 H         1 C2E401      0.0000 
     55 H         -11.3741  -20.1232  -10.1039 H         1 C2E401      0.0000 
     56 H         -12.2894  -19.6703  -11.5813 H         1 C2E401      0.0000 
     57 H         -21.5255  -18.0402   -4.8987 H         1 C2E401      0.0000 
     58 H         -21.1829  -16.4830   -5.6719 H         1 C2E401      0.0000 
     59 H         -19.6290  -16.9738   -3.9038 H         1 C2E401      0.0000 
     60 H         -18.7352  -16.8452   -6.6997 H         1 C2E401      0.0000 
     61 H         -16.9862  -18.0110   -6.3141 H         1 C2E401      0.0000 
     62 H         -17.5687  -17.8338   -3.4037 H         1 C2E401      0.0000 
     63 H         -17.7963  -20.9286   -3.2001 H         1 C2E401      0.0000 
     64 H         -11.6359  -20.5892   -5.0865 H         1 C2E401      0.0000 
     65 H         -12.6496  -17.3559   -6.2818 H         1 C2E401      0.0000 
     66 H         -11.2805  -18.5024   -6.0902 H         1 C2E401      0.0000 
     67 H         -20.4724  -18.5159  -10.1701 H         1 C2E401      0.0000 
     68 H         -15.4035  -17.2749   -4.9161 H         1 C2E401      0.0000 
@<TRIPOS>BOND
     1    2    1 ar   
     2    3    1 ar   
     3    4    1 1    
     4   32    1 1    
     5    5    4 1    
     6    6    5 1    
     7   47    5 1    
     8   48    5 1    
     9    7    6 1    
    10    8    6 1    
    11   49    6 1    
    12   12    7 1    
    13    9    8 1    
    14   10    8 1    
    15   50    8 1    
    16   24    9 1    
    17   11   10 1    
    18   12   10 1    
    19   51   10 1    
    20   67   11 1    
    21   13   12 1    
    22   52   12 1    
    23   14   13 1    
    24   23   13 1    
    25   15   14 2    
    26   53   14 1    
    27   16   15 1    
    28   17   16 1    
    29   23   16 2    
    30   18   17 2    
    31   19   17 am   
    32   20   19 1    
    33   54   19 1    
    34   21   20 1    
    35   22   20 2    
    36   55   21 1    
    37   56   21 1    
    38   23   22 1    
    39   25   24 ar   
    40   26   24 ar   
    41   27   24 1    
    42   28   27 1    
    43   29   28 1    
    44   57   28 1    
    45   58   28 1    
    46   30   29 1    
    47   31   29 1    
    48   59   29 1    
    49   35   30 1    
    50   32   31 1    
    51   33   31 1    
    52   60   31 1    
    53   34   33 1    
    54   35   33 1    
    55   61   33 1    
    56   68   34 1    
    57   36   35 1    
    58   62   35 1    
    59   37   36 1    
    60   46   36 1    
    61   38   37 2    
    62   63   37 1    
    63   39   38 1    
    64   40   39 1    
    65   46   39 2    
    66   41   40 2    
    67   42   40 am   
    68   43   42 1    
    69   64   42 1    
    70   44   43 1    
    71   45   43 2    
    72   65   44 1    
    73   66   44 1    
    74   46   45 1    
@<TRIPOS>SUBSTRUCTURE
     1 C2E401      1 GROUP   
@<TRIPOS>SET

