#    Name: 4o1m_NAD_6_INTS_M
#    Modification time : Tue Mar 25 13:28:39 2014

@<TRIPOS>MOLECULE
4o1m_NAD_6_INTS_M
   85     0     9     0     0
SMALL
NO_CHARGES


@<TRIPOS>ATOM
      1 N          -0.3260  -34.2505   68.5960 N.am      2 SEC2        0.0000 
      2 N          -1.1500  -32.9290   68.4040 N.am      8 SEL2        0.0000 
      3 N           0.4980  -35.5720   68.7880 N.am      5 SEP2        0.0000 
      4 N          -2.2355  -33.6035   67.9785 N.am      2 SEC2        0.0000 
      5 N          -3.3210  -34.2780   67.5530 N.am      5 SEP2        0.0000 
      6 CA          1.3560  -31.6490   69.1775 C.3       3 GLC5        0.0000 
      7 CA          0.8020  -29.6400   68.6680 C.3       9 GLL5        0.0000 
      8 CA          1.9100  -33.6580   69.6870 C.3       6 GLP5        0.0000 
      9 CA          0.3640  -26.3915   65.8330 C.3       3 GLC5        0.0000 
     10 CA          2.0900  -27.7520   65.9980 C.3       9 GLL5        0.0000 
     11 CA         -1.3620  -25.0310   65.6680 C.3       6 GLP5        0.0000 
     12 CA          1.8975  -26.1720   67.1975 C.3       3 GLC5        0.0000 
     13 CA          1.7050  -24.5920   68.3970 C.3       6 GLP5        0.0000 
     14 CA          4.4410  -24.5170   67.0210 C.3       3 GLC5        0.0000 
     15 CA          5.1660  -25.9710   65.4650 C.3       9 GLL5        0.0000 
     16 CA          3.7160  -23.0630   68.5770 C.3       6 GLP5        0.0000 
     17 CA          5.9930  -23.4255   63.1510 C.3       3 GLC5        0.0000 
     18 CA          5.8140  -24.8090   64.8340 C.3       9 GLL5        0.0000 
     19 CA          6.1720  -22.0420   61.4680 C.3       6 GLP5        0.0000 
     20 CA          5.4955  -22.7760   65.4000 C.3       3 GLC5        0.0000 
     21 CA          5.1770  -20.7430   65.9660 C.3       6 GLP5        0.0000 
     22 O           7.7805  -23.9025   63.8500 O.2       1 ALC1        0.0000 
     23 O           7.1500  -24.6020   64.9630 O.2       7 ALL1        0.0000 
     24 O           8.4110  -23.2030   62.7370 O.2       4 ALP1        0.0000 
     25 N           5.5550  -22.6625   63.9640 N.am      2 SEC2        0.0000 
     26 N           5.0390  -23.9820   64.1370 N.am      8 SEL2        0.0000 
     27 N           6.0710  -21.3430   63.7910 N.am      5 SEP2        0.0000 
     28 CA          3.6795  -25.7105   62.7880 C.3       3 GLC5        0.0000 
     29 CA          3.7180  -24.1810   63.9900 C.3       9 GLL5        0.0000 
     30 CA          3.6410  -27.2400   61.5860 C.3       6 GLP5        0.0000 
     31 CA          4.9450  -23.1115   62.7290 C.3       3 GLC5        0.0000 
     32 CA          4.4475  -22.4620   64.9780 C.3       3 GLC5        0.0000 
     33 CA          2.7275  -23.3065   65.5845 C.3       3 GLC5        0.0000 
     34 CA          1.7370  -22.4320   67.1790 C.3       6 GLP5        0.0000 
     35 CA          2.7585  -25.3575   66.8400 C.3       3 GLC5        0.0000 
     36 CA          3.8120  -26.1230   65.2830 C.3       9 GLL5        0.0000 
     37 N          -1.5095  -33.4830   71.9780 N.am      2 SEC2        0.0000 
     38 N          -1.3390  -32.2690   72.2950 N.am      8 SEL2        0.0000 
     39 N          -1.6800  -34.6970   71.6610 N.am      5 SEP2        0.0000 
     40 N          -4.7275  -30.6115   70.9915 N.am      2 SEC2        0.0000 
     41 N          -3.3670  -30.8450   71.1770 N.am      8 SEL2        0.0000 
     42 N          -6.0880  -30.3780   70.8060 N.am      5 SEP2        0.0000 
     43 CA          0.7120  -26.4940   71.4475 C.3       3 GLC5        0.0000 
     44 CA          0.1370  -27.6480   73.2290 C.3       9 GLL5        0.0000 
     45 CA          1.2870  -25.3400   69.6660 C.3       6 GLP5        0.0000 
     46 N           1.2940  -26.0145   74.9075 N.am      2 SEC2        0.0000 
     47 N           0.4990  -26.3470   73.7110 N.am      8 SEL2        0.0000 
     48 N           2.0890  -25.6820   76.1040 N.am      5 SEP2        0.0000 
     49 N           0.1860  -24.9580   73.5310 N.am      2 SEC2        0.0000 
     50 N          -0.1270  -23.5690   73.3510 N.am      5 SEP2        0.0000 
     51 O           1.5200  -25.4410   72.6290 O.2       1 ALC1        0.0000 
     52 O           0.4990  -26.3470   73.7110 O.2       7 ALL1        0.0000 
     53 O           2.5410  -24.5350   71.5470 O.2       4 ALP1        0.0000 
     54 CA          1.5905  -27.4605   75.7730 C.3       3 GLC5        0.0000 
     55 CA          0.2860  -28.6190   74.3910 C.3       9 GLL5        0.0000 
     56 CA          2.8950  -26.3020   77.1550 C.3       6 GLP5        0.0000 
     57 N           1.7700  -26.9965   75.6315 N.am      2 SEC2        0.0000 
     58 N           1.4510  -28.3110   75.1590 N.am      8 SEL2        0.0000 
     59 CA         -3.0680  -29.1785   74.8920 C.3       3 GLC5        0.0000 
     60 CA         -1.0140  -28.3840   75.1610 C.3       9 GLL5        0.0000 
     61 CA         -5.1220  -29.9730   74.6230 C.3       6 GLP5        0.0000 
     62 CA         -1.9625  -26.6970   75.3370 C.3       3 GLC5        0.0000 
     63 CA         -2.9110  -25.0100   75.5130 C.3       6 GLP5        0.0000 
     64 O          -2.4925  -35.2415   75.8360 O.2       1 ALC1        0.0000 
     65 O          -1.9120  -34.1490   76.9290 O.2       7 ALL1        0.0000 
     66 O          -3.0730  -36.3340   74.7430 O.2       4 ALP1        0.0000 
     67 CA         -2.7060  -33.3365   78.6815 C.3       3 GLC5        0.0000 
     68 CA         -1.6870  -31.5760   77.8860 C.3       9 GLL5        0.0000 
     69 CA         -3.7250  -35.0970   79.4770 C.3       6 GLP5        0.0000 
     70 CA          0.9952  -27.2670   68.8640 C.3       3 GLC5        0.0000 
     71 CA          4.0650  -26.6435   63.4800 C.3       3 GLC5        0.0000 
     72 CA         -1.8912  -26.1867   71.4172 C.3       3 GLC5        0.0000 
     73 CA         -1.7200  -28.5550   71.7520 C.3       9 GLL5        0.0000 
     74 CA         -2.2470  -24.2700   70.4890 C.3       6 GLP5        0.0000 
     75 CA         -2.9907  -26.9053   73.0083 C.3       3 GLC5        0.0000 
     76 CA         -1.3510  -27.6520   72.9390 C.3       9 GLL5        0.0000 
     77 CA         -4.4460  -25.7070   73.6710 C.3       6 GLP5        0.0000 
     78 CA          2.0417  -27.6987   73.2955 C.3       3 GLC5        0.0000 
     79 CA          3.8720  -27.2640   72.7810 C.3       6 GLP5        0.0000 
     80 CA         -0.3792  -29.2868   79.4243 C.3       3 GLC5        0.0000 
     81 CA         -1.4200  -29.2270   77.4210 C.3       9 GLL5        0.0000 
     82 CA          0.7720  -28.8360   80.9630 C.3       6 GLP5        0.0000 
     83 CA         -3.4398  -29.2498   78.3713 C.3       3 GLC5        0.0000 
     84 CA         -1.6410  -30.2480   78.3500 C.3       9 GLL5        0.0000 
     85 CA         -5.3490  -28.7620   78.8570 C.3       6 GLP5        0.0000 
@<TRIPOS>BOND
@<TRIPOS>SUBSTRUCTURE
     1 ALC1       22 GROUP        1 X    ALC  0     ROOT ALC X 1
     2 SEC2        1 GROUP        1 X    SEC  0     **** SEC X 2
     3 GLC5        6 GROUP        1 X    GLC  0     **** GLC X 6
     4 ALP1       24 GROUP        1 Y    ALP  0     ROOT ALP Y 8
     5 SEP2        3 GROUP        1 Y    SEP  0     **** SEP Y 9
     6 GLP5        8 GROUP        1 Y    GLP  0     **** GLP Y 13
     7 ALL1       23 GROUP        1 Z    ALL  0     ROOT ALL Z 15
     8 SEL2        2 GROUP        1 Z    SEL  0     **** SEL Z 16
     9 GLL5        7 GROUP        1 Z    GLL  0     **** GLL Z 20
@<TRIPOS>SET

