#    Name: 4o1m_NAD_6_ligand
#    Modification time : Tue Mar 25 13:28:39 2014

@<TRIPOS>MOLECULE
4o1m_NAD_6_ligand
   70    74     1     0     0
SMALL
NO_CHARGES


@<TRIPOS>ATOM
      1 PA         -1.1360  -31.4290   68.5830 P.3       1 NAD401      0.0000 
      2 O1A        -1.1500  -32.9290   68.4040 O.co2     1 NAD401      0.0000 
      3 O2A        -2.1840  -30.4920   68.0670 O.co2     1 NAD401      0.0000 
      4 O5B         0.3650  -30.9370   68.2590 O.3       1 NAD401      0.0000 
      5 C5B         0.8020  -29.6400   68.6680 C.3       1 NAD401      0.0000 
      6 C4B         0.6050  -28.7480   67.4560 C.3       1 NAD401      0.0000 
      7 O4B         1.7310  -27.8700   67.3810 O.3       1 NAD401      0.0000 
      8 C3B         0.5250  -29.4940   66.0970 C.3       1 NAD401      0.0000 
      9 O3B        -0.5240  -28.8570   65.3220 O.3       1 NAD401      0.0000 
     10 C2B         1.8610  -29.1610   65.4590 C.3       1 NAD401      0.0000 
     11 O2B         1.7280  -29.1150   64.0440 O.3       1 NAD401      0.0000 
     12 C1B         2.0900  -27.7520   65.9980 C.3       1 NAD401      0.0000 
     13 N9A         3.4720  -27.2420   65.9130 N.pl3     1 NAD401      0.0000 
     14 C8A         4.5690  -27.7840   66.4930 C.2       1 NAD401      0.0000 
     15 N7A         5.6340  -26.9980   66.2210 N.2       1 NAD401      0.0000 
     16 C5A         5.1660  -25.9710   65.4650 C.ar      1 NAD401      0.0000 
     17 C6A         5.8140  -24.8090   64.8340 C.ar      1 NAD401      0.0000 
     18 N6A         7.1500  -24.6020   64.9630 N.pl3     1 NAD401      0.0000 
     19 N1A         5.0390  -23.9820   64.1370 N.ar      1 NAD401      0.0000 
     20 C2A         3.7180  -24.1810   63.9900 C.ar      1 NAD401      0.0000 
     21 N3A         3.1020  -25.2300   64.5630 N.ar      1 NAD401      0.0000 
     22 C4A         3.8120  -26.1230   65.2830 C.ar      1 NAD401      0.0000 
     23 O3         -0.9190  -31.2120   70.1510 O.3       1 NAD401      0.0000 
     24 PN         -1.9120  -31.1870   71.4030 P.3       1 NAD401      0.0000 
     25 O1N        -1.3390  -32.2690   72.2950 O.co2     1 NAD401      0.0000 
     26 O2N        -3.3670  -30.8450   71.1770 O.co2     1 NAD401      0.0000 
     27 O5D        -1.1990  -29.8650   71.9890 O.3       1 NAD401      0.0000 
     28 C5D        -1.7200  -28.5550   71.7520 C.3       1 NAD401      0.0000 
     29 C4D        -1.3510  -27.6520   72.9390 C.3       1 NAD401      0.0000 
     30 O4D        -1.9640  -28.1540   74.1280 O.3       1 NAD401      0.0000 
     31 C3D         0.1370  -27.6480   73.2290 C.3       1 NAD401      0.0000 
     32 O3D         0.4990  -26.3470   73.7110 O.3       1 NAD401      0.0000 
     33 C2D         0.2860  -28.6190   74.3910 C.3       1 NAD401      0.0000 
     34 O2D         1.4510  -28.3110   75.1590 O.3       1 NAD401      0.0000 
     35 C1D        -1.0140  -28.3840   75.1610 C.3       1 NAD401      0.0000 
     36 N1N        -1.2950  -29.5040   76.0850 N.pl3     1 NAD401      0.0000 
     37 C2N        -1.3770  -30.7900   75.6250 C.ar      1 NAD401      0.0000 
     38 C3N        -1.5870  -31.8400   76.4980 C.ar      1 NAD401      0.0000 
     39 C7N        -1.7900  -33.2500   76.0070 C.2       1 NAD401      0.0000 
     40 O7N        -1.9710  -33.5350   74.8100 O.2       1 NAD401      0.0000 
     41 N7N        -1.9120  -34.1490   76.9290 N.am      1 NAD401      0.0000 
     42 C4N        -1.6870  -31.5760   77.8860 C.ar      1 NAD401      0.0000 
     43 C5N        -1.6410  -30.2480   78.3500 C.ar      1 NAD401      0.0000 
     44 C6N        -1.4200  -29.2270   77.4210 C.ar      1 NAD401      0.0000 
     45 H           1.8487  -29.6295   68.9323 H         1 NAD401      0.0000 
     46 H           0.2068  -29.2488   69.4794 H         1 NAD401      0.0000 
     47 H          -0.2999  -28.1744   67.5770 H         1 NAD401      0.0000 
     48 H           0.4184  -30.4881   66.2495 H         1 NAD401      0.0000 
     49 H           2.5905  -29.7913   65.8261 H         1 NAD401      0.0000 
     50 H           1.3978  -27.0899   65.5103 H         1 NAD401      0.0000 
     51 H           4.5858  -28.5970   67.0140 H         1 NAD401      0.0000 
     52 H           7.6094  -24.1898   64.1762 H         1 NAD401      0.0000 
     53 H           7.5563  -24.8801   65.8334 H         1 NAD401      0.0000 
     54 H           3.1545  -23.5029   63.4154 H         1 NAD401      0.0000 
     55 H          -2.8078  -28.5578   71.6638 H         1 NAD401      0.0000 
     56 H          -1.2999  -28.1052   70.8507 H         1 NAD401      0.0000 
     57 H          -1.6687  -26.6532   72.7386 H         1 NAD401      0.0000 
     58 H           0.6698  -27.9745   72.4178 H         1 NAD401      0.0000 
     59 H           0.2669  -29.6019   73.9991 H         1 NAD401      0.0000 
     60 H          -0.8501  -27.4594   75.7264 H         1 NAD401      0.0000 
     61 H          -1.2811  -30.9851   74.6094 H         1 NAD401      0.0000 
     62 H          -1.8273  -33.8266   77.8718 H         1 NAD401      0.0000 
     63 H          -2.0797  -35.0830   76.6134 H         1 NAD401      0.0000 
     64 H          -1.7919  -32.3481   78.5436 H         1 NAD401      0.0000 
     65 H          -1.7655  -30.0417   79.3337 H         1 NAD401      0.0000 
     66 H          -1.3515  -28.2491   77.7604 H         1 NAD401      0.0000 
     67 H          -1.2986  -29.4878   65.3676 H         1 NAD401      0.0000 
     68 H           0.7429  -29.0706   63.8780 H         1 NAD401      0.0000 
     69 H           1.0461  -25.9426   72.9781 H         1 NAD401      0.0000 
     70 H           2.1878  -28.8359   74.7330 H         1 NAD401      0.0000 
@<TRIPOS>BOND
     1    2    1 ar   
     2    3    1 ar   
     3    4    1 1    
     4   23    1 1    
     5    5    4 1    
     6    6    5 1    
     7   45    5 1    
     8   46    5 1    
     9    7    6 1    
    10    8    6 1    
    11   47    6 1    
    12   12    7 1    
    13    9    8 1    
    14   10    8 1    
    15   48    8 1    
    16   67    9 1    
    17   11   10 1    
    18   12   10 1    
    19   49   10 1    
    20   68   11 1    
    21   13   12 1    
    22   50   12 1    
    23   14   13 1    
    24   22   13 1    
    25   15   14 2    
    26   51   14 1    
    27   16   15 1    
    28   17   16 ar   
    29   22   16 ar   
    30   18   17 1    
    31   19   17 ar   
    32   52   18 1    
    33   53   18 1    
    34   20   19 ar   
    35   21   20 ar   
    36   54   20 1    
    37   22   21 ar   
    38   24   23 1    
    39   25   24 ar   
    40   26   24 ar   
    41   27   24 1    
    42   28   27 1    
    43   29   28 1    
    44   55   28 1    
    45   56   28 1    
    46   30   29 1    
    47   31   29 1    
    48   57   29 1    
    49   35   30 1    
    50   32   31 1    
    51   33   31 1    
    52   58   31 1    
    53   69   32 1    
    54   34   33 1    
    55   35   33 1    
    56   59   33 1    
    57   70   34 1    
    58   36   35 1    
    59   60   35 1    
    60   37   36 ar   
    61   44   36 ar   
    62   38   37 ar   
    63   61   37 1    
    64   39   38 1    
    65   42   38 ar   
    66   40   39 2    
    67   41   39 am   
    68   62   41 1    
    69   63   41 1    
    70   43   42 ar   
    71   64   42 1    
    72   44   43 ar   
    73   65   43 1    
    74   66   44 1    
@<TRIPOS>SUBSTRUCTURE
     1 NAD401      1 GROUP   
@<TRIPOS>SET

