#    Name: 2c91_NAP_5_INTS_M
#    Modification time : Mon Mar 24 23:12:00 2014

@<TRIPOS>MOLECULE
2c91_NAP_5_INTS_M
  122     0    12     0     0
SMALL
NO_CHARGES


@<TRIPOS>ATOM
      1 N          -1.3690   32.4400   90.1365 N.am      2 SEC2        0.0000 
      2 N          -1.8050   33.7530   90.0200 N.am     10 SEL2        0.0000 
      3 N          -0.9330   31.1270   90.2530 N.am      6 SEP2        0.0000 
      4 N          -2.7400   33.6820   88.8645 N.am      2 SEC2        0.0000 
      5 N          -3.6750   33.6110   87.7090 N.am      6 SEP2        0.0000 
      6 CA         -2.6285   36.4935   93.4270 C.3       4 GLC5        0.0000 
      7 CA         -4.0170   35.9250   92.1340 C.3      12 GLL5        0.0000 
      8 CA         -1.2400   37.0620   94.7200 C.3       8 GLP5        0.0000 
      9 CA         -6.1770   34.2240   91.1160 C.3       4 GLC5        0.0000 
     10 CA         -5.5340   35.9860   92.0930 C.3      12 GLL5        0.0000 
     11 CA         -6.8200   32.4620   90.1390 C.3       8 GLP5        0.0000 
     12 CA         -5.2690   37.2590   94.9435 C.3       4 GLC5        0.0000 
     13 CA         -6.0480   36.7350   93.3210 C.3      12 GLL5        0.0000 
     14 CA         -4.4900   37.7830   96.5660 C.3       8 GLP5        0.0000 
     15 N          -5.2050   38.5210   91.7800 N.am      2 SEC2        0.0000 
     16 N          -6.1480   38.1030   93.1100 N.am     10 SEL2        0.0000 
     17 N          -4.2620   38.9390   90.4500 N.am      6 SEP2        0.0000 
     18 CA         -7.9335   38.0350   94.4460 C.3       4 GLC5        0.0000 
     19 CA         -7.4050   36.1550   93.4550 C.3      12 GLL5        0.0000 
     20 CA         -8.4620   39.9150   95.4370 C.3       8 GLP5        0.0000 
     21 CA         -6.9980   33.5880   91.6345 C.3       4 GLC5        0.0000 
     22 CA         -7.1760   34.7140   93.1300 C.3      12 GLL5        0.0000 
     23 N          -4.2470   33.1125   96.7085 N.am      2 SEC2        0.0000 
     24 N          -5.5150   33.1130   96.0270 N.am     10 SEL2        0.0000 
     25 N          -2.9790   33.1120   97.3900 N.am      6 SEP2        0.0000 
     26 CA         -5.1945   31.8485   94.9185 C.3       4 GLC5        0.0000 
     27 CA         -6.7850   32.6480   96.1350 C.3      12 GLL5        0.0000 
     28 CA         -3.6040   31.0490   93.7020 C.3       8 GLP5        0.0000 
     29 CA         -6.0565   30.0555   96.9075 C.3       4 GLC5        0.0000 
     30 CA         -7.3780   31.8160   97.0930 C.3      12 GLL5        0.0000 
     31 CA         -4.7350   28.2950   96.7220 C.3       8 GLP5        0.0000 
     32 O          -7.4440   30.4355   99.1460 O.2       1 ALC1        0.0000 
     33 O          -6.6910   31.3230   98.1660 O.2       9 ALL1        0.0000 
     34 O          -8.1970   29.5480  100.1260 O.2       5 ALP1        0.0000 
     35 O          -5.2370   31.2715   98.2285 O.2       1 ALC1        0.0000 
     36 O          -3.7830   31.2200   98.2910 O.2       5 ALP1        0.0000 
     37 CA         -8.4095   30.9785   94.6135 C.3       4 GLC5        0.0000 
     38 CA         -9.5140   32.1010   95.8570 C.3      12 GLL5        0.0000 
     39 CA         -7.3050   29.8560   93.3700 C.3       8 GLP5        0.0000 
     40 CA        -10.8395   31.9280   94.3340 C.3       4 GLC5        0.0000 
     41 CA        -12.1650   31.7550   92.8110 C.3       8 GLP5        0.0000 
     42 CA         -8.9825   33.6055   97.2100 C.3       4 GLC5        0.0000 
     43 CA         -8.4510   35.1100   98.5630 C.3       8 GLP5        0.0000 
     44 N          -9.9765   33.3735   94.1835 N.am      2 SEC2        0.0000 
     45 N          -8.9240   32.9210   94.9570 N.am     10 SEL2        0.0000 
     46 N         -11.0290   33.8260   93.4100 N.am      6 SEP2        0.0000 
     47 NZ         -2.9690   38.6195   90.9325 N.4       3 LYC4        0.0000 
     48 NZ         -1.6760   38.3000   91.4150 N.4      11 LYL4        0.0000 
     49 NZ         -4.6830   38.9060   89.2010 N.4       7 LYP4        0.0000 
     50 N          -2.9690   38.6195   90.9325 N.am      2 SEC2        0.0000 
     51 N          -1.6760   38.3000   91.4150 N.am     10 SEL2        0.0000 
     52 NZ         -2.7050   37.8430   88.7090 N.4       3 LYC4        0.0000 
     53 NZ         -1.5480   37.2280   89.1400 N.4      11 LYL4        0.0000 
     54 N          -1.1315   36.8815   87.8925 N.am      2 SEC2        0.0000 
     55 N          -1.5480   37.2280   89.1400 N.am     10 SEL2        0.0000 
     56 N          -0.7150   36.5350   86.6450 N.am      6 SEP2        0.0000 
     57 N          -2.7050   37.8430   88.7090 N.am      2 SEC2        0.0000 
     58 N          -3.8620   38.4580   88.2780 N.am      6 SEP2        0.0000 
     59 N          -2.9050   38.0835   89.7950 N.am      2 SEC2        0.0000 
     60 N           1.1460   36.4060   89.4885 N.am      2 SEC2        0.0000 
     61 N           0.5300   37.5550   90.5400 N.am     10 SEL2        0.0000 
     62 N           1.7620   35.2570   88.4370 N.am      6 SEP2        0.0000 
     63 CA          1.3960   35.7845   91.2945 C.3       4 GLC5        0.0000 
     64 CA          1.1880   37.9070   91.7450 C.3      12 GLL5        0.0000 
     65 CA          1.6040   33.6620   90.8440 C.3       8 GLP5        0.0000 
     66 CA         -0.0260   37.4845   93.2325 C.3       4 GLC5        0.0000 
     67 N          -0.2050   42.4930   93.2255 N.am      2 SEC2        0.0000 
     68 N           0.2720   40.9680   92.8170 N.am     10 SEL2        0.0000 
     69 N          -0.6820   44.0180   93.6340 N.am      6 SEP2        0.0000 
     70 CA          1.8910   43.3300   90.2745 C.3       4 GLC5        0.0000 
     71 CA          1.9830   41.4770   91.0980 C.3      12 GLL5        0.0000 
     72 CA          1.7990   45.1830   89.4510 C.3       8 GLP5        0.0000 
     73 O           4.0245   42.3980   91.9220 O.2       1 ALC1        0.0000 
     74 O           2.7480   42.0240   92.1390 O.2       9 ALL1        0.0000 
     75 O           5.3010   42.7720   91.7050 O.2       5 ALP1        0.0000 
     76 CA          3.4770   38.9440   89.2015 C.3       4 GLC5        0.0000 
     77 CA          2.9120   40.6010   90.2440 C.3      12 GLL5        0.0000 
     78 CA          4.0420   37.2870   88.1590 C.3       8 GLP5        0.0000 
     79 CA          3.8155   39.5450   91.9685 C.3       4 GLC5        0.0000 
     80 CA          4.7190   38.4890   93.6930 C.3       8 GLP5        0.0000 
     81 CA          5.0100   42.6035   88.3190 C.3       4 GLC5        0.0000 
     82 CA          3.4600   41.0330   87.8910 C.3      12 GLL5        0.0000 
     83 CA          6.5600   44.1740   88.7470 C.3       8 GLP5        0.0000 
     84 N           4.6675   41.7545   83.0780 N.am      2 SEC2        0.0000 
     85 N           3.7930   41.8110   84.2550 N.am     10 SEL2        0.0000 
     86 N           5.5420   41.6980   81.9010 N.am      6 SEP2        0.0000 
     87 O           6.6010   41.4380   85.0735 O.2       1 ALC1        0.0000 
     88 O           5.4600   41.5470   85.8690 O.2       9 ALL1        0.0000 
     89 O           7.7420   41.3290   84.2780 O.2       5 ALP1        0.0000 
     90 O           5.8860   41.2030   87.2365 O.2       1 ALC1        0.0000 
     91 O           6.3120   40.8590   88.6040 O.2       5 ALP1        0.0000 
     92 N         -10.1790   38.6455   90.4090 N.am      2 SEC2        0.0000 
     93 N          -9.8330   38.5340   91.9910 N.am     10 SEL2        0.0000 
     94 N         -10.5250   38.7570   88.8270 N.am      6 SEP2        0.0000 
     95 NZ        -10.7815   34.9910   92.6050 N.4       3 LYC4        0.0000 
     96 NZ        -10.5340   36.1560   91.8000 N.4      11 LYL4        0.0000 
     97 NZ        -11.0290   33.8260   93.4100 N.4       7 LYP4        0.0000 
     98 N         -10.7815   34.9910   92.6050 N.am      2 SEC2        0.0000 
     99 N         -10.5340   36.1560   91.8000 N.am     10 SEL2        0.0000 
    100 NZ        -10.6075   35.5550   93.7100 N.4       3 LYC4        0.0000 
    101 NZ        -10.1860   37.2840   94.0100 N.4      11 LYL4        0.0000 
    102 N          -9.7615   38.0870   94.8995 N.am      2 SEC2        0.0000 
    103 N         -10.1860   37.2840   94.0100 N.am     10 SEL2        0.0000 
    104 N          -9.3370   38.8900   95.7890 N.am      6 SEP2        0.0000 
    105 N          -9.9860   36.5605   95.3535 N.am      2 SEC2        0.0000 
    106 N          -9.7860   35.8370   96.6970 N.am      6 SEP2        0.0000 
    107 CA         -4.7058   35.3263   90.0583 C.3       4 GLC5        0.0000 
    108 CA         -4.6360   34.6970   88.0030 C.3       8 GLP5        0.0000 
    109 CA         -7.3174   31.2780   94.6130 C.3       4 GLC5        0.0000 
    110 CA         -7.8904   33.9050   97.2095 C.3       4 GLC5        0.0000 
    111 CA         -7.5780   33.1680   95.0980 C.3      12 GLL5        0.0000 
    112 CA          3.1208   38.5332   92.7280 C.3       4 GLC5        0.0000 
    113 CA          1.9626   40.7383   93.3281 C.3       4 GLC5        0.0000 
    114 CA          2.2290   40.8010   95.2510 C.3       8 GLP5        0.0000 
    115 CA          0.4286   41.0429   89.8852 C.3       4 GLC5        0.0000 
    116 CA          0.9620   40.5000   91.6440 C.3      12 GLL5        0.0000 
    117 CA         -1.3350   41.2910   88.9630 C.3       8 GLP5        0.0000 
    118 CA          3.6865   39.1432   87.6803 C.3       4 GLC5        0.0000 
    119 CA         -0.0545   40.6490   88.3117 C.3       4 GLC5        0.0000 
    120 CA          1.0730   39.9850   86.9870 C.3      12 GLL5        0.0000 
    121 CA          2.7523   38.7034   87.7949 C.3       4 GLC5        0.0000 
    122 CA          1.3790   40.0290   88.3340 C.3      12 GLL5        0.0000 
@<TRIPOS>BOND
@<TRIPOS>SUBSTRUCTURE
     1 ALC1       32 GROUP        1 X    ALC  0     ROOT ALC X 1
     2 SEC2        1 GROUP        1 X    SEC  0     **** SEC X 2
     3 LYC4       47 GROUP        1 X    LYC  0     **** LYC X 4
     4 GLC5        6 GROUP        1 X    GLC  0     **** GLC X 6
     5 ALP1       34 GROUP        1 Y    ALP  0     ROOT ALP Y 8
     6 SEP2        3 GROUP        1 Y    SEP  0     **** SEP Y 9
     7 LYP4       49 GROUP        1 Y    LYP  0     **** LYP Y 11
     8 GLP5        8 GROUP        1 Y    GLP  0     **** GLP Y 13
     9 ALL1       33 GROUP        1 Z    ALL  0     ROOT ALL Z 15
    10 SEL2        2 GROUP        1 Z    SEL  0     **** SEL Z 16
    11 LYL4       48 GROUP        1 Z    LYL  0     **** LYL Z 18
    12 GLL5        7 GROUP        1 Z    GLL  0     **** GLL Z 20
@<TRIPOS>SET

