#    Name: 2c91_NAP_5_ligand
#    Modification time : Mon Mar 24 23:12:00 2014

@<TRIPOS>MOLECULE
2c91_NAP_5_ligand
   73    77     1     0     0
SMALL
NO_CHARGES


@<TRIPOS>ATOM
      1 PA         -2.0180   34.6020   91.2050 P.3       1 NAP350      0.0000 
      2 O1A        -1.8050   33.7530   90.0200 O.co2     1 NAP350      0.0000 
      3 O2A        -1.8730   33.8210   92.4340 O.co2     1 NAP350      0.0000 
      4 O5B        -3.4840   35.2130   91.0720 O.3       1 NAP350      0.0000 
      5 C5B        -4.0170   35.9250   92.1340 C.3       1 NAP350      0.0000 
      6 C4B        -5.5340   35.9860   92.0930 C.3       1 NAP350      0.0000 
      7 O4B        -6.1490   34.7170   92.1260 O.3       1 NAP350      0.0000 
      8 C3B        -6.0480   36.7350   93.3210 C.3       1 NAP350      0.0000 
      9 O3B        -6.1480   38.1030   93.1100 O.3       1 NAP350      0.0000 
     10 C2B        -7.4050   36.1550   93.4550 C.3       1 NAP350      0.0000 
     11 O2B        -8.1570   36.7780   92.4730 O.3       1 NAP350      0.0000 
     12 C1B        -7.1760   34.7140   93.1300 C.3       1 NAP350      0.0000 
     13 N9A        -6.7600   33.9660   94.3640 N.pl3     1 NAP350      0.0000 
     14 C8A        -5.4990   33.9110   94.9460 C.2       1 NAP350      0.0000 
     15 N7A        -5.5150   33.1130   96.0270 N.2       1 NAP350      0.0000 
     16 C5A        -6.7850   32.6480   96.1350 C.ar      1 NAP350      0.0000 
     17 C6A        -7.3780   31.8160   97.0930 C.ar      1 NAP350      0.0000 
     18 N6A        -6.6910   31.3230   98.1660 N.pl3     1 NAP350      0.0000 
     19 N1A        -8.7240   31.6000   96.8990 N.ar      1 NAP350      0.0000 
     20 C2A        -9.5140   32.1010   95.8570 C.ar      1 NAP350      0.0000 
     21 N3A        -8.9240   32.9210   94.9570 N.ar      1 NAP350      0.0000 
     22 C4A        -7.5780   33.1680   95.0980 C.ar      1 NAP350      0.0000 
     23 O3         -0.9730   35.8700   91.3240 O.3       1 NAP350      0.0000 
     24 PN         -1.0340   37.3300   90.5400 P.3       1 NAP350      0.0000 
     25 O1N        -1.6760   38.3000   91.4150 O.co2     1 NAP350      0.0000 
     26 O2N        -1.5480   37.2280   89.1400 O.co2     1 NAP350      0.0000 
     27 O5D         0.5300   37.5550   90.5400 O.3       1 NAP350      0.0000 
     28 C5D         1.1880   37.9070   91.7450 C.3       1 NAP350      0.0000 
     29 C4D         1.8570   39.2480   91.7810 C.3       1 NAP350      0.0000 
     30 O4D         2.8870   39.2690   90.8130 O.3       1 NAP350      0.0000 
     31 C3D         0.9620   40.5000   91.6440 C.3       1 NAP350      0.0000 
     32 O3D         0.2720   40.9680   92.8170 O.3       1 NAP350      0.0000 
     33 C2D         1.9830   41.4770   91.0980 C.3       1 NAP350      0.0000 
     34 O2D         2.7480   42.0240   92.1390 O.3       1 NAP350      0.0000 
     35 C1D         2.9120   40.6010   90.2440 C.3       1 NAP350      0.0000 
     36 N1N         2.5570   40.5610   88.7860 N.pl3     1 NAP350      0.0000 
     37 C2N         3.4600   41.0330   87.8910 C.ar      1 NAP350      0.0000 
     38 C3N         3.2020   40.9660   86.5120 C.ar      1 NAP350      0.0000 
     39 C7N         4.1990   41.4570   85.5300 C.2       1 NAP350      0.0000 
     40 O7N         3.7930   41.8110   84.2550 O.2       1 NAP350      0.0000 
     41 N7N         5.4600   41.5470   85.8690 N.am      1 NAP350      0.0000 
     42 C4N         2.0190   40.4360   86.0680 C.ar      1 NAP350      0.0000 
     43 C5N         1.0730   39.9850   86.9870 C.ar      1 NAP350      0.0000 
     44 C6N         1.3790   40.0290   88.3340 C.ar      1 NAP350      0.0000 
     45 P2B        -9.7300   37.1770   92.5660 P.3       1 NAP350      0.0000 
     46 O1X        -9.8330   38.5340   91.9910 O.co2     1 NAP350      0.0000 
     47 O2X       -10.5340   36.1560   91.8000 O.co2     1 NAP350      0.0000 
     48 O3X       -10.1860   37.2840   94.0100 O.co2     1 NAP350      0.0000 
     49 H          -3.6502   36.9770   92.1640 H         1 NAP350      0.0000 
     50 H          -3.7359   35.4873   93.1197 H         1 NAP350      0.0000 
     51 H          -5.8409   36.5551   91.2274 H         1 NAP350      0.0000 
     52 H          -5.4692   36.4416   94.1509 H         1 NAP350      0.0000 
     53 H          -7.7413   36.2688   94.4234 H         1 NAP350      0.0000 
     54 H          -8.0873   34.3058   92.7420 H         1 NAP350      0.0000 
     55 H          -4.7286   34.3926   94.5995 H         1 NAP350      0.0000 
     56 H          -5.7151   31.1567   98.0250 H         1 NAP350      0.0000 
     57 H          -7.2244   31.1716   98.9982 H         1 NAP350      0.0000 
     58 H         -10.4969   31.8437   95.7982 H         1 NAP350      0.0000 
     59 H           1.9673   37.1334   92.0130 H         1 NAP350      0.0000 
     60 H           0.4702   37.8640   92.6170 H         1 NAP350      0.0000 
     61 H           2.3507   39.3351   92.7949 H         1 NAP350      0.0000 
     62 H           0.2867   40.2864   90.8057 H         1 NAP350      0.0000 
     63 H           1.5163   42.1707   90.4762 H         1 NAP350      0.0000 
     64 H           3.9247   41.0087   90.3527 H         1 NAP350      0.0000 
     65 H           4.3544   41.4506   88.2058 H         1 NAP350      0.0000 
     66 H           5.6772   41.3235   86.8192 H         1 NAP350      0.0000 
     67 H           6.0906   41.8310   85.1467 H         1 NAP350      0.0000 
     68 H           1.8192   40.3664   85.0600 H         1 NAP350      0.0000 
     69 H           0.1717   39.6295   86.6653 H         1 NAP350      0.0000 
     70 H           0.6908   39.6454   89.0201 H         1 NAP350      0.0000 
     71 H          -7.0582   38.2385   92.7185 H         1 NAP350      0.0000 
     72 H          -0.5575   40.4119   92.8683 H         1 NAP350      0.0000 
     73 H           3.6253   42.2579   91.7200 H         1 NAP350      0.0000 
@<TRIPOS>BOND
     1    2    1 ar   
     2    3    1 ar   
     3    4    1 1    
     4   23    1 1    
     5    5    4 1    
     6    6    5 1    
     7   49    5 1    
     8   50    5 1    
     9    7    6 1    
    10    8    6 1    
    11   51    6 1    
    12   12    7 1    
    13    9    8 1    
    14   10    8 1    
    15   52    8 1    
    16   71    9 1    
    17   11   10 1    
    18   12   10 1    
    19   53   10 1    
    20   45   11 1    
    21   13   12 1    
    22   54   12 1    
    23   14   13 1    
    24   22   13 1    
    25   15   14 2    
    26   55   14 1    
    27   16   15 1    
    28   17   16 ar   
    29   22   16 ar   
    30   18   17 1    
    31   19   17 ar   
    32   56   18 1    
    33   57   18 1    
    34   20   19 ar   
    35   21   20 ar   
    36   58   20 1    
    37   22   21 ar   
    38   24   23 1    
    39   25   24 ar   
    40   26   24 ar   
    41   27   24 1    
    42   28   27 1    
    43   29   28 1    
    44   59   28 1    
    45   60   28 1    
    46   30   29 1    
    47   31   29 1    
    48   61   29 1    
    49   35   30 1    
    50   32   31 1    
    51   33   31 1    
    52   62   31 1    
    53   72   32 1    
    54   34   33 1    
    55   35   33 1    
    56   63   33 1    
    57   73   34 1    
    58   36   35 1    
    59   64   35 1    
    60   37   36 ar   
    61   44   36 ar   
    62   38   37 ar   
    63   65   37 1    
    64   39   38 1    
    65   42   38 ar   
    66   40   39 2    
    67   41   39 am   
    68   66   41 1    
    69   67   41 1    
    70   43   42 ar   
    71   68   42 1    
    72   44   43 ar   
    73   69   43 1    
    74   70   44 1    
    75   46   45 ar   
    76   47   45 ar   
    77   48   45 ar   
@<TRIPOS>SUBSTRUCTURE
     1 NAP350      1 GROUP   
@<TRIPOS>SET

