#    Name: 1f1h_ADP_5_INTS_M
#    Modification time : Tue Mar 25 00:34:57 2014

@<TRIPOS>MOLECULE
1f1h_ADP_5_INTS_M
   44     0     9     0     0
SMALL
NO_CHARGES


@<TRIPOS>ATOM
      1 N         -38.5120  -43.1670  -70.8500 N.am      2 SEC2        0.0000 
      2 N         -38.9540  -44.4980  -70.5560 N.am      8 SEL2        0.0000 
      3 N         -38.0700  -41.8360  -71.1440 N.am      5 SEP2        0.0000 
      4 N         -39.6800  -45.4565  -69.5695 N.am      2 SEC2        0.0000 
      5 N         -40.4060  -46.4150  -68.5830 N.am      5 SEP2        0.0000 
      6 N         -41.3125  -42.1450  -72.1430 N.am      2 SEC2        0.0000 
      7 N         -40.3750  -43.1960  -72.2590 N.am      8 SEL2        0.0000 
      8 N         -42.2500  -41.0940  -72.0270 N.am      5 SEP2        0.0000 
      9 N         -40.6420  -46.0675  -70.1720 N.am      2 SEC2        0.0000 
     10 N         -40.8780  -45.7200  -71.7610 N.am      8 SEL2        0.0000 
     11 O         -33.7035  -44.3180  -77.2005 O.2       1 ALC1        0.0000 
     12 O         -33.6980  -45.5150  -76.7590 O.2       7 ALL1        0.0000 
     13 O         -33.7090  -43.1210  -77.6420 O.2       4 ALP1        0.0000 
     14 CA        -32.8285  -48.0355  -79.4140 C.3       3 GLC5        0.0000 
     15 CA        -34.2840  -47.7690  -77.8920 C.3       9 GLL5        0.0000 
     16 CA        -31.3730  -48.3020  -80.9360 C.3       6 GLP5        0.0000 
     17 N         -32.5790  -46.3875  -79.3475 N.am      2 SEC2        0.0000 
     18 N         -33.8540  -47.3490  -79.1510 N.am      8 SEL2        0.0000 
     19 N         -31.3040  -45.4260  -79.5440 N.am      5 SEP2        0.0000 
     20 O         -35.0200  -46.2430  -79.3025 O.2       1 ALC1        0.0000 
     21 O         -33.8540  -47.3490  -79.1510 O.2       7 ALL1        0.0000 
     22 O         -36.1860  -45.1370  -79.4540 O.2       4 ALP1        0.0000 
     23 CA        -31.8355  -47.5730  -75.9955 C.3       3 GLC5        0.0000 
     24 CA        -33.3460  -48.4500  -76.8990 C.3       9 GLL5        0.0000 
     25 CA        -30.3250  -46.6960  -75.0920 C.3       6 GLP5        0.0000 
     26 CA        -31.7195  -47.9565  -77.9275 C.3       3 GLC5        0.0000 
     27 CA        -30.0930  -47.4630  -78.9560 C.3       6 GLP5        0.0000 
     28 CA        -32.7995  -49.3770  -75.2435 C.3       3 GLC5        0.0000 
     29 CA        -32.2530  -50.3040  -73.5880 C.3       6 GLP5        0.0000 
     30 CA        -34.4310  -53.8000  -80.6645 C.3       3 GLC5        0.0000 
     31 CA        -33.3690  -52.1080  -80.2330 C.3       9 GLL5        0.0000 
     32 CA        -35.4930  -55.4920  -81.0960 C.3       6 GLP5        0.0000 
     33 CA        -33.3440  -52.7960  -78.1375 C.3       3 GLC5        0.0000 
     34 CA        -33.3190  -53.4840  -76.0420 C.3       6 GLP5        0.0000 
     35 CA        -35.5798  -46.1890  -73.6852 C.3       3 GLC5        0.0000 
     36 CA        -34.9460  -47.1790  -75.7590 C.3       9 GLL5        0.0000 
     37 CA        -35.5240  -45.4240  -71.7260 C.3       6 GLP5        0.0000 
     38 CA        -35.0057  -48.0010  -74.2067 C.3       3 GLC5        0.0000 
     39 CA        -36.3250  -46.7290  -75.5300 C.3       9 GLL5        0.0000 
     40 CA        -34.3760  -49.0480  -72.7690 C.3       6 GLP5        0.0000 
     41 CA        -31.0515  -49.3498  -78.6868 C.3       3 GLC5        0.0000 
     42 CA        -32.5980  -50.8120  -78.4710 C.3       9 GLL5        0.0000 
     43 CA        -32.6536  -52.4939  -77.3444 C.3       3 GLC5        0.0000 
     44 CA        -31.4220  -51.6610  -78.3640 C.3       9 GLL5        0.0000 
@<TRIPOS>BOND
@<TRIPOS>SUBSTRUCTURE
     1 ALC1       11 GROUP        1 X    ALC  0     ROOT ALC X 1
     2 SEC2        1 GROUP        1 X    SEC  0     **** SEC X 2
     3 GLC5       14 GROUP        1 X    GLC  0     **** GLC X 6
     4 ALP1       13 GROUP        1 Y    ALP  0     ROOT ALP Y 8
     5 SEP2        3 GROUP        1 Y    SEP  0     **** SEP Y 9
     6 GLP5       16 GROUP        1 Y    GLP  0     **** GLP Y 13
     7 ALL1       12 GROUP        1 Z    ALL  0     ROOT ALL Z 15
     8 SEL2        2 GROUP        1 Z    SEL  0     **** SEL Z 16
     9 GLL5       15 GROUP        1 Z    GLL  0     **** GLL Z 20
@<TRIPOS>SET

