#    Name: 1f1h_ADP_5_ligand
#    Modification time : Tue Mar 25 00:34:58 2014

@<TRIPOS>MOLECULE
1f1h_ADP_5_ligand
   39    41     1     0     0
SMALL
NO_CHARGES


@<TRIPOS>ATOM
      1 PB        -39.7600  -44.4770  -71.8830 P.3       1 ADP1475     0.0000 
      2 O1B       -38.9540  -44.4980  -70.5560 O.co2     1 ADP1475     0.0000 
      3 O2B       -40.3750  -43.1960  -72.2590 O.co2     1 ADP1475     0.0000 
      4 O3B       -40.8780  -45.7200  -71.7610 O.co2     1 ADP1475     0.0000 
      5 PA        -38.7580  -46.3100  -74.1580 P.3       1 ADP1475     0.0000 
      6 O1A       -39.4490  -47.5460  -73.5800 O.co2     1 ADP1475     0.0000 
      7 O2A       -39.4940  -45.8250  -75.4500 O.co2     1 ADP1475     0.0000 
      8 O3A       -38.6790  -45.0850  -73.0110 O.3       1 ADP1475     0.0000 
      9 O5'       -37.3080  -46.9040  -74.5320 O.3       1 ADP1475     0.0000 
     10 C5'       -36.3250  -46.7290  -75.5300 C.3       1 ADP1475     0.0000 
     11 C4'       -34.9460  -47.1790  -75.7590 C.3       1 ADP1475     0.0000 
     12 O4'       -34.5110  -48.6380  -75.9520 O.3       1 ADP1475     0.0000 
     13 C3'       -34.6500  -46.5370  -77.0320 C.3       1 ADP1475     0.0000 
     14 O3'       -33.6980  -45.5150  -76.7590 O.3       1 ADP1475     0.0000 
     15 C2'       -34.2840  -47.7690  -77.8920 C.3       1 ADP1475     0.0000 
     16 O2'       -33.8540  -47.3490  -79.1510 O.3       1 ADP1475     0.0000 
     17 C1'       -33.3460  -48.4500  -76.8990 C.3       1 ADP1475     0.0000 
     18 N9        -32.4500  -49.7980  -77.4400 N.pl3     1 ADP1475     0.0000 
     19 C8        -31.1720  -50.2290  -76.8610 C.2       1 ADP1475     0.0000 
     20 N7        -30.5470  -51.2900  -77.3680 N.2       1 ADP1475     0.0000 
     21 C5        -31.4220  -51.6610  -78.3640 C.ar      1 ADP1475     0.0000 
     22 C6        -31.3350  -52.7300  -79.2810 C.ar      1 ADP1475     0.0000 
     23 N6        -30.3440  -53.4570  -79.2310 N.pl3     1 ADP1475     0.0000 
     24 N1        -32.2980  -52.9360  -80.1990 N.ar      1 ADP1475     0.0000 
     25 C2        -33.3690  -52.1080  -80.2330 C.ar      1 ADP1475     0.0000 
     26 N3        -33.6390  -51.0180  -79.4240 N.ar      1 ADP1475     0.0000 
     27 C4        -32.5980  -50.8120  -78.4710 C.ar      1 ADP1475     0.0000 
     28 H         -36.2826  -45.5180  -75.7520 H         1 ADP1475     0.0000 
     29 H         -36.8907  -46.9491  -76.6020 H         1 ADP1475     0.0000 
     30 H         -34.2708  -46.7020  -75.0350 H         1 ADP1475     0.0000 
     31 H         -35.5932  -46.1523  -77.4064 H         1 ADP1475     0.0000 
     32 H         -35.2098  -48.3534  -77.8991 H         1 ADP1475     0.0000 
     33 H         -32.7066  -47.7084  -76.5039 H         1 ADP1475     0.0000 
     34 H         -30.8152  -49.6782  -76.0756 H         1 ADP1475     0.0000 
     35 H         -29.6711  -53.2357  -78.5251 H         1 ADP1475     0.0000 
     36 H         -30.3079  -54.1984  -79.9011 H         1 ADP1475     0.0000 
     37 H         -34.1255  -52.3191  -80.9955 H         1 ADP1475     0.0000 
     38 H         -34.0188  -44.7189  -77.2722 H         1 ADP1475     0.0000 
     39 H         -34.4844  -46.6167  -79.4087 H         1 ADP1475     0.0000 
@<TRIPOS>BOND
     1    2    1 ar   
     2    3    1 ar   
     3    4    1 ar   
     4    8    1 1    
     5    6    5 ar   
     6    7    5 ar   
     7    8    5 1    
     8    9    5 1    
     9   10    9 1    
    10   11   10 1    
    11   28   10 1    
    12   29   10 1    
    13   12   11 1    
    14   13   11 1    
    15   30   11 1    
    16   17   12 1    
    17   14   13 1    
    18   15   13 1    
    19   31   13 1    
    20   38   14 1    
    21   16   15 1    
    22   17   15 1    
    23   32   15 1    
    24   39   16 1    
    25   18   17 1    
    26   33   17 1    
    27   19   18 1    
    28   27   18 1    
    29   20   19 2    
    30   34   19 1    
    31   21   20 1    
    32   22   21 ar   
    33   27   21 ar   
    34   23   22 1    
    35   24   22 ar   
    36   35   23 1    
    37   36   23 1    
    38   25   24 ar   
    39   26   25 ar   
    40   37   25 1    
    41   27   26 ar   
@<TRIPOS>SUBSTRUCTURE
     1 ADP1475     1 GROUP   
@<TRIPOS>SET

