#    Name: 3fws_ANP_2_INTS_M
#    Modification time : Tue Mar 25 06:40:16 2014

@<TRIPOS>MOLECULE
3fws_ANP_2_INTS_M
   65     0    15     0     0
SMALL
NO_CHARGES


@<TRIPOS>ATOM
      1 NZ          3.9670   46.4415   43.7770 N.4       3 LYC4        0.0000 
      2 NZ          5.2280   45.2640   43.6870 N.4      13 LYL4        0.0000 
      3 NZ          2.7060   47.6190   43.8670 N.4       8 LYP4        0.0000 
      4 N           6.2550   50.9935   40.8080 N.am      2 SEC2        0.0000 
      5 N           5.9310   50.0760   41.7170 N.am     12 SEL2        0.0000 
      6 N           6.5790   51.9110   39.8990 N.am      7 SEP2        0.0000 
      7 NZ          4.7320   47.2935   39.7695 N.4       3 LYC4        0.0000 
      8 NZ          5.0230   48.5970   39.9700 N.4      13 LYL4        0.0000 
      9 NZ          3.6710   45.3160   38.7700 N.4       8 LYP4        0.0000 
     10 Zn          5.3970   48.4855   38.7320 Zn        4 ZIC7        0.0000 
     11 Zn          5.0230   48.5970   39.9700 Zn       14 ZIL7        0.0000 
     12 Zn          5.7710   48.3740   37.4940 Zn        9 ZIP7        0.0000 
     13 N           4.7320   47.2935   39.7695 N.am      2 SEC2        0.0000 
     14 N           5.0230   48.5970   39.9700 N.am     12 SEL2        0.0000 
     15 N           4.4410   45.9900   39.5690 N.am      7 SEP2        0.0000 
     16 N           4.1730   49.9070   39.5520 N.am      2 SEC2        0.0000 
     17 N           3.3230   51.2170   39.1340 N.am      7 SEP2        0.0000 
     18 N          10.5830   46.7505   40.1790 N.am      2 SEC2        0.0000 
     19 N           9.7090   47.9890   40.1450 N.am     12 SEL2        0.0000 
     20 N          11.4570   45.5120   40.2130 N.am      7 SEP2        0.0000 
     21 CA         10.7455   49.0310   43.4480 C.3       5 GLC5        0.0000 
     22 CA          8.7180   49.8260   43.3530 C.3      15 GLL5        0.0000 
     23 CA         12.7730   48.2360   43.5430 C.3      10 GLP5        0.0000 
     24 O           7.6455   54.2805   42.7105 O.2       1 ALC1        0.0000 
     25 O           8.5480   53.6750   43.3960 O.2      11 ALL1        0.0000 
     26 O           6.7430   54.8860   42.0250 O.2       6 ALP1        0.0000 
     27 N          10.5655   54.9180   41.9060 N.am      2 SEC2        0.0000 
     28 N          10.0680   53.8430   41.2860 N.am     12 SEL2        0.0000 
     29 N          11.0630   55.9930   42.5260 N.am      7 SEP2        0.0000 
     30 O           9.0240   54.3165   40.7505 O.2       1 ALC1        0.0000 
     31 O          10.0680   53.8430   41.2860 O.2      11 ALL1        0.0000 
     32 O           7.9800   54.7900   40.2150 O.2       6 ALP1        0.0000 
     33 CA         11.9715   50.1975   43.0490 C.3       5 GLC5        0.0000 
     34 CA         11.1700   52.1590   42.5550 C.3      15 GLL5        0.0000 
     35 CA         16.7680   52.3920   40.2950 C.3       5 GLC5        0.0000 
     36 CA         15.5450   50.8560   40.8830 C.3      15 GLL5        0.0000 
     37 CA         17.9910   53.9280   39.7070 C.3      10 GLP5        0.0000 
     38 CA         17.4280   50.1785   41.8550 C.3       5 GLC5        0.0000 
     39 CA         19.3110   49.5010   42.8270 C.3      10 GLP5        0.0000 
     40 CA         16.7135   49.0125   40.4185 C.3       5 GLC5        0.0000 
     41 CA         17.8820   47.1690   39.9540 C.3      10 GLP5        0.0000 
     42 O          17.7315   50.2905   39.8550 O.2       1 ALC1        0.0000 
     43 O          16.2220   50.2090   39.9240 O.2      11 ALL1        0.0000 
     44 O          19.2410   50.3720   39.7860 O.2       6 ALP1        0.0000 
     45 O          15.7115   49.1110   39.0825 O.2       1 ALC1        0.0000 
     46 O          15.2010   48.0130   38.2410 O.2       6 ALP1        0.0000 
     47 N          17.5870   51.7240   42.0365 N.am      2 SEC2        0.0000 
     48 N          16.1870   51.5860   41.8610 N.am     12 SEL2        0.0000 
     49 N          18.9870   51.8620   42.2120 N.am      7 SEP2        0.0000 
     50 CA         14.4220   54.1835   43.0170 C.3       5 GLC5        0.0000 
     51 CA         15.5250   52.2600   42.7900 C.3      15 GLL5        0.0000 
     52 CA         13.3190   56.1070   43.2440 C.3      10 GLP5        0.0000 
     53 CA         16.9960   53.2485   42.4485 C.3       5 GLC5        0.0000 
     54 CA         18.4670   54.2370   42.1070 C.3      10 GLP5        0.0000 
     55 CA         13.1460   49.9210   42.7000 C.3       5 GLC5        0.0000 
     56 CA         13.5190   51.6060   41.8570 C.3      15 GLL5        0.0000 
     57 CA          8.4023   51.8978   40.5958 C.3       5 GLC5        0.0000 
     58 CA          9.8930   52.4920   41.7080 C.3      15 GLL5        0.0000 
     59 CA          7.4960   51.3670   38.9840 C.3      10 GLP5        0.0000 
     60 CA         11.8852   53.3112   40.7978 C.3       5 GLC5        0.0000 
     61 CA         13.2390   54.2970   39.4640 C.3      10 GLP5        0.0000 
     62 CA         15.1500   49.2140   41.7478 C.3       5 GLC5        0.0000 
     63 CA         14.1590   50.8700   40.8600 C.3      15 GLL5        0.0000 
     64 CA         15.4480   47.5650   42.6240 C.3      10 GLP5        0.0000 
     65 CA         13.7123   52.7657   40.4141 C.3       5 GLC5        0.0000 
@<TRIPOS>BOND
@<TRIPOS>SUBSTRUCTURE
     1 ALC1       24 GROUP        1 X    ALC  0     ROOT ALC X 1
     2 SEC2        4 GROUP        1 X    SEC  0     **** SEC X 2
     3 LYC4        1 GROUP        1 X    LYC  0     **** LYC X 4
     4 ZIC7       10 GROUP        1 X    ZIC  0     **** ZIC X 5
     5 GLC5       21 GROUP        1 X    GLC  0     **** GLC X 6
     6 ALP1       26 GROUP        1 Y    ALP  0     ROOT ALP Y 8
     7 SEP2        6 GROUP        1 Y    SEP  0     **** SEP Y 9
     8 LYP4        3 GROUP        1 Y    LYP  0     **** LYP Y 11
     9 ZIP7       12 GROUP        1 Y    ZIP  0     **** ZIP Y 12
    10 GLP5       23 GROUP        1 Y    GLP  0     **** GLP Y 13
    11 ALL1       25 GROUP        1 Z    ALL  0     ROOT ALL Z 15
    12 SEL2        5 GROUP        1 Z    SEL  0     **** SEL Z 16
    13 LYL4        2 GROUP        1 Z    LYL  0     **** LYL Z 18
    14 ZIL7       11 GROUP        1 Z    ZIL  0     **** ZIL Z 19
    15 GLL5       22 GROUP        1 Z    GLL  0     **** GLL Z 20
@<TRIPOS>SET

