#    Name: 3fws_ANP_2_ligand
#    Modification time : Tue Mar 25 06:40:16 2014

@<TRIPOS>MOLECULE
3fws_ANP_2_ligand
   43    45     1     0     0
SMALL
NO_CHARGES


@<TRIPOS>ATOM
      1 PG          6.3850   46.2080   43.0170 P.3       1 ANP221      0.0000 
      2 O1G         5.2280   45.2640   43.6870 O.co2     1 ANP221      0.0000 
      3 O2G         7.0670   45.0940   41.9900 O.co2     1 ANP221      0.0000 
      4 O3G         7.0690   47.0750   44.2940 O.co2     1 ANP221      0.0000 
      5 PB          5.7050   48.7310   41.2830 P.3       1 ANP221      0.0000 
      6 O1B         5.9310   50.0760   41.7170 O.co2     1 ANP221      0.0000 
      7 O2B         5.0230   48.5970   39.9700 O.co2     1 ANP221      0.0000 
      8 N3B         5.6180   47.2970   41.9470 N.4       1 ANP221      0.0000 
      9 PA          8.7040   48.2120   41.2300 P.3       1 ANP221      0.0000 
     10 O1A         8.5000   47.1940   42.2640 O.co2     1 ANP221      0.0000 
     11 O2A         9.7090   47.9890   40.1450 O.co2     1 ANP221      0.0000 
     12 O3A         7.2440   48.4490   40.5500 O.3       1 ANP221      0.0000 
     13 O5'         9.1020   49.5400   41.9560 O.3       1 ANP221      0.0000 
     14 C5'         8.7180   49.8260   43.3530 C.3       1 ANP221      0.0000 
     15 C4'         9.2230   51.2840   43.6730 C.3       1 ANP221      0.0000 
     16 O4'        10.7410   51.1800   43.5170 O.3       1 ANP221      0.0000 
     17 C3'         8.7240   52.3650   42.7070 C.3       1 ANP221      0.0000 
     18 O3'         8.5480   53.6750   43.3960 O.3       1 ANP221      0.0000 
     19 C2'         9.8930   52.4920   41.7080 C.3       1 ANP221      0.0000 
     20 O2'        10.0680   53.8430   41.2860 O.3       1 ANP221      0.0000 
     21 C1'        11.1700   52.1590   42.5550 C.3       1 ANP221      0.0000 
     22 N9         12.2060   51.5020   41.6590 N.pl3     1 ANP221      0.0000 
     23 C8         12.0390   50.7130   40.5860 C.2       1 ANP221      0.0000 
     24 N7         13.2160   50.3140   40.0650 N.2       1 ANP221      0.0000 
     25 C5         14.1590   50.8700   40.8600 C.ar      1 ANP221      0.0000 
     26 C6         15.5450   50.8560   40.8830 C.ar      1 ANP221      0.0000 
     27 N6         16.2220   50.2090   39.9240 N.pl3     1 ANP221      0.0000 
     28 N1         16.1870   51.5860   41.8610 N.ar      1 ANP221      0.0000 
     29 C2         15.5250   52.2600   42.7900 C.ar      1 ANP221      0.0000 
     30 N3         14.2100   52.2750   42.7910 N.ar      1 ANP221      0.0000 
     31 C4         13.5190   51.6060   41.8570 C.ar      1 ANP221      0.0000 
     32 H           9.1994   49.1574   44.0404 H         1 ANP221      0.0000 
     33 H           7.6526   49.8160   43.4804 H         1 ANP221      0.0000 
     34 H           9.0017   51.5156   44.6711 H         1 ANP221      0.0000 
     35 H           7.8809   52.0406   42.2060 H         1 ANP221      0.0000 
     36 H           9.8114   51.7986   40.9551 H         1 ANP221      0.0000 
     37 H          11.5309   53.0258   42.9847 H         1 ANP221      0.0000 
     38 H          11.1568   50.4533   40.2186 H         1 ANP221      0.0000 
     39 H          15.6698   49.7711   39.2146 H         1 ANP221      0.0000 
     40 H          17.2187   50.2221   40.0038 H         1 ANP221      0.0000 
     41 H          16.0598   52.7861   43.5310 H         1 ANP221      0.0000 
     42 H           7.5979   53.9336   43.2212 H         1 ANP221      0.0000 
     43 H           9.1624   54.2590   41.3682 H         1 ANP221      0.0000 
@<TRIPOS>BOND
     1    2    1 ar   
     2    3    1 ar   
     3    4    1 ar   
     4    8    1 1    
     5    6    5 ar   
     6    7    5 ar   
     7    8    5 1    
     8   12    5 1    
     9   10    9 ar   
    10   11    9 ar   
    11   12    9 1    
    12   13    9 1    
    13   14   13 1    
    14   15   14 1    
    15   32   14 1    
    16   33   14 1    
    17   16   15 1    
    18   17   15 1    
    19   34   15 1    
    20   21   16 1    
    21   18   17 1    
    22   19   17 1    
    23   35   17 1    
    24   42   18 1    
    25   20   19 1    
    26   21   19 1    
    27   36   19 1    
    28   43   20 1    
    29   22   21 1    
    30   37   21 1    
    31   23   22 1    
    32   31   22 1    
    33   24   23 2    
    34   38   23 1    
    35   25   24 1    
    36   26   25 ar   
    37   31   25 ar   
    38   27   26 1    
    39   28   26 ar   
    40   39   27 1    
    41   40   27 1    
    42   29   28 ar   
    43   30   29 ar   
    44   41   29 1    
    45   31   30 ar   
@<TRIPOS>SUBSTRUCTURE
     1 ANP221      1 GROUP   
@<TRIPOS>SET

