#    Name: 2aa0_MTP_2_INTS_M
#    Modification time : Mon Mar 24 18:47:41 2014

@<TRIPOS>MOLECULE
2aa0_MTP_2_INTS_M
   45     0     9     0     0
SMALL
NO_CHARGES


@<TRIPOS>ATOM
      1 CA        -21.0455  -50.0560 -114.2385 C.3       3 GLC5        0.0000 
      2 CA        -21.6230  -49.8730 -112.4140 C.3       9 GLL5        0.0000 
      3 CA        -20.4680  -50.2390 -116.0630 C.3       6 GLP5        0.0000 
      4 CA        -21.6880  -49.1210 -110.3855 C.3       3 GLC5        0.0000 
      5 CA        -21.7530  -48.3690 -108.3570 C.3       6 GLP5        0.0000 
      6 CA        -19.7480  -49.6205 -111.3160 C.3       3 GLC5        0.0000 
      7 CA        -17.8730  -49.3680 -110.2180 C.3       6 GLP5        0.0000 
      8 CA        -20.4065  -51.6075 -111.7670 C.3       3 GLC5        0.0000 
      9 CA        -19.1900  -53.3420 -111.1200 C.3       6 GLP5        0.0000 
     10 CA        -21.6520  -52.7325 -112.4340 C.3       3 GLC5        0.0000 
     11 CA        -22.7570  -50.8370 -112.0590 C.3       9 GLL5        0.0000 
     12 CA        -20.5470  -54.6280 -112.8090 C.3       6 GLP5        0.0000 
     13 CA        -22.7275  -51.7645 -110.4565 C.3       3 GLC5        0.0000 
     14 CA        -22.6980  -52.6920 -108.8540 C.3       6 GLP5        0.0000 
     15 CA        -28.2275  -48.2945 -113.2865 C.3       3 GLC5        0.0000 
     16 CA        -27.4910  -48.2220 -111.3050 C.3       9 GLL5        0.0000 
     17 CA        -28.9640  -48.3670 -115.2680 C.3       6 GLP5        0.0000 
     18 CA        -30.1570  -48.7315 -110.0670 C.3       3 GLC5        0.0000 
     19 CA        -28.8570  -47.9650 -111.3120 C.3       9 GLL5        0.0000 
     20 CA        -31.4570  -49.4980 -108.8220 C.3       6 GLP5        0.0000 
     21 CA        -30.7250  -46.9825 -113.2390 C.3       3 GLC5        0.0000 
     22 CA        -31.2260  -46.4110 -111.5370 C.3       9 GLL5        0.0000 
     23 CA        -30.2240  -47.5540 -114.9410 C.3       6 GLP5        0.0000 
     24 CA        -31.3415  -47.9545 -110.1795 C.3       3 GLC5        0.0000 
     25 CA        -28.8450  -51.5165 -112.2615 C.3       3 GLC5        0.0000 
     26 CA        -29.2870  -50.2400 -111.1120 C.3       9 GLL5        0.0000 
     27 CA        -28.4030  -52.7930 -113.4110 C.3       6 GLP5        0.0000 
     28 CA        -30.3720  -49.8690 -109.9670 C.3       3 GLC5        0.0000 
     29 CA        -28.2990  -49.6795 -109.1945 C.3       3 GLC5        0.0000 
     30 CA        -27.3110  -49.1190 -107.2770 C.3       6 GLP5        0.0000 
     31 N         -28.5020  -51.9240 -110.6530 N.am      2 SEC2        0.0000 
     32 N         -27.9950  -50.5190 -111.1010 N.am      8 SEL2        0.0000 
     33 N         -29.0090  -53.3290 -110.2050 N.am      5 SEP2        0.0000 
     34 CA        -27.7410  -51.1685 -112.3035 C.3       3 GLC5        0.0000 
     35 CA        -27.0790  -49.5440 -111.1960 C.3       9 GLL5        0.0000 
     36 CA        -26.6650  -52.1670 -112.9230 C.3       3 GLC5        0.0000 
     37 CA        -24.9270  -51.5410 -112.4350 C.3       9 GLL5        0.0000 
     38 CA        -22.1155  -50.5805 -114.6340 C.3       3 GLC5        0.0000 
     39 CA        -23.7630  -50.9220 -113.2050 C.3       9 GLL5        0.0000 
     40 O         -24.0255  -51.3450 -115.3780 O.2       1 ALC1        0.0000 
     41 O         -23.2850  -51.8520 -114.1810 O.2       7 ALL1        0.0000 
     42 O         -24.7660  -50.8380 -116.5750 O.2       4 ALP1        0.0000 
     43 CA        -23.8012  -51.9163 -110.3182 C.3       3 GLC5        0.0000 
     44 CA        -29.6887  -47.3492 -113.1605 C.3       3 GLC5        0.0000 
     45 CA        -27.4688  -48.9689 -109.2646 C.3       3 GLC5        0.0000 
@<TRIPOS>BOND
@<TRIPOS>SUBSTRUCTURE
     1 ALC1       40 GROUP        1 X    ALC  0     ROOT ALC X 1
     2 SEC2       31 GROUP        1 X    SEC  0     **** SEC X 2
     3 GLC5        1 GROUP        1 X    GLC  0     **** GLC X 6
     4 ALP1       42 GROUP        1 Y    ALP  0     ROOT ALP Y 8
     5 SEP2       33 GROUP        1 Y    SEP  0     **** SEP Y 9
     6 GLP5        3 GROUP        1 Y    GLP  0     **** GLP Y 13
     7 ALL1       41 GROUP        1 Z    ALL  0     ROOT ALL Z 15
     8 SEL2       32 GROUP        1 Z    SEL  0     **** SEL Z 16
     9 GLL5        2 GROUP        1 Z    GLL  0     **** GLL Z 20
@<TRIPOS>SET

