#    Name: 2aa0_MTP_2_ligand
#    Modification time : Mon Mar 24 18:47:41 2014

@<TRIPOS>MOLECULE
2aa0_MTP_2_ligand
   34    36     1     0     0
SMALL
NO_CHARGES


@<TRIPOS>ATOM
      1 O5'       -20.7840  -49.6740 -111.2730 O.3       1 MTP1002     0.0000 
      2 C5'       -21.6230  -49.8730 -112.4140 C.3       1 MTP1002     0.0000 
      3 C4'       -22.7570  -50.8370 -112.0590 C.3       1 MTP1002     0.0000 
      4 O4'       -23.5230  -50.2890 -110.9730 O.3       1 MTP1002     0.0000 
      5 C1'       -24.8820  -50.7400 -111.1300 C.3       1 MTP1002     0.0000 
      6 N9        -25.7490  -49.5420 -111.2210 N.pl3     1 MTP1002     0.0000 
      7 C8        -25.3430  -48.2790 -111.3400 C.2       1 MTP1002     0.0000 
      8 N7        -26.3990  -47.4690 -111.3910 N.2       1 MTP1002     0.0000 
      9 C5        -27.4910  -48.2220 -111.3050 C.ar      1 MTP1002     0.0000 
     10 C6        -28.8570  -47.9650 -111.3120 C.ar      1 MTP1002     0.0000 
     11 S6        -29.4500  -46.3240 -111.4480 S.3       1 MTP1002     0.0000 
     12 CS        -31.2260  -46.4110 -111.5370 C.3       1 MTP1002     0.0000 
     13 N1        -29.7150  -48.9930 -111.2150 N.ar      1 MTP1002     0.0000 
     14 C2        -29.2870  -50.2400 -111.1120 C.ar      1 MTP1002     0.0000 
     15 N3        -27.9950  -50.5190 -111.1010 N.ar      1 MTP1002     0.0000 
     16 C4        -27.0790  -49.5440 -111.1960 C.ar      1 MTP1002     0.0000 
     17 C2'       -24.9270  -51.5410 -112.4350 C.3       1 MTP1002     0.0000 
     18 O2'       -24.6400  -52.9100 -112.1350 O.3       1 MTP1002     0.0000 
     19 C3'       -23.7630  -50.9220 -113.2050 C.3       1 MTP1002     0.0000 
     20 O3'       -23.2850  -51.8520 -114.1810 O.3       1 MTP1002     0.0000 
     21 H         -21.0693  -50.3044 -113.2551 H         1 MTP1002     0.0000 
     22 H         -22.0762  -48.9352 -112.7535 H         1 MTP1002     0.0000 
     23 H         -22.3882  -51.7885 -111.8444 H         1 MTP1002     0.0000 
     24 H         -25.1754  -51.3636 -110.3308 H         1 MTP1002     0.0000 
     25 H         -24.4067  -47.9890 -111.3835 H         1 MTP1002     0.0000 
     26 H         -29.9904  -51.0270 -111.0372 H         1 MTP1002     0.0000 
     27 H         -25.8106  -51.3607 -112.9209 H         1 MTP1002     0.0000 
     28 H         -24.0076  -49.9924 -113.5251 H         1 MTP1002     0.0000 
     29 H         -31.5326  -46.9467 -112.3238 H         1 MTP1002     0.0000 
     30 H         -31.6183  -46.8368 -110.7217 H         1 MTP1002     0.0000 
     31 H         -31.6385  -45.5040 -111.6212 H         1 MTP1002     0.0000 
     32 H         -19.8785  -49.9864 -111.5601 H         1 MTP1002     0.0000 
     33 H         -23.9250  -53.1725 -112.7830 H         1 MTP1002     0.0000 
     34 H         -23.6999  -51.5591 -115.0424 H         1 MTP1002     0.0000 
@<TRIPOS>BOND
     1    2    1 1    
     2   32    1 1    
     3    3    2 1    
     4   21    2 1    
     5   22    2 1    
     6    4    3 1    
     7   19    3 1    
     8   23    3 1    
     9    5    4 1    
    10    6    5 1    
    11   17    5 1    
    12   24    5 1    
    13    7    6 1    
    14   16    6 1    
    15    8    7 2    
    16   25    7 1    
    17    9    8 1    
    18   10    9 ar   
    19   16    9 ar   
    20   11   10 1    
    21   13   10 ar   
    22   12   11 1    
    23   29   12 1    
    24   30   12 1    
    25   31   12 1    
    26   14   13 ar   
    27   15   14 ar   
    28   26   14 1    
    29   16   15 ar   
    30   18   17 1    
    31   19   17 1    
    32   27   17 1    
    33   33   18 1    
    34   20   19 1    
    35   28   19 1    
    36   34   20 1    
@<TRIPOS>SUBSTRUCTURE
     1 MTP1002     1 GROUP   
@<TRIPOS>SET

