#    Name: 4as9_4QS_1_INTS_M
#    Modification time : Tue Mar 25 06:04:40 2014

@<TRIPOS>MOLECULE
4as9_4QS_1_INTS_M
   66     0     9     0     0
SMALL
NO_CHARGES


@<TRIPOS>ATOM
      1 CA        -18.2155   35.6840   -2.7100 C.3       3 GLC5        0.0000 
      2 CA        -18.7540   34.1500   -1.6530 C.3       9 GLL5        0.0000 
      3 CA        -17.6770   37.2180   -3.7670 C.3       6 GLP5        0.0000 
      4 CA        -19.6020   33.8090   -0.0585 C.3       3 GLC5        0.0000 
      5 CA        -20.4500   33.4680    1.5360 C.3       6 GLP5        0.0000 
      6 CA        -17.1370   33.2885   -1.0715 C.3       3 GLC5        0.0000 
      7 CA        -15.5200   32.4270   -0.4900 C.3       6 GLP5        0.0000 
      8 CA        -27.3015   36.0770   -0.7095 C.3       3 GLC5        0.0000 
      9 CA        -25.4450   35.5630   -0.2750 C.3       9 GLL5        0.0000 
     10 CA        -29.1580   36.5910   -1.1440 C.3       6 GLP5        0.0000 
     11 CA        -25.6565   35.7955    1.5740 C.3       3 GLC5        0.0000 
     12 CA        -25.8680   36.0280    3.4230 C.3       6 GLP5        0.0000 
     13 N         -25.0045   31.8945    0.4995 N.am      2 SEC2        0.0000 
     14 N         -25.6000   32.8360   -0.4370 N.am      8 SEL2        0.0000 
     15 N         -24.4090   30.9530    1.4360 N.am      5 SEP2        0.0000 
     16 O         -27.5900   33.1680   -1.9225 O.2       1 ALC1        0.0000 
     17 O         -26.1630   33.0910   -2.5160 O.2       7 ALL1        0.0000 
     18 O         -29.0170   33.2450   -1.3290 O.2       4 ALP1        0.0000 
     19 N         -28.2215   35.8935   -3.0540 N.am      2 SEC2        0.0000 
     20 N         -26.7260   35.4240   -3.6030 N.am      8 SEL2        0.0000 
     21 N         -29.7170   36.3630   -2.5050 N.am      5 SEP2        0.0000 
     22 N         -24.8010   30.2605   -7.4405 N.am      2 SEC2        0.0000 
     23 N         -24.8860   31.6850   -6.8550 N.am      8 SEL2        0.0000 
     24 N         -24.7160   28.8360   -8.0260 N.am      5 SEP2        0.0000 
     25 N         -25.0190   33.6905   -9.4985 N.am      2 SEC2        0.0000 
     26 N         -25.4940   34.0370   -7.9180 N.am      8 SEL2        0.0000 
     27 N         -24.5440   33.3440  -11.0790 N.am      5 SEP2        0.0000 
     28 CA        -25.2095   34.1275  -10.1060 C.3       3 GLC5        0.0000 
     29 CA        -26.7180   33.7820   -8.6270 C.3       9 GLL5        0.0000 
     30 CA        -23.7010   34.4730  -11.5850 C.3       6 GLP5        0.0000 
     31 CA        -24.1750   38.9655   -4.1820 C.3       3 GLC5        0.0000 
     32 CA        -24.6360   37.2800   -4.8160 C.3       9 GLL5        0.0000 
     33 CA        -23.7140   40.6510   -3.5480 C.3       6 GLP5        0.0000 
     34 N         -23.4010   39.5285   -6.5740 N.am      2 SEC2        0.0000 
     35 N         -22.7280   38.6990   -7.2570 N.am      8 SEL2        0.0000 
     36 N         -24.0740   40.3580   -5.8910 N.am      5 SEP2        0.0000 
     37 CA        -19.7585   39.1845   -6.5515 C.3       3 GLC5        0.0000 
     38 CA        -21.4650   39.4310   -7.2750 C.3       9 GLL5        0.0000 
     39 CA        -18.0520   38.9380   -5.8280 C.3       6 GLP5        0.0000 
     40 CA        -20.7210   41.1165   -6.8515 C.3       3 GLC5        0.0000 
     41 CA        -19.9770   42.8020   -6.4280 C.3       6 GLP5        0.0000 
     42 CA        -21.0335   31.1065   -4.9745 C.3       3 GLC5        0.0000 
     43 CA        -21.5300   32.6630   -6.3100 C.3       9 GLL5        0.0000 
     44 CA        -20.5370   29.5500   -3.6390 C.3       6 GLP5        0.0000 
     45 CA        -21.9890   31.0725   -7.5645 C.3       3 GLC5        0.0000 
     46 CA        -22.4480   29.4820   -8.8190 C.3       6 GLP5        0.0000 
     47 CA        -19.9180   36.7370   -5.2670 C.3       3 GLC5        0.0000 
     48 CA        -20.9620   35.0180   -6.2460 C.3       9 GLL5        0.0000 
     49 CA        -18.8740   38.4560   -4.2880 C.3       6 GLP5        0.0000 
     50 CA        -19.1305   33.2605   -8.7570 C.3       3 GLC5        0.0000 
     51 CA        -20.5350   34.4740   -8.6230 C.3       9 GLL5        0.0000 
     52 CA        -17.7260   32.0470   -8.8910 C.3       6 GLP5        0.0000 
     53 CA        -21.3735   34.3065  -10.1805 C.3       3 GLC5        0.0000 
     54 CA        -22.2120   34.1390  -11.7380 C.3       6 GLP5        0.0000 
     55 CA        -20.4825   31.5853   -3.7410 C.3       3 GLC5        0.0000 
     56 CA        -20.1260   33.3880   -4.5510 C.3       9 GLL5        0.0000 
     57 CA        -22.3447   36.4035   -0.9040 C.3       3 GLC5        0.0000 
     58 CA        -22.6140   34.8910   -2.0050 C.3       9 GLL5        0.0000 
     59 CA        -21.4180   37.6960    0.2500 C.3       6 GLP5        0.0000 
     60 CA        -23.0678   33.9805   -0.4615 C.3       3 GLC5        0.0000 
     61 CA        -22.8640   32.8500    1.1350 C.3       6 GLP5        0.0000 
     62 CA        -24.0360   34.0192    0.1630 C.3       3 GLC5        0.0000 
     63 CA        -24.9710   34.8140   -1.3430 C.3       9 GLL5        0.0000 
     64 CA        -19.2028   35.5005   -9.5228 C.3       3 GLC5        0.0000 
     65 CA        -20.6720   35.5520   -7.5460 C.3       9 GLL5        0.0000 
     66 CA        -17.8020   35.9880  -10.9610 C.3       6 GLP5        0.0000 
@<TRIPOS>BOND
@<TRIPOS>SUBSTRUCTURE
     1 ALC1       16 GROUP        1 X    ALC  0     ROOT ALC X 1
     2 SEC2       13 GROUP        1 X    SEC  0     **** SEC X 2
     3 GLC5        1 GROUP        1 X    GLC  0     **** GLC X 6
     4 ALP1       18 GROUP        1 Y    ALP  0     ROOT ALP Y 8
     5 SEP2       15 GROUP        1 Y    SEP  0     **** SEP Y 9
     6 GLP5        3 GROUP        1 Y    GLP  0     **** GLP Y 13
     7 ALL1       17 GROUP        1 Z    ALL  0     ROOT ALL Z 15
     8 SEL2       14 GROUP        1 Z    SEL  0     **** SEL Z 16
     9 GLL5        2 GROUP        1 Z    GLL  0     **** GLL Z 20
@<TRIPOS>SET

