#    Name: 4as9_4QS_1_ligand
#    Modification time : Tue Mar 25 06:04:40 2014

@<TRIPOS>MOLECULE
4as9_4QS_1_ligand
   83    84     1     0     0
SMALL
NO_CHARGES


@<TRIPOS>ATOM
      1 CAB       -18.7540   34.1500   -1.6530 C.3       1 4QS1215     0.0000 
      2 OAW       -19.8890   34.7320   -2.3450 O.3       1 4QS1215     0.0000 
      3 CBL       -20.7300   33.8530   -3.1350 C.3       1 4QS1215     0.0000 
      4 CAQ       -21.9580   34.5110   -3.1650 C.2       1 4QS1215     0.0000 
      5 CAO       -22.6140   34.8910   -2.0050 C.2       1 4QS1215     0.0000 
      6 CAP       -23.9290   35.3310   -2.1110 C.2       1 4QS1215     0.0000 
      7 CBA       -24.9710   34.8140   -1.3430 C.2       1 4QS1215     0.0000 
      8 CAD       -25.4450   35.5630   -0.2750 C.3       1 4QS1215     0.0000 
      9 CBC       -25.3680   33.4840   -1.4590 C.2       1 4QS1215     0.0000 
     10 OAK       -25.6000   32.8360   -0.4370 O.2       1 4QS1215     0.0000 
     11 NAU       -26.1630   33.0910   -2.5160 N.am      1 4QS1215     0.0000 
     12 CBF       -25.9540   33.2960   -3.8760 C.2       1 4QS1215     0.0000 
     13 CBI       -26.3030   34.5590   -4.3810 C.2       1 4QS1215     0.0000 
     14 OAM       -26.7260   35.4240   -3.6030 O.2       1 4QS1215     0.0000 
     15 CBD       -25.4680   32.2710   -4.7220 C.2       1 4QS1215     0.0000 
     16 CAF       -25.1190   31.0050   -4.2450 C.3       1 4QS1215     0.0000 
     17 CBH       -25.3170   32.5450   -6.0890 C.2       1 4QS1215     0.0000 
     18 OAL       -24.8860   31.6850   -6.8550 O.2       1 4QS1215     0.0000 
     19 CBG       -25.6540   33.8110   -6.5820 C.2       1 4QS1215     0.0000 
     20 OAV       -25.4940   34.0370   -7.9180 O.3       1 4QS1215     0.0000 
     21 CAA       -26.7180   33.7820   -8.6270 C.3       1 4QS1215     0.0000 
     22 CBE       -26.1330   34.8400   -5.7550 C.2       1 4QS1215     0.0000 
     23 CAS       -26.4340   36.1230   -6.2660 C.3       1 4QS1215     0.0000 
     24 CBJ       -25.1690   37.0800   -6.2400 C.3       1 4QS1215     0.0000 
     25 CAG       -24.6360   37.2800   -4.8160 C.3       1 4QS1215     0.0000 
     26 CAT       -24.0500   36.5870   -7.2180 C.3       1 4QS1215     0.0000 
     27 CBM       -22.6490   37.2540   -7.0610 C.3       1 4QS1215     0.0000 
     28 OAX       -22.7280   38.6990   -7.2570 O.3       1 4QS1215     0.0000 
     29 CAC       -21.4650   39.4310   -7.2750 C.3       1 4QS1215     0.0000 
     30 CBN       -21.6300   36.7100   -8.0770 C.3       1 4QS1215     0.0000 
     31 OAN       -22.2910   36.4380   -9.3830 O.3       1 4QS1215     0.0000 
     32 CAH       -21.5300   32.6630   -6.3100 C.3       1 4QS1215     0.0000 
     33 CAR       -20.9620   35.0180   -6.2460 C.2       1 4QS1215     0.0000 
     34 CBK       -20.6720   35.5520   -7.5460 C.3       1 4QS1215     0.0000 
     35 CAE       -20.5350   34.4740   -8.6230 C.3       1 4QS1215     0.0000 
     36 OAY       -18.7770   33.8110   -4.7640 O.3       1 4QS1215     0.0000 
     37 CAZ       -17.7350   32.9170   -4.8730 C.2       1 4QS1215     0.0000 
     38 OAJ       -16.7810   33.2140   -5.6040 O.2       1 4QS1215     0.0000 
     39 NAI       -17.7050   31.7740   -4.1770 N.am      1 4QS1215     0.0000 
     40 CBB       -20.8500   33.7120   -5.7150 C.2       1 4QS1215     0.0000 
     41 CBO       -20.1260   33.3880   -4.5510 C.3       1 4QS1215     0.0000 
     42 H         -20.8508   32.9027   -2.5392 H         1 4QS1215     0.0000 
     43 H         -22.3929   34.7219   -4.0882 H         1 4QS1215     0.0000 
     44 H         -22.1500   34.8502   -1.1025 H         1 4QS1215     0.0000 
     45 H         -24.1490   36.0898   -2.8031 H         1 4QS1215     0.0000 
     46 H         -27.0724   32.5503   -2.2565 H         1 4QS1215     0.0000 
     47 H         -27.2158   36.6403   -5.6875 H         1 4QS1215     0.0000 
     48 H         -26.7711   36.0966   -7.3144 H         1 4QS1215     0.0000 
     49 H         -25.5136   38.0591   -6.6136 H         1 4QS1215     0.0000 
     50 H         -24.4006   36.7467   -8.2546 H         1 4QS1215     0.0000 
     51 H         -23.9349   35.4945   -7.0906 H         1 4QS1215     0.0000 
     52 H         -22.2786   37.0347   -6.0695 H         1 4QS1215     0.0000 
     53 H         -20.9173   37.5974   -8.2708 H         1 4QS1215     0.0000 
     54 H         -21.3426   35.7714   -5.5333 H         1 4QS1215     0.0000 
     55 H         -19.6441   36.0519   -7.5180 H         1 4QS1215     0.0000 
     56 H         -18.4986   31.5912   -3.5967 H         1 4QS1215     0.0000 
     57 H         -16.8916   31.2053   -4.2997 H         1 4QS1215     0.0000 
     58 H         -20.0902   32.2467   -4.4690 H         1 4QS1215     0.0000 
     59 H         -18.1134   33.7183   -2.2880 H         1 4QS1215     0.0000 
     60 H         -18.2397   34.8371   -1.1398 H         1 4QS1215     0.0000 
     61 H         -19.0374   33.4478   -0.9999 H         1 4QS1215     0.0000 
     62 H         -24.7287   35.7433    0.3991 H         1 4QS1215     0.0000 
     63 H         -25.7985   36.4502   -0.5715 H         1 4QS1215     0.0000 
     64 H         -26.1883   35.0968    0.2047 H         1 4QS1215     0.0000 
     65 H         -24.7951   30.4079   -4.9789 H         1 4QS1215     0.0000 
     66 H         -24.3894   31.0533   -3.5629 H         1 4QS1215     0.0000 
     67 H         -25.8942   30.5442   -3.8129 H         1 4QS1215     0.0000 
     68 H         -26.6195   33.9453   -9.6086 H         1 4QS1215     0.0000 
     69 H         -27.0210   32.8355   -8.5163 H         1 4QS1215     0.0000 
     70 H         -27.4622   34.3675   -8.3056 H         1 4QS1215     0.0000 
     71 H         -24.3596   36.4146   -4.3979 H         1 4QS1215     0.0000 
     72 H         -23.8375   37.8817   -4.7994 H         1 4QS1215     0.0000 
     73 H         -25.3237   37.6889   -4.2161 H         1 4QS1215     0.0000 
     74 H         -20.9624   39.3255   -6.4170 H         1 4QS1215     0.0000 
     75 H         -20.8629   39.1148   -8.0082 H         1 4QS1215     0.0000 
     76 H         -21.6058   40.4113   -7.4136 H         1 4QS1215     0.0000 
     77 H         -21.2557   32.5357   -7.2632 H         1 4QS1215     0.0000 
     78 H         -21.3627   31.7970   -5.8387 H         1 4QS1215     0.0000 
     79 H         -22.5188   32.8121   -6.3069 H         1 4QS1215     0.0000 
     80 H         -20.1502   34.8416   -9.4696 H         1 4QS1215     0.0000 
     81 H         -19.9368   33.7287   -8.3285 H         1 4QS1215     0.0000 
     82 H         -21.4183   34.0666   -8.8552 H         1 4QS1215     0.0000 
     83 H         -21.5719   36.5594  -10.0672 H         1 4QS1215     0.0000 
@<TRIPOS>BOND
     1    2    1 1    
     2   59    1 1    
     3   60    1 1    
     4   61    1 1    
     5    3    2 1    
     6    4    3 1    
     7   41    3 1    
     8   42    3 1    
     9    5    4 2    
    10   43    4 1    
    11    6    5 1    
    12   44    5 1    
    13    7    6 2    
    14   45    6 1    
    15    8    7 1    
    16    9    7 1    
    17   62    8 1    
    18   63    8 1    
    19   64    8 1    
    20   10    9 2    
    21   11    9 am   
    22   12   11 1    
    23   46   11 1    
    24   13   12 1    
    25   15   12 2    
    26   14   13 2    
    27   22   13 1    
    28   16   15 1    
    29   17   15 1    
    30   65   16 1    
    31   66   16 1    
    32   67   16 1    
    33   18   17 2    
    34   19   17 1    
    35   20   19 1    
    36   22   19 2    
    37   21   20 1    
    38   68   21 1    
    39   69   21 1    
    40   70   21 1    
    41   23   22 1    
    42   24   23 1    
    43   47   23 1    
    44   48   23 1    
    45   25   24 1    
    46   26   24 1    
    47   49   24 1    
    48   71   25 1    
    49   72   25 1    
    50   73   25 1    
    51   27   26 1    
    52   50   26 1    
    53   51   26 1    
    54   28   27 1    
    55   30   27 1    
    56   52   27 1    
    57   29   28 1    
    58   74   29 1    
    59   75   29 1    
    60   76   29 1    
    61   31   30 1    
    62   34   30 1    
    63   53   30 1    
    64   83   31 1    
    65   40   32 1    
    66   77   32 1    
    67   78   32 1    
    68   79   32 1    
    69   34   33 1    
    70   40   33 2    
    71   54   33 1    
    72   35   34 1    
    73   55   34 1    
    74   80   35 1    
    75   81   35 1    
    76   82   35 1    
    77   37   36 1    
    78   41   36 1    
    79   38   37 2    
    80   39   37 am   
    81   56   39 1    
    82   57   39 1    
    83   41   40 1    
    84   58   41 1    
@<TRIPOS>SUBSTRUCTURE
     1 4QS1215     1 GROUP   
@<TRIPOS>SET

