#    Name: 3zy3_GDP_2_INTS_M
#    Modification time : Tue Mar 25 04:40:10 2014

@<TRIPOS>MOLECULE
3zy3_GDP_2_INTS_M
   54     0    12     0     0
SMALL
NO_CHARGES


@<TRIPOS>ATOM
      1 NZ        -13.5300   60.2675  -19.6220 N.4       3 LYC4        0.0000 
      2 NZ        -13.4300   58.9840  -18.9660 N.4      11 LYL4        0.0000 
      3 NZ        -12.5750   62.3630  -20.2430 N.4       7 LYP4        0.0000 
      4 N         -13.5300   60.2675  -19.6220 N.am      2 SEC2        0.0000 
      5 N         -13.4300   58.9840  -18.9660 N.am     10 SEL2        0.0000 
      6 N         -13.6300   61.5510  -20.2780 N.am      6 SEP2        0.0000 
      7 NZ        -11.3425   60.8560  -18.9205 N.4       3 LYC4        0.0000 
      8 NZ        -11.2730   59.7660  -18.1120 N.4      11 LYL4        0.0000 
      9 N         -11.3425   60.8560  -18.9205 N.am      2 SEC2        0.0000 
     10 N         -11.2730   59.7660  -18.1120 N.am     10 SEL2        0.0000 
     11 N         -11.4120   61.9460  -19.7290 N.am      6 SEP2        0.0000 
     12 N         -10.1540   59.7340  -17.4090 N.am      2 SEC2        0.0000 
     13 N          -9.0350   59.7020  -16.7060 N.am      6 SEP2        0.0000 
     14 N         -11.3515   57.4825  -16.1800 N.am      2 SEC2        0.0000 
     15 N         -12.3630   57.8310  -17.0360 N.am     10 SEL2        0.0000 
     16 N         -10.3400   57.1340  -15.3240 N.am      6 SEP2        0.0000 
     17 N         -11.8920   56.4450  -17.1360 N.am      2 SEC2        0.0000 
     18 N         -11.4210   55.0590  -17.2360 N.am      6 SEP2        0.0000 
     19 N         -12.5165   54.2825  -19.9490 N.am      2 SEC2        0.0000 
     20 N         -12.7990   55.7520  -20.3720 N.am     10 SEL2        0.0000 
     21 N         -12.2340   52.8130  -19.5260 N.am      6 SEP2        0.0000 
     22 N         -10.2815   54.8845  -21.2160 N.am      2 SEC2        0.0000 
     23 N         -10.5450   56.1990  -21.3100 N.am     10 SEL2        0.0000 
     24 N         -10.0180   53.5700  -21.1220 N.am      6 SEP2        0.0000 
     25 CA         -8.3555   57.6015  -22.5185 C.3       4 GLC5        0.0000 
     26 CA         -9.8130   58.0510  -23.5870 C.3      12 GLL5        0.0000 
     27 CA         -6.8980   57.1520  -21.4500 C.3       8 GLP5        0.0000 
     28 N         -10.6470   55.1750  -23.7595 N.am      2 SEC2        0.0000 
     29 N         -10.0530   56.6480  -23.7310 N.am     10 SEL2        0.0000 
     30 N         -11.2410   53.7020  -23.7880 N.am      6 SEP2        0.0000 
     31 CA         -7.6375   57.9240  -23.7060 C.3       4 GLC5        0.0000 
     32 CA         -9.2360   58.6500  -24.8440 C.3      12 GLL5        0.0000 
     33 CA         -6.0390   57.1980  -22.5680 C.3       8 GLP5        0.0000 
     34 CA         -9.2920   62.1170  -24.3565 C.3       4 GLC5        0.0000 
     35 CA         -9.5900   60.1140  -24.6760 C.3      12 GLL5        0.0000 
     36 CA         -8.9940   64.1200  -24.0370 C.3       8 GLP5        0.0000 
     37 N          -6.7575   61.7720  -20.7430 N.am      2 SEC2        0.0000 
     38 N          -7.3360   61.5070  -22.1180 N.am     10 SEL2        0.0000 
     39 N          -6.1790   62.0370  -19.3680 N.am      6 SEP2        0.0000 
     40 CA         -5.7145   62.0055  -21.2130 C.3       4 GLC5        0.0000 
     41 CA         -6.5210   61.4660  -23.1920 C.3      12 GLL5        0.0000 
     42 CA         -4.9080   62.5450  -19.2340 C.3       8 GLP5        0.0000 
     43 O          -3.5195   61.7870  -25.5900 O.2       1 ALC1        0.0000 
     44 O          -4.6890   61.6210  -24.7420 O.2       9 ALL1        0.0000 
     45 O          -2.3500   61.9530  -26.4380 O.2       5 ALP1        0.0000 
     46 O          -3.6380   61.4530  -26.7065 O.2       1 ALC1        0.0000 
     47 O          -4.9260   60.9530  -26.9750 O.2       9 ALL1        0.0000 
     48 CA        -11.9559   57.1049  -23.7270 C.3       4 GLC5        0.0000 
     49 CA        -11.1130   58.8440  -23.4540 C.3      12 GLL5        0.0000 
     50 CA        -13.3290   55.7220  -24.2910 C.3       8 GLP5        0.0000 
     51 CA         -8.4663   56.9507  -24.9222 C.3       4 GLC5        0.0000 
     52 CA         -7.4080   55.5510  -25.6290 C.3       8 GLP5        0.0000 
     53 CA         -7.9525   62.6573  -23.8935 C.3       4 GLC5        0.0000 
     54 CA         -7.3010   60.9230  -24.3080 C.3      12 GLL5        0.0000 
@<TRIPOS>BOND
@<TRIPOS>SUBSTRUCTURE
     1 ALC1       43 GROUP        1 X    ALC  0     ROOT ALC X 1
     2 SEC2        4 GROUP        1 X    SEC  0     **** SEC X 2
     3 LYC4        1 GROUP        1 X    LYC  0     **** LYC X 4
     4 GLC5       25 GROUP        1 X    GLC  0     **** GLC X 6
     5 ALP1       45 GROUP        1 Y    ALP  0     ROOT ALP Y 8
     6 SEP2        6 GROUP        1 Y    SEP  0     **** SEP Y 9
     7 LYP4        3 GROUP        1 Y    LYP  0     **** LYP Y 11
     8 GLP5       27 GROUP        1 Y    GLP  0     **** GLP Y 13
     9 ALL1       44 GROUP        1 Z    ALL  0     ROOT ALL Z 15
    10 SEL2        5 GROUP        1 Z    SEL  0     **** SEL Z 16
    11 LYL4        2 GROUP        1 Z    LYL  0     **** LYL Z 18
    12 GLL5       26 GROUP        1 Z    GLL  0     **** GLL Z 20
@<TRIPOS>SET

