#    Name: 3zy3_GDP_2_ligand
#    Modification time : Tue Mar 25 04:40:10 2014

@<TRIPOS>MOLECULE
3zy3_GDP_2_ligand
   40    42     1     0     0
SMALL
NO_CHARGES


@<TRIPOS>ATOM
      1 PB        -12.1130   58.5580  -18.3380 P.3       1 GDP1381     0.0000 
      2 O1B       -13.4300   58.9840  -18.9660 O.co2     1 GDP1381     0.0000 
      3 O2B       -11.2730   59.7660  -18.1120 O.co2     1 GDP1381     0.0000 
      4 O3B       -12.3630   57.8310  -17.0360 O.co2     1 GDP1381     0.0000 
      5 O3A       -11.2570   57.6090  -19.3380 O.3       1 GDP1381     0.0000 
      6 PA        -11.7660   56.7970  -20.6350 P.3       1 GDP1381     0.0000 
      7 O1A       -12.7990   55.7520  -20.3720 O.co2     1 GDP1381     0.0000 
      8 O2A       -10.5450   56.1990  -21.3100 O.co2     1 GDP1381     0.0000 
      9 O5'       -12.3700   57.8490  -21.7050 O.3       1 GDP1381     0.0000 
     10 C5'       -11.5920   59.0050  -22.0240 C.3       1 GDP1381     0.0000 
     11 C4'       -11.1130   58.8440  -23.4540 C.3       1 GDP1381     0.0000 
     12 O4'       -10.8280   60.1320  -23.9760 O.3       1 GDP1381     0.0000 
     13 C3'        -9.8130   58.0510  -23.5870 C.3       1 GDP1381     0.0000 
     14 O3'       -10.0530   56.6480  -23.7310 O.3       1 GDP1381     0.0000 
     15 C2'        -9.2360   58.6500  -24.8440 C.3       1 GDP1381     0.0000 
     16 O2'        -9.9400   58.1460  -25.9830 O.3       1 GDP1381     0.0000 
     17 C1'        -9.5900   60.1140  -24.6760 C.3       1 GDP1381     0.0000 
     18 N9         -8.5140   60.6910  -23.8330 N.pl3     1 GDP1381     0.0000 
     19 C8         -8.5400   61.0310  -22.5170 C.2       1 GDP1381     0.0000 
     20 N7         -7.3360   61.5070  -22.1180 N.2       1 GDP1381     0.0000 
     21 C5         -6.5210   61.4660  -23.1920 C.2       1 GDP1381     0.0000 
     22 C6         -5.1190   61.8200  -23.4910 C.2       1 GDP1381     0.0000 
     23 O6         -4.3540   62.2710  -22.5990 O.2       1 GDP1381     0.0000 
     24 N1         -4.6890   61.6210  -24.7420 N.am      1 GDP1381     0.0000 
     25 C2         -5.4550   61.1190  -25.7340 C.2       1 GDP1381     0.0000 
     26 N2         -4.9260   60.9530  -26.9750 N.pl3     1 GDP1381     0.0000 
     27 N3         -6.7440   60.7730  -25.5320 N.2       1 GDP1381     0.0000 
     28 C4         -7.3010   60.9230  -24.3080 C.2       1 GDP1381     0.0000 
     29 H         -10.7207   59.0961  -21.3807 H         1 GDP1381     0.0000 
     30 H         -12.1793   59.9174  -21.9618 H         1 GDP1381     0.0000 
     31 H         -11.8702   58.3600  -24.0372 H         1 GDP1381     0.0000 
     32 H          -9.1890   58.3083  -22.7741 H         1 GDP1381     0.0000 
     33 H          -8.2161   58.5347  -24.8659 H         1 GDP1381     0.0000 
     34 H          -9.6285   60.5671  -25.6110 H         1 GDP1381     0.0000 
     35 H          -9.3239   60.9428  -21.9382 H         1 GDP1381     0.0000 
     36 H          -3.6745   61.8741  -24.9764 H         1 GDP1381     0.0000 
     37 H          -3.9698   61.2239  -27.0856 H         1 GDP1381     0.0000 
     38 H          -5.5397   60.5746  -27.6679 H         1 GDP1381     0.0000 
     39 H         -10.6967   56.4194  -23.0006 H         1 GDP1381     0.0000 
     40 H         -10.4705   57.3718  -25.6375 H         1 GDP1381     0.0000 
@<TRIPOS>BOND
     1    2    1 ar   
     2    3    1 ar   
     3    4    1 ar   
     4    5    1 1    
     5    6    5 1    
     6    7    6 ar   
     7    8    6 ar   
     8    9    6 1    
     9   10    9 1    
    10   11   10 1    
    11   29   10 1    
    12   30   10 1    
    13   12   11 1    
    14   13   11 1    
    15   31   11 1    
    16   17   12 1    
    17   14   13 1    
    18   15   13 1    
    19   32   13 1    
    20   39   14 1    
    21   16   15 1    
    22   17   15 1    
    23   33   15 1    
    24   40   16 1    
    25   18   17 1    
    26   34   17 1    
    27   19   18 1    
    28   28   18 1    
    29   20   19 2    
    30   35   19 1    
    31   21   20 1    
    32   22   21 1    
    33   28   21 2    
    34   23   22 2    
    35   24   22 am   
    36   25   24 1    
    37   36   24 1    
    38   26   25 1    
    39   27   25 2    
    40   37   26 1    
    41   38   26 1    
    42   28   27 1    
@<TRIPOS>SUBSTRUCTURE
     1 GDP1381     1 GROUP   
@<TRIPOS>SET

