#    Name: 3vo8_GDP_2_INTS_M
#    Modification time : Tue Mar 25 01:12:13 2014

@<TRIPOS>MOLECULE
3vo8_GDP_2_INTS_M
   44     0     9     0     0
SMALL
NO_CHARGES


@<TRIPOS>ATOM
      1 N         -14.4695   23.1355  -30.9870 N.am      2 SEC2        0.0000 
      2 N         -15.1090   23.7890  -31.8850 N.am      8 SEL2        0.0000 
      3 N         -13.8300   22.4820  -30.0890 N.am      5 SEP2        0.0000 
      4 N         -18.0685   23.0845  -32.7070 N.am      2 SEC2        0.0000 
      5 N         -17.4840   24.1880  -32.4170 N.am      8 SEL2        0.0000 
      6 N         -18.6530   21.9810  -32.9970 N.am      5 SEP2        0.0000 
      7 N         -14.5710   26.6340  -31.3435 N.am      2 SEC2        0.0000 
      8 N         -15.9670   26.1080  -31.7730 N.am      8 SEL2        0.0000 
      9 N         -13.1750   27.1600  -30.9140 N.am      5 SEP2        0.0000 
     10 N         -15.1500   25.6880  -30.4555 N.am      2 SEC2        0.0000 
     11 N         -14.3330   25.2680  -29.1380 N.am      5 SEP2        0.0000 
     12 N         -17.2170   21.8850  -35.2445 N.am      2 SEC2        0.0000 
     13 N         -16.4420   22.7330  -34.7270 N.am      8 SEL2        0.0000 
     14 N         -17.9920   21.0370  -35.7620 N.am      5 SEP2        0.0000 
     15 CA        -13.3240   25.9720  -34.9180 C.3       3 GLC5        0.0000 
     16 CA        -14.2260   25.1250  -36.6480 C.3       9 GLL5        0.0000 
     17 CA        -12.4220   26.8190  -33.1880 C.3       6 GLP5        0.0000 
     18 N         -12.6635   27.2515  -37.8470 N.am      2 SEC2        0.0000 
     19 N         -12.3620   26.2630  -38.9670 N.am      8 SEL2        0.0000 
     20 N         -12.9650   28.2400  -36.7270 N.am      5 SEP2        0.0000 
     21 O         -11.9145   26.3165  -40.4605 O.2       1 ALC1        0.0000 
     22 O         -12.3620   26.2630  -38.9670 O.2       7 ALL1        0.0000 
     23 O         -11.4670   26.3700  -41.9540 O.2       4 ALP1        0.0000 
     24 N         -12.0205   23.0670  -41.4740 N.am      2 SEC2        0.0000 
     25 N         -12.1740   24.3440  -40.6470 N.am      8 SEL2        0.0000 
     26 N         -11.8670   21.7900  -42.3010 N.am      5 SEP2        0.0000 
     27 O         -11.8205   25.3570  -41.3005 O.2       1 ALC1        0.0000 
     28 O         -12.1740   24.3440  -40.6470 O.2       7 ALL1        0.0000 
     29 CA        -13.1760   21.5965  -37.8035 C.3       3 GLC5        0.0000 
     30 CA        -13.7670   23.0380  -39.4150 C.3       9 GLL5        0.0000 
     31 CA        -12.5850   20.1550  -36.1920 C.3       6 GLP5        0.0000 
     32 N         -19.7675   18.7465  -41.4660 N.am      2 SEC2        0.0000 
     33 N         -18.5970   19.7190  -40.9440 N.am      8 SEL2        0.0000 
     34 N         -20.9380   17.7740  -41.9880 N.am      5 SEP2        0.0000 
     35 N         -18.8385   18.1690  -41.1100 N.am      2 SEC2        0.0000 
     36 N         -19.0800   16.6190  -41.2760 N.am      5 SEP2        0.0000 
     37 O         -13.2020   19.4170  -43.1460 O.2       1 ALC1        0.0000 
     38 O         -14.4340   18.9220  -42.7590 O.2       7 ALL1        0.0000 
     39 O         -11.9700   19.9120  -43.5330 O.2       4 ALP1        0.0000 
     40 N         -13.2735   21.2265  -41.7635 N.am      2 SEC2        0.0000 
     41 N         -14.6800   20.6630  -41.2260 N.am      8 SEL2        0.0000 
     42 CA        -16.8600   20.6805  -38.5403 C.3       3 GLC5        0.0000 
     43 CA        -16.8470   21.1600  -40.2240 C.3       9 GLL5        0.0000 
     44 CA        -17.5920   20.0660  -36.7760 C.3       6 GLP5        0.0000 
@<TRIPOS>BOND
@<TRIPOS>SUBSTRUCTURE
     1 ALC1       21 GROUP        1 X    ALC  0     ROOT ALC X 1
     2 SEC2        1 GROUP        1 X    SEC  0     **** SEC X 2
     3 GLC5       15 GROUP        1 X    GLC  0     **** GLC X 6
     4 ALP1       23 GROUP        1 Y    ALP  0     ROOT ALP Y 8
     5 SEP2        3 GROUP        1 Y    SEP  0     **** SEP Y 9
     6 GLP5       17 GROUP        1 Y    GLP  0     **** GLP Y 13
     7 ALL1       22 GROUP        1 Z    ALL  0     ROOT ALL Z 15
     8 SEL2        2 GROUP        1 Z    SEL  0     **** SEL Z 16
     9 GLL5       16 GROUP        1 Z    GLL  0     **** GLL Z 20
@<TRIPOS>SET

