#    Name: 3vo8_GDP_2_ligand
#    Modification time : Tue Mar 25 01:12:13 2014

@<TRIPOS>MOLECULE
3vo8_GDP_2_ligand
   40    42     1     0     0
SMALL
NO_CHARGES


@<TRIPOS>ATOM
      1 PB        -16.0940   24.7820  -32.4720 P.3       1 GDP502      0.0000 
      2 O1B       -15.1090   23.7890  -31.8850 O.co2     1 GDP502      0.0000 
      3 O2B       -17.4840   24.1880  -32.4170 O.co2     1 GDP502      0.0000 
      4 O3B       -15.9670   26.1080  -31.7730 O.co2     1 GDP502      0.0000 
      5 O3A       -15.6880   25.0850  -34.0080 O.3       1 GDP502      0.0000 
      6 PA        -16.1780   24.1380  -35.2140 P.3       1 GDP502      0.0000 
      7 O1A       -17.3750   24.7160  -35.9160 O.co2     1 GDP502      0.0000 
      8 O2A       -16.4420   22.7330  -34.7270 O.co2     1 GDP502      0.0000 
      9 O5'       -14.8740   24.0190  -36.0960 O.3       1 GDP502      0.0000 
     10 C5'       -14.2260   25.1250  -36.6480 C.3       1 GDP502      0.0000 
     11 C4'       -13.2720   24.5380  -37.6690 C.3       1 GDP502      0.0000 
     12 O4'       -13.6040   23.1770  -37.9970 O.3       1 GDP502      0.0000 
     13 C3'       -13.4650   25.3660  -38.9170 C.3       1 GDP502      0.0000 
     14 O3'       -12.3620   26.2630  -38.9670 O.3       1 GDP502      0.0000 
     15 C2'       -13.4840   24.3830  -40.0700 C.3       1 GDP502      0.0000 
     16 O2'       -12.1740   24.3440  -40.6470 O.3       1 GDP502      0.0000 
     17 C1'       -13.7670   23.0380  -39.4150 C.3       1 GDP502      0.0000 
     18 N9        -15.1300   22.4740  -39.6000 N.pl3     1 GDP502      0.0000 
     19 C8        -16.2600   22.8430  -38.9540 C.2       1 GDP502      0.0000 
     20 N7        -17.3160   22.0670  -39.3300 N.2       1 GDP502      0.0000 
     21 C5        -16.8470   21.1600  -40.2240 C.2       1 GDP502      0.0000 
     22 C6        -17.3880   20.0260  -41.0160 C.2       1 GDP502      0.0000 
     23 O6        -18.5970   19.7190  -40.9440 O.2       1 GDP502      0.0000 
     24 N1        -16.5520   19.3510  -41.8260 N.am      1 GDP502      0.0000 
     25 C2        -15.2380   19.6470  -41.9310 C.2       1 GDP502      0.0000 
     26 N2        -14.4340   18.9220  -42.7590 N.pl3     1 GDP502      0.0000 
     27 N3        -14.6800   20.6630  -41.2260 N.2       1 GDP502      0.0000 
     28 C4        -15.4090   21.4300  -40.3850 C.2       1 GDP502      0.0000 
     29 H         -13.6422   25.6759  -35.9237 H         1 GDP502      0.0000 
     30 H         -14.9001   25.7927  -37.1663 H         1 GDP502      0.0000 
     31 H         -12.2782   24.6530  -37.3361 H         1 GDP502      0.0000 
     32 H         -14.3989   25.8574  -38.8469 H         1 GDP502      0.0000 
     33 H         -14.2395   24.6224  -40.7330 H         1 GDP502      0.0000 
     34 H         -13.0332   22.3140  -39.7749 H         1 GDP502      0.0000 
     35 H         -16.3178   23.5711  -38.3011 H         1 GDP502      0.0000 
     36 H         -16.9389   18.5522  -42.4078 H         1 GDP502      0.0000 
     37 H         -13.4656   19.1714  -42.7615 H         1 GDP502      0.0000 
     38 H         -14.8833   18.2044  -43.2912 H         1 GDP502      0.0000 
     39 H         -11.9877   26.1616  -39.8888 H         1 GDP502      0.0000 
     40 H         -12.2446   24.8839  -41.4857 H         1 GDP502      0.0000 
@<TRIPOS>BOND
     1    2    1 ar   
     2    3    1 ar   
     3    4    1 ar   
     4    5    1 1    
     5    6    5 1    
     6    7    6 ar   
     7    8    6 ar   
     8    9    6 1    
     9   10    9 1    
    10   11   10 1    
    11   29   10 1    
    12   30   10 1    
    13   12   11 1    
    14   13   11 1    
    15   31   11 1    
    16   17   12 1    
    17   14   13 1    
    18   15   13 1    
    19   32   13 1    
    20   39   14 1    
    21   16   15 1    
    22   17   15 1    
    23   33   15 1    
    24   40   16 1    
    25   18   17 1    
    26   34   17 1    
    27   19   18 1    
    28   28   18 1    
    29   20   19 2    
    30   35   19 1    
    31   21   20 1    
    32   22   21 1    
    33   28   21 2    
    34   23   22 2    
    35   24   22 am   
    36   25   24 1    
    37   36   24 1    
    38   26   25 1    
    39   27   25 2    
    40   37   26 1    
    41   38   26 1    
    42   28   27 1    
@<TRIPOS>SUBSTRUCTURE
     1 GDP502      1 GROUP   
@<TRIPOS>SET

