#    Name: 2hkj_RDC_1_INTS_M
#    Modification time : Tue Mar 25 16:39:21 2014

@<TRIPOS>MOLECULE
2hkj_RDC_1_INTS_M
   63     0     9     0     0
SMALL
NO_CHARGES


@<TRIPOS>ATOM
      1 CA         16.1390    1.3415   -8.9355 C.3       3 GLC5        0.0000 
      2 CA         15.8320   -0.0810  -10.3480 C.3       9 GLL5        0.0000 
      3 CA         16.4460    2.7640   -7.5230 C.3       6 GLP5        0.0000 
      4 CA         14.9445    1.7340  -10.8655 C.3       3 GLC5        0.0000 
      5 CA         14.0570    3.5490  -11.3830 C.3       6 GLP5        0.0000 
      6 CA         13.8000   -1.8465  -10.4060 C.3       3 GLC5        0.0000 
      7 CA         14.7940   -0.3280  -11.3700 C.3       9 GLL5        0.0000 
      8 CA         12.8060   -3.3650   -9.4420 C.3       6 GLP5        0.0000 
      9 CA         13.8130    1.2790  -11.0440 C.3       3 GLC5        0.0000 
     10 CA         12.8320    2.8860  -10.7180 C.3       6 GLP5        0.0000 
     11 CA         13.9120   -1.8895  -13.2405 C.3       3 GLC5        0.0000 
     12 CA         15.0700   -0.1820  -12.7090 C.3       9 GLL5        0.0000 
     13 CA         12.7540   -3.5970  -13.7720 C.3       6 GLP5        0.0000 
     14 CA         18.8230    2.3020  -10.9380 C.3       3 GLC5        0.0000 
     15 CA         18.3630    0.5150   -9.7710 C.3       9 GLL5        0.0000 
     16 CA         19.2830    4.0890  -12.1050 C.3       6 GLP5        0.0000 
     17 CA         17.1255   -4.6290  -11.5325 C.3       3 GLC5        0.0000 
     18 CA         17.7610   -4.7550   -9.4710 C.3       9 GLL5        0.0000 
     19 CA         16.4900   -4.5030  -13.5940 C.3       6 GLP5        0.0000 
     20 CA         14.6510   -3.7635   -9.1640 C.3       3 GLC5        0.0000 
     21 CA         16.4960   -4.1620   -8.8860 C.3       9 GLL5        0.0000 
     22 CA         14.6240   -4.3555   -8.1460 C.3       3 GLC5        0.0000 
     23 CA         16.5700   -3.9160   -7.3700 C.3       9 GLL5        0.0000 
     24 CA         12.6780   -4.7950   -8.9220 C.3       6 GLP5        0.0000 
     25 N          13.7870    1.4910   -8.8490 N.am      2 SEC2        0.0000 
     26 N          14.5230    0.2340   -8.3860 N.am      8 SEL2        0.0000 
     27 N          13.0510    2.7480   -9.3120 N.am      5 SEP2        0.0000 
     28 O          12.6675   -0.4965  -11.8720 O.2       1 ALC1        0.0000 
     29 O          13.5420   -0.6130  -10.9570 O.2       7 ALL1        0.0000 
     30 O          11.7930   -0.3800  -12.7870 O.2       4 ALP1        0.0000 
     31 O          11.8610   -0.3185  -11.1280 O.2       1 ALC1        0.0000 
     32 O          10.1800   -0.0240  -11.2990 O.2       4 ALP1        0.0000 
     33 O          15.7395    0.1070  -15.1330 O.2       1 ALC1        0.0000 
     34 O          16.7190    0.2160  -14.4330 O.2       7 ALL1        0.0000 
     35 O          14.7600   -0.0020  -15.8330 O.2       4 ALP1        0.0000 
     36 CA         18.1410   -1.1835  -13.2005 C.3       3 GLC5        0.0000 
     37 CA         19.0410    0.7970  -12.7250 C.3       9 GLL5        0.0000 
     38 CA         17.2410   -3.1640  -13.6760 C.3       6 GLP5        0.0000 
     39 CA         19.5190    2.3605  -12.9950 C.3       3 GLC5        0.0000 
     40 CA         19.9970    3.9240  -13.2650 C.3       6 GLP5        0.0000 
     41 CA         20.7575    0.6785  -13.4025 C.3       3 GLC5        0.0000 
     42 CA         22.4740    0.5600  -14.0800 C.3       6 GLP5        0.0000 
     43 CA         16.0865   -1.7095  -12.8577 C.3       3 GLC5        0.0000 
     44 CA         14.8883    1.7615  -12.1482 C.3       3 GLC5        0.0000 
     45 CA         16.0102    1.8515  -13.7218 C.3       3 GLC5        0.0000 
     46 CA         16.3010    3.7290  -14.5300 C.3       6 GLP5        0.0000 
     47 CA         17.0712   -1.4678  -13.1570 C.3       3 GLC5        0.0000 
     48 CA         16.3690    0.1300  -13.1180 C.3       9 GLL5        0.0000 
     49 CA         17.2692    2.1455  -13.4857 C.3       3 GLC5        0.0000 
     50 CA         17.4340    0.3270  -12.1580 C.3       9 GLL5        0.0000 
     51 CA         17.4220    1.9450   -9.4735 C.3       3 GLC5        0.0000 
     52 CA         17.2150    0.2410  -10.7290 C.3       9 GLL5        0.0000 
     53 CA         17.0550    3.5120   -8.6970 C.3       6 GLP5        0.0000 
     54 CA         17.9563   -3.2085  -11.8242 C.3       3 GLC5        0.0000 
     55 CA         18.6080   -2.5270   -9.9750 C.3       9 GLL5        0.0000 
     56 CA         16.4608   -6.1413   -9.9257 C.3       3 GLC5        0.0000 
     57 CA         15.7930   -7.8240  -10.6730 C.3       6 GLP5        0.0000 
     58 CA         14.2720   -2.7655   -8.1867 C.3       3 GLC5        0.0000 
     59 CA         15.5020   -2.8920   -6.9380 C.3       9 GLL5        0.0000 
     60 CA         14.0485   -2.4690   -5.8217 C.3       3 GLC5        0.0000 
     61 CA         12.3590   -2.7720   -4.7120 C.3       6 GLP5        0.0000 
     62 CA         16.5177    0.7305   -7.0098 C.3       3 GLC5        0.0000 
     63 CA         15.9740   -1.4400   -6.9250 C.3       9 GLL5        0.0000 
@<TRIPOS>BOND
@<TRIPOS>SUBSTRUCTURE
     1 ALC1       28 GROUP        1 X    ALC  0     ROOT ALC X 1
     2 SEC2       25 GROUP        1 X    SEC  0     **** SEC X 2
     3 GLC5        1 GROUP        1 X    GLC  0     **** GLC X 6
     4 ALP1       30 GROUP        1 Y    ALP  0     ROOT ALP Y 8
     5 SEP2       27 GROUP        1 Y    SEP  0     **** SEP Y 9
     6 GLP5        3 GROUP        1 Y    GLP  0     **** GLP Y 13
     7 ALL1       29 GROUP        1 Z    ALL  0     ROOT ALL Z 15
     8 SEL2       26 GROUP        1 Z    SEL  0     **** SEL Z 16
     9 GLL5        2 GROUP        1 Z    GLL  0     **** GLL Z 20
@<TRIPOS>SET

