#    Name: 2hkj_RDC_1_ligand
#    Modification time : Tue Mar 25 16:39:21 2014

@<TRIPOS>MOLECULE
2hkj_RDC_1_ligand
   42    44     1     0     0
SMALL
NO_CHARGES


@<TRIPOS>ATOM
      1 C1         15.4880   -0.2490   -8.9270 C.2       1 RDC501      0.0000 
      2 C2         15.8320   -0.0810  -10.3480 C.ar      1 RDC501      0.0000 
      3 C3         14.7940   -0.3280  -11.3700 C.ar      1 RDC501      0.0000 
      4 C4         15.0700   -0.1820  -12.7090 C.ar      1 RDC501      0.0000 
      5 C5         16.3690    0.1300  -13.1180 C.ar      1 RDC501      0.0000 
      6 C6         17.4340    0.3270  -12.1580 C.ar      1 RDC501      0.0000 
      7 C7         17.2150    0.2410  -10.7290 C.ar      1 RDC501      0.0000 
      8 C8         18.3630    0.5150   -9.7710 C.3       1 RDC501      0.0000 
      9 C9         19.6420   -0.2850  -10.0420 C.2       1 RDC501      0.0000 
     10 C10        19.6960   -1.7600  -10.0750 C.2       1 RDC501      0.0000 
     11 C11        18.6080   -2.5270   -9.9750 C.2       1 RDC501      0.0000 
     12 C12        18.7350   -3.9790   -9.9700 C.2       1 RDC501      0.0000 
     13 C13        17.7610   -4.7550   -9.4710 C.2       1 RDC501      0.0000 
     14 C14        16.4960   -4.1620   -8.8860 C.3       1 RDC501      0.0000 
     15 C15        16.5700   -3.9160   -7.3700 C.3       1 RDC501      0.0000 
     16 C16        15.5020   -2.8920   -6.9380 C.3       1 RDC501      0.0000 
     17 C17        15.9740   -1.4400   -6.9250 C.3       1 RDC501      0.0000 
     18 C18        17.2050   -1.1660   -6.0680 C.3       1 RDC501      0.0000 
     19 O1         16.3870   -1.1020   -8.2440 O.3       1 RDC501      0.0000 
     20 O2         14.5230    0.2340   -8.3860 O.2       1 RDC501      0.0000 
     21 O3         13.5420   -0.6130  -10.9570 O.3       1 RDC501      0.0000 
     22 O4         16.7190    0.2160  -14.4330 O.3       1 RDC501      0.0000 
     23 CL1        19.0410    0.7970  -12.7250 Cl        1 RDC501      0.0000 
     24 O5         20.6870    0.3410  -10.1860 O.2       1 RDC501      0.0000 
     25 O6         15.9010   -5.0450   -7.9380 O.3       1 RDC501      0.0000 
     26 H          14.3311   -0.2998  -13.4136 H         1 RDC501      0.0000 
     27 H          18.0282    0.3040   -8.7362 H         1 RDC501      0.0000 
     28 H          18.6097    1.5946   -9.8021 H         1 RDC501      0.0000 
     29 H          20.6539   -2.1646  -10.1831 H         1 RDC501      0.0000 
     30 H          17.6556   -2.1459   -9.8988 H         1 RDC501      0.0000 
     31 H          19.6062   -4.3671  -10.3675 H         1 RDC501      0.0000 
     32 H          17.8040   -5.7839   -9.4512 H         1 RDC501      0.0000 
     33 H          15.8976   -3.5904   -9.2552 H         1 RDC501      0.0000 
     34 H          17.3656   -4.0754   -7.0560 H         1 RDC501      0.0000 
     35 H          15.1439   -3.1639   -5.9287 H         1 RDC501      0.0000 
     36 H          14.6346   -2.9832   -7.6163 H         1 RDC501      0.0000 
     37 H          15.1801   -0.8002   -6.6095 H         1 RDC501      0.0000 
     38 H          17.9956   -1.6970   -6.3731 H         1 RDC501      0.0000 
     39 H          17.4705   -0.2023   -6.0966 H         1 RDC501      0.0000 
     40 H          17.0485   -1.3985   -5.1081 H         1 RDC501      0.0000 
     41 H          12.9459   -0.0553  -11.5346 H         1 RDC501      0.0000 
     42 H          16.0343   -0.3272  -14.9190 H         1 RDC501      0.0000 
@<TRIPOS>BOND
     1    2    1 1    
     2   19    1 1    
     3   20    1 2    
     4    3    2 ar   
     5    7    2 ar   
     6    4    3 ar   
     7   21    3 1    
     8    5    4 ar   
     9   26    4 1    
    10    6    5 ar   
    11   22    5 1    
    12    7    6 ar   
    13   23    6 1    
    14    8    7 1    
    15    9    8 1    
    16   27    8 1    
    17   28    8 1    
    18   10    9 1    
    19   24    9 2    
    20   11   10 2    
    21   29   10 1    
    22   12   11 1    
    23   30   11 1    
    24   13   12 2    
    25   31   12 1    
    26   14   13 1    
    27   32   13 1    
    28   15   14 1    
    29   25   14 1    
    30   33   14 1    
    31   16   15 1    
    32   25   15 1    
    33   34   15 1    
    34   17   16 1    
    35   35   16 1    
    36   36   16 1    
    37   18   17 1    
    38   19   17 1    
    39   37   17 1    
    40   38   18 1    
    41   39   18 1    
    42   40   18 1    
    43   41   21 1    
    44   42   22 1    
@<TRIPOS>SUBSTRUCTURE
     1 RDC501      1 GROUP   
@<TRIPOS>SET

