#    Name: 4fsm_HK1_1_INTS_M
#    Modification time : Mon Mar 24 20:41:25 2014

@<TRIPOS>MOLECULE
4fsm_HK1_1_INTS_M
   56     0     9     0     0
SMALL
NO_CHARGES


@<TRIPOS>ATOM
      1 CA         12.7590   -6.7685   11.0225 C.3       3 GLC5        0.0000 
      2 CA         12.7800   -5.1220   12.1210 C.3       9 GLL5        0.0000 
      3 CA         12.7380   -8.4150    9.9240 C.3       6 GLP5        0.0000 
      4 CA         11.1395   -2.4010    9.5815 C.3       3 GLC5        0.0000 
      5 CA         12.8640   -2.8450   10.5510 C.3       9 GLL5        0.0000 
      6 CA          9.4150   -1.9570    8.6120 C.3       6 GLP5        0.0000 
      7 CA         16.6450   -4.6085    8.0200 C.3       3 GLC5        0.0000 
      8 CA         16.4660   -3.9240    9.9290 C.3       9 GLL5        0.0000 
      9 CA         16.8240   -5.2930    6.1110 C.3       6 GLP5        0.0000 
     10 CA         17.7400   -4.4760    7.6345 C.3       3 GLC5        0.0000 
     11 CA         18.6560   -3.6590    9.1580 C.3       9 GLL5        0.0000 
     12 N          16.8610   -0.6955    8.1460 N.am      2 SEC2        0.0000 
     13 N          16.6040   -2.0980    8.5640 N.am      8 SEL2        0.0000 
     14 N          17.1180    0.7070    7.7280 N.am      5 SEP2        0.0000 
     15 O          14.4530   -1.2275    8.6290 O.2       1 ALC1        0.0000 
     16 O          15.3420   -2.2500    9.0680 O.2       7 ALL1        0.0000 
     17 O          13.5640   -0.2050    8.1900 O.2       4 ALP1        0.0000 
     18 CA         20.6665   -2.2885    6.1240 C.3       3 GLC5        0.0000 
     19 CA         22.3210   -2.4740    7.3720 C.3       9 GLL5        0.0000 
     20 CA         19.0120   -2.1030    4.8760 C.3       6 GLP5        0.0000 
     21 CA         21.8590   -0.5330    6.9255 C.3       3 GLC5        0.0000 
     22 CA         21.3970    1.4080    6.4790 C.3       6 GLP5        0.0000 
     23 CA         22.3060   -1.9030    9.1415 C.3       3 GLC5        0.0000 
     24 CA         22.2910   -1.3320   10.9110 C.3       6 GLP5        0.0000 
     25 CA         20.4255   -5.0495   12.3035 C.3       3 GLC5        0.0000 
     26 CA         19.8430   -5.4260   10.2800 C.3       9 GLL5        0.0000 
     27 CA         21.0080   -4.6730   14.3270 C.3       6 GLP5        0.0000 
     28 CA         21.6415   -5.7550   12.4760 C.3       3 GLC5        0.0000 
     29 CA         22.2750   -6.8370   10.6250 C.3       9 GLL5        0.0000 
     30 CA         10.0963   -3.8433   10.7375 C.3       3 GLC5        0.0000 
     31 CA         11.6790   -4.2830   12.0650 C.3       9 GLL5        0.0000 
     32 CA          8.4910   -3.9750    9.8040 C.3       6 GLP5        0.0000 
     33 CA         12.4178   -2.7138   13.4020 C.3       3 GLC5        0.0000 
     34 CA         11.7240   -3.1400   11.2770 C.3       9 GLL5        0.0000 
     35 CA         13.1340   -1.7160   15.1330 C.3       6 GLP5        0.0000 
     36 CA         13.8365   -5.6002    9.5715 C.3       3 GLC5        0.0000 
     37 CA         13.9190   -4.8150   11.3970 C.3       9 GLL5        0.0000 
     38 CA         13.7240   -6.9550    8.1440 C.3       6 GLP5        0.0000 
     39 CA         11.8000   -1.2138   11.1780 C.3       3 GLC5        0.0000 
     40 CA         11.3060    0.5650   11.4420 C.3       6 GLP5        0.0000 
     41 CA         14.6658   -2.5516   11.6930 C.3       3 GLC5        0.0000 
     42 CA         15.9250   -1.5580   12.6110 C.3       6 GLP5        0.0000 
     43 CA         14.7853   -5.2890    9.0260 C.3       3 GLC5        0.0000 
     44 CA         15.2270   -3.3220    9.8870 C.3       9 GLL5        0.0000 
     45 CA         13.8676   -3.3841    8.3842 C.3       3 GLC5        0.0000 
     46 CA         13.4110   -3.4770    6.5370 C.3       6 GLP5        0.0000 
     47 CA         15.8858   -2.5905   11.2595 C.3       3 GLC5        0.0000 
     48 CA         17.9485   -3.6955   11.9992 C.3       3 GLC5        0.0000 
     49 CA         18.6580   -4.7540   10.0140 C.3       9 GLL5        0.0000 
     50 CA         17.9350   -2.5020   13.7370 C.3       6 GLP5        0.0000 
     51 CA         19.9938   -5.0825    7.4909 C.3       3 GLC5        0.0000 
     52 CA         19.8380   -3.2350    8.5430 C.3       9 GLL5        0.0000 
     53 CA         19.2600   -5.8680    5.8060 C.3       6 GLP5        0.0000 
     54 CA         21.5093   -2.8145   10.0434 C.3       3 GLC5        0.0000 
     55 CA         18.3528   -6.1813    8.8279 C.3       3 GLC5        0.0000 
     56 CA         17.8030   -7.2050    7.3850 C.3       6 GLP5        0.0000 
@<TRIPOS>BOND
@<TRIPOS>SUBSTRUCTURE
     1 ALC1       15 GROUP        1 X    ALC  0     ROOT ALC X 1
     2 SEC2       12 GROUP        1 X    SEC  0     **** SEC X 2
     3 GLC5        1 GROUP        1 X    GLC  0     **** GLC X 6
     4 ALP1       17 GROUP        1 Y    ALP  0     ROOT ALP Y 8
     5 SEP2       14 GROUP        1 Y    SEP  0     **** SEP Y 9
     6 GLP5        3 GROUP        1 Y    GLP  0     **** GLP Y 13
     7 ALL1       16 GROUP        1 Z    ALL  0     ROOT ALL Z 15
     8 SEL2       13 GROUP        1 Z    SEL  0     **** SEL Z 16
     9 GLL5        2 GROUP        1 Z    GLL  0     **** GLL Z 20
@<TRIPOS>SET

