#    Name: 4fsm_HK1_1_ligand
#    Modification time : Mon Mar 24 20:41:25 2014

@<TRIPOS>MOLECULE
4fsm_HK1_1_ligand
   39    42     1     0     0
SMALL
NO_CHARGES


@<TRIPOS>ATOM
      1 O1         10.5750   -4.5950   12.8170 O.3       1 HK1301      0.0000 
      2 C1         11.6790   -4.2830   12.0650 C.ar      1 HK1301      0.0000 
      3 C6         12.7800   -5.1220   12.1210 C.ar      1 HK1301      0.0000 
      4 C5         13.9190   -4.8150   11.3970 C.ar      1 HK1301      0.0000 
      5 C4         13.9790   -3.6760   10.6010 C.ar      1 HK1301      0.0000 
      6 C3         12.8640   -2.8450   10.5510 C.ar      1 HK1301      0.0000 
      7 C2         11.7240   -3.1400   11.2770 C.ar      1 HK1301      0.0000 
      8 C7         15.2270   -3.3220    9.8870 C.2       1 HK1301      0.0000 
      9 C9         16.4660   -3.9240    9.9290 C.2       1 HK1301      0.0000 
     10 C10        17.2660   -5.0240   10.5090 C.3       1 HK1301      0.0000 
     11 C11        18.6580   -4.7540   10.0140 C.ar      1 HK1301      0.0000 
     12 C18        18.6560   -3.6590    9.1580 C.ar      1 HK1301      0.0000 
     13 C8         17.3110   -3.1070    9.0830 C.2       1 HK1301      0.0000 
     14 N2         16.6040   -2.0980    8.5640 N.2       1 HK1301      0.0000 
     15 N1         15.3420   -2.2500    9.0680 N.pl3     1 HK1301      0.0000 
     16 C17        19.8380   -3.2350    8.5430 C.ar      1 HK1301      0.0000 
     17 C15        21.0240   -3.9110    8.8020 C.ar      1 HK1301      0.0000 
     18 O3         22.2400   -3.6000    8.2540 O.3       1 HK1301      0.0000 
     19 C16        22.3210   -2.4740    7.3720 C.3       1 HK1301      0.0000 
     20 C13        21.0240   -5.0210    9.6790 C.ar      1 HK1301      0.0000 
     21 C12        19.8430   -5.4260   10.2800 C.ar      1 HK1301      0.0000 
     22 O2         22.2300   -5.6500    9.8290 O.3       1 HK1301      0.0000 
     23 C14        22.2750   -6.8370   10.6250 C.3       1 HK1301      0.0000 
     24 H          12.7505   -5.9725   12.7005 H         1 HK1301      0.0000 
     25 H          14.7429   -5.4428   11.4469 H         1 HK1301      0.0000 
     26 H          12.8915   -1.9942    9.9607 H         1 HK1301      0.0000 
     27 H          10.9076   -2.5139   11.2349 H         1 HK1301      0.0000 
     28 H          16.9297   -5.9696   10.1413 H         1 HK1301      0.0000 
     29 H          17.2484   -4.9809   11.5769 H         1 HK1301      0.0000 
     30 H          14.5950   -1.6362    8.8521 H         1 HK1301      0.0000 
     31 H          19.8256   -2.4326    7.9077 H         1 HK1301      0.0000 
     32 H          19.8434   -6.2288   10.9268 H         1 HK1301      0.0000 
     33 H          23.2507   -2.3359    7.0304 H         1 HK1301      0.0000 
     34 H          21.7288   -2.5841    6.5738 H         1 HK1301      0.0000 
     35 H          22.0465   -1.6262    7.8258 H         1 HK1301      0.0000 
     36 H          23.1979   -7.2195   10.6695 H         1 HK1301      0.0000 
     37 H          21.9835   -6.6645   11.5659 H         1 HK1301      0.0000 
     38 H          21.6787   -7.5519   10.2598 H         1 HK1301      0.0000 
     39 H          10.2764   -3.7258   13.2111 H         1 HK1301      0.0000 
@<TRIPOS>BOND
     1    2    1 1    
     2   39    1 1    
     3    3    2 ar   
     4    7    2 ar   
     5    4    3 ar   
     6   24    3 1    
     7    5    4 ar   
     8   25    4 1    
     9    6    5 ar   
    10    8    5 1    
    11    7    6 ar   
    12   26    6 1    
    13   27    7 1    
    14    9    8 2    
    15   15    8 1    
    16   10    9 1    
    17   13    9 1    
    18   11   10 1    
    19   28   10 1    
    20   29   10 1    
    21   12   11 ar   
    22   21   11 ar   
    23   13   12 1    
    24   16   12 ar   
    25   14   13 2    
    26   15   14 1    
    27   30   15 1    
    28   17   16 ar   
    29   31   16 1    
    30   18   17 1    
    31   20   17 ar   
    32   19   18 1    
    33   33   19 1    
    34   34   19 1    
    35   35   19 1    
    36   21   20 ar   
    37   22   20 1    
    38   32   21 1    
    39   23   22 1    
    40   36   23 1    
    41   37   23 1    
    42   38   23 1    
@<TRIPOS>SUBSTRUCTURE
     1 HK1301      1 GROUP   
@<TRIPOS>SET

