#    Name: 2jnp_NGH_1_INTS_M
#    Modification time : Tue Mar 25 21:13:54 2014

@<TRIPOS>MOLECULE
2jnp_NGH_1_INTS_M
   38     0    12     0     0
SMALL
NO_CHARGES


@<TRIPOS>ATOM
      1 CA          7.3625    2.5800   -1.9185 C.3       4 GLC5        0.0000 
      2 CA          7.1380    1.3270   -0.8150 C.3      12 GLL5        0.0000 
      3 CA          7.5870    3.8330   -3.0220 C.3       8 GLP5        0.0000 
      4 CA          5.5350    0.4060   -0.7295 C.3       4 GLC5        0.0000 
      5 CA          3.9320   -0.5150   -0.6440 C.3       8 GLP5        0.0000 
      6 N           3.3905    3.4710    6.5995 N.am      2 SEC2        0.0000 
      7 N           3.2770    2.2920    5.7390 N.am     10 SEL2        0.0000 
      8 N           3.5040    4.6500    7.4600 N.am      6 SEP2        0.0000 
      9 N           2.2595    3.2615    5.6615 N.am      2 SEC2        0.0000 
     10 N           1.2420    4.2310    5.5840 N.am      6 SEP2        0.0000 
     11 N           4.5755    3.4945    6.9085 N.am      2 SEC2        0.0000 
     12 N           5.6470    2.3390    6.3570 N.am     10 SEL2        0.0000 
     13 Zn          3.7670   -1.4030    4.6510 Zn        3 ZIC7        0.0000 
     14 Zn          4.5010    0.1580    6.0890 Zn       11 ZIL7        0.0000 
     15 Zn          3.0330   -2.9640    3.2130 Zn        7 ZIP7        0.0000 
     16 CA          2.9165    0.9890    8.2030 C.3       4 GLC5        0.0000 
     17 CA          3.2130   -0.4450    6.5250 C.3      12 GLL5        0.0000 
     18 CA          2.6200    2.4230    9.8810 C.3       8 GLP5        0.0000 
     19 O           1.3465    0.3830    4.6275 O.2       1 ALC1        0.0000 
     20 O           1.8000   -0.9330    4.6050 O.2       9 ALL1        0.0000 
     21 O           0.8930    1.6990    4.6500 O.2       5 ALP1        0.0000 
     22 Zn          2.0845   -2.3145    3.5075 Zn        3 ZIC7        0.0000 
     23 Zn          1.1360   -1.6650    3.8020 Zn       11 ZIL7        0.0000 
     24 Zn          2.9545   -2.7960    4.4065 Zn        3 ZIC7        0.0000 
     25 Zn          2.8760   -2.6280    5.6000 Zn       11 ZIL7        0.0000 
     26 CA          8.5195   -2.2795    5.9415 C.3       4 GLC5        0.0000 
     27 CA          7.6800   -1.3390    7.7520 C.3      12 GLL5        0.0000 
     28 CA          9.3590   -3.2200    4.1310 C.3       8 GLP5        0.0000 
     29 CA          4.7725    1.3220    9.6770 C.3       4 GLC5        0.0000 
     30 CA          5.6380   -0.3710    8.8790 C.3      12 GLL5        0.0000 
     31 CA          3.9070    3.0150   10.4750 C.3       8 GLP5        0.0000 
     32 CA          5.0405    0.5965    0.4602 C.3       4 GLC5        0.0000 
     33 CA          6.6380    1.5560    2.0360 C.3      12 GLL5        0.0000 
     34 CA          3.3602    3.7443    1.6180 C.3       4 GLC5        0.0000 
     35 CA          4.3500    2.0650    1.5100 C.3      12 GLL5        0.0000 
     36 CA          2.5390    5.4640    1.0500 C.3       8 GLP5        0.0000 
     37 CA          3.7097    0.6157    1.3455 C.3       4 GLC5        0.0000 
     38 CA          3.2380   -0.7930    0.5050 C.3       8 GLP5        0.0000 
@<TRIPOS>BOND
@<TRIPOS>SUBSTRUCTURE
     1 ALC1       19 GROUP        1 X    ALC  0     ROOT ALC X 1
     2 SEC2        6 GROUP        1 X    SEC  0     **** SEC X 2
     3 ZIC7       13 GROUP        1 X    ZIC  0     **** ZIC X 5
     4 GLC5        1 GROUP        1 X    GLC  0     **** GLC X 6
     5 ALP1       21 GROUP        1 Y    ALP  0     ROOT ALP Y 8
     6 SEP2        8 GROUP        1 Y    SEP  0     **** SEP Y 9
     7 ZIP7       15 GROUP        1 Y    ZIP  0     **** ZIP Y 12
     8 GLP5        3 GROUP        1 Y    GLP  0     **** GLP Y 13
     9 ALL1       20 GROUP        1 Z    ALL  0     ROOT ALL Z 15
    10 SEL2        7 GROUP        1 Z    SEL  0     **** SEL Z 16
    11 ZIL7       14 GROUP        1 Z    ZIL  0     **** ZIL Z 19
    12 GLL5        2 GROUP        1 Z    GLL  0     **** GLL Z 20
@<TRIPOS>SET

