#    Name: 2jnp_NGH_1_ligand
#    Modification time : Tue Mar 25 21:13:54 2014

@<TRIPOS>MOLECULE
2jnp_NGH_1_ligand
   40    40     1     0     0
SMALL
NO_CHARGES


@<TRIPOS>ATOM
      1 C1          6.3150    1.5170    3.3910 C.ar      1 NGH253      0.0000 
      2 C2          6.6380    1.5560    2.0360 C.ar      1 NGH253      0.0000 
      3 C3          5.6600    1.8600    1.0930 C.ar      1 NGH253      0.0000 
      4 C4          4.3500    2.0650    1.5100 C.ar      1 NGH253      0.0000 
      5 C5          4.0130    1.9840    2.8620 C.ar      1 NGH253      0.0000 
      6 C6          5.0000    1.7170    3.8110 C.ar      1 NGH253      0.0000 
      7 O1          5.9480    1.9420   -0.2510 O.3       1 NGH253      0.0000 
      8 C7          7.1380    1.3270   -0.8150 C.3       1 NGH253      0.0000 
      9 S1          4.6030    1.7130    5.5610 S.o2      1 NGH253      0.0000 
     10 O2          3.2770    2.2920    5.7390 O.2       1 NGH253      0.0000 
     11 O3          5.6470    2.3390    6.3570 O.2       1 NGH253      0.0000 
     12 N           4.5010    0.1580    6.0890 N.pl3     1 NGH253      0.0000 
     13 C9          5.7190   -0.6690    6.3130 C.3       1 NGH253      0.0000 
     14 C10         3.2130   -0.4450    6.5250 C.3       1 NGH253      0.0000 
     15 C11         2.6170   -1.4380    5.5520 C.2       1 NGH253      0.0000 
     16 N1          1.8000   -0.9330    4.6050 N.am      1 NGH253      0.0000 
     17 O4          1.1360   -1.6650    3.8020 O.3       1 NGH253      0.0000 
     18 O5          2.8760   -2.6280    5.6000 O.2       1 NGH253      0.0000 
     19 C12         6.5150   -0.3390    7.6070 C.3       1 NGH253      0.0000 
     20 C13         7.6800   -1.3390    7.7520 C.3       1 NGH253      0.0000 
     21 C14         5.6380   -0.3710    8.8790 C.3       1 NGH253      0.0000 
     22 H           7.0526    1.3391    4.0883 H         1 NGH253      0.0000 
     23 H           7.6008    1.3598    1.7326 H         1 NGH253      0.0000 
     24 H           3.6176    2.2793    0.8152 H         1 NGH253      0.0000 
     25 H           3.0397    2.1208    3.1575 H         1 NGH253      0.0000 
     26 H           6.4155   -0.5615    5.4559 H         1 NGH253      0.0000 
     27 H           5.4476   -1.7441    6.3529 H         1 NGH253      0.0000 
     28 H           2.4688    0.3608    6.7074 H         1 NGH253      0.0000 
     29 H           3.3531   -0.9515    7.5049 H         1 NGH253      0.0000 
     30 H           1.7282    0.1380    4.5517 H         1 NGH253      0.0000 
     31 H           6.9399    0.6505    7.5016 H         1 NGH253      0.0000 
     32 H           7.9742    1.6920   -0.4057 H         1 NGH253      0.0000 
     33 H           7.1487    0.3375   -0.6706 H         1 NGH253      0.0000 
     34 H           7.2033    1.4800   -1.8011 H         1 NGH253      0.0000 
     35 H           8.3091   -1.2914    6.9761 H         1 NGH253      0.0000 
     36 H           8.2181   -1.1652    8.5767 H         1 NGH253      0.0000 
     37 H           7.3545   -2.2829    7.8079 H         1 NGH253      0.0000 
     38 H           6.1662   -0.1536    9.6998 H         1 NGH253      0.0000 
     39 H           4.8881    0.2887    8.8297 H         1 NGH253      0.0000 
     40 H           5.2275   -1.2712    9.0245 H         1 NGH253      0.0000 
@<TRIPOS>BOND
     1    2    1 ar   
     2    6    1 ar   
     3   22    1 1    
     4    3    2 ar   
     5   23    2 1    
     6    4    3 ar   
     7    7    3 1    
     8    5    4 ar   
     9   24    4 1    
    10    6    5 ar   
    11   25    5 1    
    12    9    6 1    
    13    8    7 1    
    14   32    8 1    
    15   33    8 1    
    16   34    8 1    
    17   10    9 2    
    18   11    9 2    
    19   12    9 1    
    20   13   12 1    
    21   14   12 1    
    22   19   13 1    
    23   26   13 1    
    24   27   13 1    
    25   15   14 1    
    26   28   14 1    
    27   29   14 1    
    28   16   15 am   
    29   18   15 2    
    30   17   16 1    
    31   30   16 1    
    32   20   19 1    
    33   21   19 1    
    34   31   19 1    
    35   35   20 1    
    36   36   20 1    
    37   37   20 1    
    38   38   21 1    
    39   39   21 1    
    40   40   21 1    
@<TRIPOS>SUBSTRUCTURE
     1 NGH253      1 GROUP   
@<TRIPOS>SET

