#    Name: 2iw9_4SP_2_INTS_M
#    Modification time : Tue Mar 25 18:49:26 2014

@<TRIPOS>MOLECULE
2iw9_4SP_2_INTS_M
   59     0     9     0     0
SMALL
NO_CHARGES


@<TRIPOS>ATOM
      1 CA         31.3560   85.0775   44.5875 C.3       3 GLC5        0.0000 
      2 CA         33.1280   84.7070   45.4120 C.3       9 GLL5        0.0000 
      3 CA         29.5840   85.4480   43.7630 C.3       6 GLP5        0.0000 
      4 CA         31.5190   83.2080   45.5955 C.3       3 GLC5        0.0000 
      5 CA         29.9100   81.7090   45.7790 C.3       6 GLP5        0.0000 
      6 CA         34.8960   83.9930   45.5975 C.3       3 GLC5        0.0000 
      7 CA         36.6640   83.2790   45.7830 C.3       6 GLP5        0.0000 
      8 CA         32.0200   82.8445   41.6705 C.3       3 GLC5        0.0000 
      9 CA         33.6690   83.6180   41.3580 C.3       9 GLL5        0.0000 
     10 CA         30.3710   82.0710   41.9830 C.3       6 GLP5        0.0000 
     11 CA         37.5800   81.0935   39.6005 C.3       3 GLC5        0.0000 
     12 CA         36.7150   82.8800   39.1660 C.3       9 GLL5        0.0000 
     13 CA         38.4450   79.3070   40.0350 C.3       6 GLP5        0.0000 
     14 CA         33.7135   83.7175   36.3615 C.3       3 GLC5        0.0000 
     15 CA         35.1250   84.3750   37.8570 C.3       9 GLL5        0.0000 
     16 CA         32.3020   83.0600   34.8660 C.3       6 GLP5        0.0000 
     17 CA         36.4170   88.4700   43.1845 C.3       3 GLC5        0.0000 
     18 CA         34.3480   88.3580   43.3010 C.3       9 GLL5        0.0000 
     19 CA         38.4860   88.5820   43.0680 C.3       6 GLP5        0.0000 
     20 CA         35.8685   86.2350   44.3430 C.3       3 GLC5        0.0000 
     21 CA         34.1090   87.1770   44.0240 C.3       9 GLL5        0.0000 
     22 CA         37.6280   85.2930   44.6620 C.3       6 GLP5        0.0000 
     23 O          35.7360   90.4010   41.6400 O.2       1 ALC1        0.0000 
     24 O          34.3300   90.5630   41.2860 O.2       7 ALL1        0.0000 
     25 O          37.1420   90.2390   41.9940 O.2       4 ALP1        0.0000 
     26 O          32.7780   81.0940   47.9980 O.2       1 ALC1        0.0000 
     27 O          33.2870   81.3180   46.7890 O.2       7 ALL1        0.0000 
     28 O          32.2690   80.8700   49.2070 O.2       4 ALP1        0.0000 
     29 N          33.0380   84.1795   47.9655 N.am      2 SEC2        0.0000 
     30 N          33.0420   83.7210   46.3540 N.am      8 SEL2        0.0000 
     31 N          33.0340   84.6380   49.5770 N.am      5 SEP2        0.0000 
     32 O          32.9555   86.4990   47.0265 O.2       1 ALC1        0.0000 
     33 O          32.8490   86.0000   45.7470 O.2       7 ALL1        0.0000 
     34 O          33.0620   86.9980   48.3060 O.2       4 ALP1        0.0000 
     35 N          36.2000   90.6415   44.2150 N.am      2 SEC2        0.0000 
     36 N          35.0120   91.6010   43.4230 N.am      8 SEL2        0.0000 
     37 N          37.3880   89.6820   45.0070 N.am      5 SEP2        0.0000 
     38 CA         32.9480   85.1335   37.7915 C.3       3 GLC5        0.0000 
     39 CA         31.2480   85.9240   37.1280 C.3       6 GLP5        0.0000 
     40 CA         35.6851   82.5374   36.9876 C.3       3 GLC5        0.0000 
     41 CA         35.4850   81.1550   35.7060 C.3       6 GLP5        0.0000 
     42 CA         32.8569   85.3706   40.7456 C.3       3 GLC5        0.0000 
     43 CA         34.1710   84.3110   39.0530 C.3       9 GLL5        0.0000 
     44 CA         31.5120   86.6590   41.5150 C.3       6 GLP5        0.0000 
     45 CA         32.3205   88.0812   42.7835 C.3       3 GLC5        0.0000 
     46 CA         33.6160   89.5260   43.5510 C.3       9 GLL5        0.0000 
     47 CA         34.3695   89.7963   45.3395 C.3       3 GLC5        0.0000 
     48 CA         35.6100   90.0890   46.6270 C.3       6 GLP5        0.0000 
     49 CA         32.8702   87.2133   42.5888 C.3       3 GLC5        0.0000 
     50 CA         34.9192   88.9283   45.1448 C.3       3 GLC5        0.0000 
     51 CA         32.0395   82.3347   43.1133 C.3       3 GLC5        0.0000 
     52 CA         33.7510   83.1370   43.7430 C.3       9 GLL5        0.0000 
     53 CA         31.6985   81.9763   45.5793 C.3       3 GLC5        0.0000 
     54 CA         33.6650   82.0600   44.7440 C.3       9 GLL5        0.0000 
     55 CA         35.0862   82.8959   45.4561 C.3       3 GLC5        0.0000 
     56 CA         33.3090   82.4270   46.0150 C.3       9 GLL5        0.0000 
     57 CA         32.1317   87.1873   43.3282 C.3       3 GLC5        0.0000 
     58 CA         33.1130   87.1310   45.0080 C.3       9 GLL5        0.0000 
     59 CA         34.1808   88.9023   45.8843 C.3       3 GLC5        0.0000 
@<TRIPOS>BOND
@<TRIPOS>SUBSTRUCTURE
     1 ALC1       23 GROUP        1 X    ALC  0     ROOT ALC X 1
     2 SEC2       29 GROUP        1 X    SEC  0     **** SEC X 2
     3 GLC5        1 GROUP        1 X    GLC  0     **** GLC X 6
     4 ALP1       25 GROUP        1 Y    ALP  0     ROOT ALP Y 8
     5 SEP2       31 GROUP        1 Y    SEP  0     **** SEP Y 9
     6 GLP5        3 GROUP        1 Y    GLP  0     **** GLP Y 13
     7 ALL1       24 GROUP        1 Z    ALL  0     ROOT ALL Z 15
     8 SEL2       30 GROUP        1 Z    SEL  0     **** SEL Z 16
     9 GLL5        2 GROUP        1 Z    GLL  0     **** GLL Z 20
@<TRIPOS>SET

