#    Name: 2iw9_4SP_2_ligand
#    Modification time : Tue Mar 25 18:49:26 2014

@<TRIPOS>MOLECULE
2iw9_4SP_2_ligand
   50    53     1     0     0
SMALL
NO_CHARGES


@<TRIPOS>ATOM
      1 C2         33.1280   84.7070   45.4120 C.ar      1 4SP1297     0.0000 
      2 C8         33.6280   80.2810   45.9860 C.2       1 4SP1297     0.0000 
      3 C10        33.6690   83.6180   41.3580 C.3       1 4SP1297     0.0000 
      4 C11        34.7960   84.0890   40.4410 C.3       1 4SP1297     0.0000 
      5 C12        36.0000   83.1340   40.4910 C.3       1 4SP1297     0.0000 
      6 C13        36.7150   82.8800   39.1660 C.3       1 4SP1297     0.0000 
      7 C14        36.5760   84.0490   38.1970 C.3       1 4SP1297     0.0000 
      8 C15        35.1250   84.3750   37.8570 C.3       1 4SP1297     0.0000 
      9 C16        34.1710   84.3110   39.0530 C.3       1 4SP1297     0.0000 
     10 C19        32.6420   89.4810   44.5530 C.ar      1 4SP1297     0.0000 
     11 C20        33.6160   89.5260   43.5510 C.ar      1 4SP1297     0.0000 
     12 C21        34.3480   88.3580   43.3010 C.ar      1 4SP1297     0.0000 
     13 C22        34.1090   87.1770   44.0240 C.ar      1 4SP1297     0.0000 
     14 N26        34.3300   90.5630   41.2860 N.pl3     1 4SP1297     0.0000 
     15 N1         33.4700   84.3990   44.1400 N.ar      1 4SP1297     0.0000 
     16 C6         33.7510   83.1370   43.7430 C.ar      1 4SP1297     0.0000 
     17 O6         34.1110   82.8240   42.4640 O.3       1 4SP1297     0.0000 
     18 C5         33.6650   82.0600   44.7440 C.ar      1 4SP1297     0.0000 
     19 N7         33.8790   80.7380   44.7330 N.2       1 4SP1297     0.0000 
     20 N9         33.2870   81.3180   46.7890 N.pl3     1 4SP1297     0.0000 
     21 C4         33.3090   82.4270   46.0150 C.ar      1 4SP1297     0.0000 
     22 N3         33.0420   83.7210   46.3540 N.ar      1 4SP1297     0.0000 
     23 N2         32.8490   86.0000   45.7470 N.pl3     1 4SP1297     0.0000 
     24 C17        33.1130   87.1310   45.0080 C.ar      1 4SP1297     0.0000 
     25 C18        32.3900   88.3000   45.2750 C.ar      1 4SP1297     0.0000 
     26 S23        33.9260   90.8980   42.7180 S.o2      1 4SP1297     0.0000 
     27 O24        35.0120   91.6010   43.4230 O.2       1 4SP1297     0.0000 
     28 O25        32.7560   91.8080   42.7080 O.2       1 4SP1297     0.0000 
     29 H          33.6844   79.3524   46.2637 H         1 4SP1297     0.0000 
     30 H          32.9401   83.0589   40.7281 H         1 4SP1297     0.0000 
     31 H          33.1239   84.5246   41.7068 H         1 4SP1297     0.0000 
     32 H          35.1124   85.0741   40.8180 H         1 4SP1297     0.0000 
     33 H          35.6590   82.1611   40.9066 H         1 4SP1297     0.0000 
     34 H          36.7343   83.5333   41.2238 H         1 4SP1297     0.0000 
     35 H          36.3003   81.9775   38.7026 H         1 4SP1297     0.0000 
     36 H          37.7782   82.6996   39.3617 H         1 4SP1297     0.0000 
     37 H          37.1168   83.8128   37.2698 H         1 4SP1297     0.0000 
     38 H          37.0493   84.9380   38.6370 H         1 4SP1297     0.0000 
     39 H          34.7712   83.6734   37.0826 H         1 4SP1297     0.0000 
     40 H          35.0773   85.3862   37.4185 H         1 4SP1297     0.0000 
     41 H          33.5752   85.2538   39.0835 H         1 4SP1297     0.0000 
     42 H          33.4257   83.5010   38.8705 H         1 4SP1297     0.0000 
     43 H          32.0942   90.3300   44.7705 H         1 4SP1297     0.0000 
     44 H          35.0790   88.3631   42.5704 H         1 4SP1297     0.0000 
     45 H          34.6721   86.3388   43.8273 H         1 4SP1297     0.0000 
     46 H          35.3074   90.4256   41.1252 H         1 4SP1297     0.0000 
     47 H          33.5857   90.5071   40.6205 H         1 4SP1297     0.0000 
     48 H          33.0741   81.2731   47.7156 H         1 4SP1297     0.0000 
     49 H          32.3628   86.1599   46.7060 H         1 4SP1297     0.0000 
     50 H          31.6663   88.2983   46.0063 H         1 4SP1297     0.0000 
@<TRIPOS>BOND
     1   15    1 ar   
     2   22    1 ar   
     3   23    1 1    
     4   19    2 2    
     5   20    2 1    
     6   29    2 1    
     7    4    3 1    
     8   17    3 1    
     9   30    3 1    
    10   31    3 1    
    11    5    4 1    
    12    9    4 1    
    13   32    4 1    
    14    6    5 1    
    15   33    5 1    
    16   34    5 1    
    17    7    6 1    
    18   35    6 1    
    19   36    6 1    
    20    8    7 1    
    21   37    7 1    
    22   38    7 1    
    23    9    8 1    
    24   39    8 1    
    25   40    8 1    
    26   41    9 1    
    27   42    9 1    
    28   11   10 ar   
    29   25   10 ar   
    30   43   10 1    
    31   12   11 ar   
    32   26   11 1    
    33   13   12 ar   
    34   44   12 1    
    35   24   13 ar   
    36   45   13 1    
    37   26   14 1    
    38   46   14 1    
    39   47   14 1    
    40   16   15 ar   
    41   17   16 1    
    42   18   16 ar   
    43   19   18 1    
    44   21   18 ar   
    45   21   20 1    
    46   48   20 1    
    47   22   21 ar   
    48   24   23 1    
    49   49   23 1    
    50   25   24 ar   
    51   50   25 1    
    52   27   26 2    
    53   28   26 2    
@<TRIPOS>SUBSTRUCTURE
     1 4SP1297     1 GROUP   
@<TRIPOS>SET

