#    Name: 2zts_ADP_2_INTS_M
#    Modification time : Tue Mar 25 11:05:02 2014

@<TRIPOS>MOLECULE
2zts_ADP_2_INTS_M
   71     0    15     0     0
SMALL
NO_CHARGES


@<TRIPOS>ATOM
      1 NZ        128.6900   -3.0010   25.7875 N.4       3 LYC4        0.0000 
      2 NZ        128.1630   -3.7040   24.7740 N.4      13 LYL4        0.0000 
      3 NZ        129.2170   -2.2980   26.8010 N.4       8 LYP4        0.0000 
      4 N         129.7550   -4.1320   24.2340 N.am      2 SEC2        0.0000 
      5 N         128.1630   -3.7040   24.7740 N.am     12 SEL2        0.0000 
      6 N         131.3470   -4.5600   23.6940 N.am      7 SEP2        0.0000 
      7 N         127.6465   -5.1740   24.6390 N.am      2 SEC2        0.0000 
      8 N         127.1300   -6.6440   24.5040 N.am      7 SEP2        0.0000 
      9 N         126.7690   -4.1935   25.0425 N.am      2 SEC2        0.0000 
     10 N         125.3750   -4.6830   25.3110 N.am      7 SEP2        0.0000 
     11 N         128.6900   -3.0010   25.7875 N.am      2 SEC2        0.0000 
     12 N         129.2170   -2.2980   26.8010 N.am      7 SEP2        0.0000 
     13 NZ        129.8790   -2.1050   21.8385 N.4       3 LYC4        0.0000 
     14 NZ        129.4680   -2.6910   23.0070 N.4      13 LYL4        0.0000 
     15 NZ        130.2900   -1.5190   20.6700 N.4       8 LYP4        0.0000 
     16 NZ        129.3425   -2.4945   24.9040 N.4       3 LYC4        0.0000 
     17 N         129.8790   -2.1050   21.8385 N.am      2 SEC2        0.0000 
     18 N         129.4680   -2.6910   23.0070 N.am     12 SEL2        0.0000 
     19 N         130.2900   -1.5190   20.6700 N.am      7 SEP2        0.0000 
     20 N         130.4075   -3.6255   23.3505 N.am      2 SEC2        0.0000 
     21 Zn        127.1275   -1.0245   23.0040 Zn        4 ZIC7        0.0000 
     22 Zn        127.1140   -1.9530   23.3490 Zn       14 ZIL7        0.0000 
     23 Zn        127.1410   -0.0960   22.6590 Zn        9 ZIP7        0.0000 
     24 N         125.6140   -2.1665   23.6775 N.am      2 SEC2        0.0000 
     25 N         127.1140   -1.9530   23.3490 N.am     12 SEL2        0.0000 
     26 N         124.1140   -2.3800   24.0060 N.am      7 SEP2        0.0000 
     27 N         123.8370   -4.0370   21.8485 N.am      2 SEC2        0.0000 
     28 N         125.2450   -4.3630   21.5230 N.am     12 SEL2        0.0000 
     29 N         122.4290   -3.7110   22.1740 N.am      7 SEP2        0.0000 
     30 N         124.1535   -4.9380   20.8310 N.am      2 SEC2        0.0000 
     31 N         123.0620   -5.5130   20.1390 N.am      7 SEP2        0.0000 
     32 NZ        128.5865   -2.3705   20.4315 N.4       3 LYC4        0.0000 
     33 NZ        126.8830   -3.2220   20.1930 N.4      13 LYL4        0.0000 
     34 N         127.3815   -5.5175   23.4730 N.am      2 SEC2        0.0000 
     35 N         127.6330   -4.3910   22.4420 N.am     12 SEL2        0.0000 
     36 CA        126.3215   -8.5275   20.2400 C.3       5 GLC5        0.0000 
     37 CA        127.4370   -7.4180   18.9820 C.3      15 GLL5        0.0000 
     38 CA        125.2060   -9.6370   21.4980 C.3      10 GLP5        0.0000 
     39 N         130.8730   -6.8100   17.3540 N.am      2 SEC2        0.0000 
     40 N         129.7450   -7.3430   18.3750 N.am     12 SEL2        0.0000 
     41 N         132.0010   -6.2770   16.3330 N.am      7 SEP2        0.0000 
     42 O         130.2850   -7.9775   19.4125 O.2       1 ALC1        0.0000 
     43 O         129.7450   -7.3430   18.3750 O.2      11 ALL1        0.0000 
     44 O         130.8250   -8.6120   20.4500 O.2       6 ALP1        0.0000 
     45 O         130.2890   -9.8880   17.5760 O.2       1 ALC1        0.0000 
     46 O         129.0730   -9.8130   17.9770 O.2      11 ALL1        0.0000 
     47 O         131.5050   -9.9630   17.1750 O.2       6 ALP1        0.0000 
     48 CA        125.1380   -9.7950   18.3270 C.3       5 GLC5        0.0000 
     49 CA        126.8770   -9.1640   17.5310 C.3      15 GLL5        0.0000 
     50 CA        123.3990  -10.4260   19.1230 C.3      10 GLP5        0.0000 
     51 CA        125.2885   -7.4050   13.3750 C.3       5 GLC5        0.0000 
     52 CA        124.5320   -8.8800   14.8010 C.3      15 GLL5        0.0000 
     53 CA        126.0450   -5.9300   11.9490 C.3      10 GLP5        0.0000 
     54 CA        126.2615   -9.0295   13.3725 C.3       5 GLC5        0.0000 
     55 CA        127.9910   -9.1790   11.9440 C.3      10 GLP5        0.0000 
     56 O         122.5405   -7.6665   12.7480 O.2       1 ALC1        0.0000 
     57 O         122.9650   -8.8340   13.0530 O.2      11 ALL1        0.0000 
     58 O         122.1160   -6.4990   12.4430 O.2       6 ALP1        0.0000 
     59 CA        125.4575  -12.6520   14.1730 C.3       5 GLC5        0.0000 
     60 CA        124.2760  -11.6160   14.9800 C.3      15 GLL5        0.0000 
     61 CA        126.6390  -13.6880   13.3660 C.3      10 GLP5        0.0000 
     62 CA        123.8375  -11.0210   17.0515 C.3       5 GLC5        0.0000 
     63 CA        122.9340  -12.9435   15.9960 C.3       5 GLC5        0.0000 
     64 CA        121.5920  -14.2710   17.0120 C.3      10 GLP5        0.0000 
     65 CA        126.4600  -11.0920   14.6705 C.3       5 GLC5        0.0000 
     66 CA        125.2450   -9.6200   15.7240 C.3      15 GLL5        0.0000 
     67 CA        127.6750  -12.5640   13.6170 C.3      10 GLP5        0.0000 
     68 CA        124.3220  -10.0230   17.4235 C.3       5 GLC5        0.0000 
     69 CA        129.7675   -9.2192   16.7373 C.3       5 GLC5        0.0000 
     70 CA        128.3210   -8.8500   17.3000 C.3      15 GLL5        0.0000 
     71 CA        131.1460  -10.2900   15.8940 C.3      10 GLP5        0.0000 
@<TRIPOS>BOND
@<TRIPOS>SUBSTRUCTURE
     1 ALC1       42 GROUP        1 X    ALC  0     ROOT ALC X 1
     2 SEC2        4 GROUP        1 X    SEC  0     **** SEC X 2
     3 LYC4        1 GROUP        1 X    LYC  0     **** LYC X 4
     4 ZIC7       21 GROUP        1 X    ZIC  0     **** ZIC X 5
     5 GLC5       36 GROUP        1 X    GLC  0     **** GLC X 6
     6 ALP1       44 GROUP        1 Y    ALP  0     ROOT ALP Y 8
     7 SEP2        6 GROUP        1 Y    SEP  0     **** SEP Y 9
     8 LYP4        3 GROUP        1 Y    LYP  0     **** LYP Y 11
     9 ZIP7       23 GROUP        1 Y    ZIP  0     **** ZIP Y 12
    10 GLP5       38 GROUP        1 Y    GLP  0     **** GLP Y 13
    11 ALL1       43 GROUP        1 Z    ALL  0     ROOT ALL Z 15
    12 SEL2        5 GROUP        1 Z    SEL  0     **** SEL Z 16
    13 LYL4        2 GROUP        1 Z    LYL  0     **** LYL Z 18
    14 ZIL7       22 GROUP        1 Z    ZIL  0     **** ZIL Z 19
    15 GLL5       37 GROUP        1 Z    GLL  0     **** GLL Z 20
@<TRIPOS>SET

