#    Name: 2zts_ADP_2_ligand
#    Modification time : Tue Mar 25 11:05:02 2014

@<TRIPOS>MOLECULE
2zts_ADP_2_ligand
   39    41     1     0     0
SMALL
NO_CHARGES


@<TRIPOS>ATOM
      1 PB        128.0650   -3.1630   23.3830 P.3       1 ADP1903     0.0000 
      2 O1B       128.1630   -3.7040   24.7740 O.co2     1 ADP1903     0.0000 
      3 O2B       129.4680   -2.6910   23.0070 O.co2     1 ADP1903     0.0000 
      4 O3B       127.1140   -1.9530   23.3490 O.co2     1 ADP1903     0.0000 
      5 PA        126.6690   -4.3540   21.1730 P.3       1 ADP1903     0.0000 
      6 O1A       125.2450   -4.3630   21.5230 O.co2     1 ADP1903     0.0000 
      7 O2A       126.8830   -3.2220   20.1930 O.co2     1 ADP1903     0.0000 
      8 O3A       127.6330   -4.3910   22.4420 O.3       1 ADP1903     0.0000 
      9 O5'       127.1210   -5.7840   20.6090 O.3       1 ADP1903     0.0000 
     10 C5'       126.8840   -6.0410   19.2690 C.3       1 ADP1903     0.0000 
     11 C4'       127.4370   -7.4180   18.9820 C.3       1 ADP1903     0.0000 
     12 O4'       126.4320   -8.3460   18.6030 O.3       1 ADP1903     0.0000 
     13 C3'       128.4570   -7.4470   17.8610 C.3       1 ADP1903     0.0000 
     14 O3'       129.7450   -7.3430   18.3750 O.3       1 ADP1903     0.0000 
     15 C2'       128.3210   -8.8500   17.3000 C.3       1 ADP1903     0.0000 
     16 O2'       129.0730   -9.8130   17.9770 O.3       1 ADP1903     0.0000 
     17 C1'       126.8770   -9.1640   17.5310 C.3       1 ADP1903     0.0000 
     18 N9        126.0170   -8.7620   16.4020 N.pl3     1 ADP1903     0.0000 
     19 C8        125.7570   -7.5050   15.9300 C.2       1 ADP1903     0.0000 
     20 N7        124.8630   -7.5900   14.9380 N.2       1 ADP1903     0.0000 
     21 C5        124.5320   -8.8800   14.8010 C.ar      1 ADP1903     0.0000 
     22 C6        123.6750   -9.5310   13.9360 C.ar      1 ADP1903     0.0000 
     23 N6        122.9650   -8.8340   13.0530 N.pl3     1 ADP1903     0.0000 
     24 N1        123.5630  -10.9100   14.0340 N.ar      1 ADP1903     0.0000 
     25 C2        124.2760  -11.6160   14.9800 C.ar      1 ADP1903     0.0000 
     26 N3        125.1480  -10.9530   15.8280 N.ar      1 ADP1903     0.0000 
     27 C4        125.2450   -9.6200   15.7240 C.ar      1 ADP1903     0.0000 
     28 H         127.3881   -5.3354   18.6055 H         1 ADP1903     0.0000 
     29 H         125.8209   -6.0512   19.0199 H         1 ADP1903     0.0000 
     30 H         127.9489   -7.7861   19.8830 H         1 ADP1903     0.0000 
     31 H         128.2042   -6.7603   17.1286 H         1 ADP1903     0.0000 
     32 H         128.4847   -8.8192   16.2529 H         1 ADP1903     0.0000 
     33 H         126.7444  -10.1864   17.7547 H         1 ADP1903     0.0000 
     34 H         126.1631   -6.6951   16.2702 H         1 ADP1903     0.0000 
     35 H         122.7122   -7.9058   13.3260 H         1 ADP1903     0.0000 
     36 H         122.7481   -9.3011   12.1958 H         1 ADP1903     0.0000 
     37 H         124.1620  -12.6379   15.0584 H         1 ADP1903     0.0000 
     38 H         129.7546   -7.9459   19.1727 H         1 ADP1903     0.0000 
     39 H         130.0236   -9.5219   17.8690 H         1 ADP1903     0.0000 
@<TRIPOS>BOND
     1    2    1 ar   
     2    3    1 ar   
     3    4    1 ar   
     4    8    1 1    
     5    6    5 ar   
     6    7    5 ar   
     7    8    5 1    
     8    9    5 1    
     9   10    9 1    
    10   11   10 1    
    11   28   10 1    
    12   29   10 1    
    13   12   11 1    
    14   13   11 1    
    15   30   11 1    
    16   17   12 1    
    17   14   13 1    
    18   15   13 1    
    19   31   13 1    
    20   38   14 1    
    21   16   15 1    
    22   17   15 1    
    23   32   15 1    
    24   39   16 1    
    25   18   17 1    
    26   33   17 1    
    27   19   18 1    
    28   27   18 1    
    29   20   19 2    
    30   34   19 1    
    31   21   20 1    
    32   22   21 ar   
    33   27   21 ar   
    34   23   22 1    
    35   24   22 ar   
    36   35   23 1    
    37   36   23 1    
    38   25   24 ar   
    39   26   25 ar   
    40   37   25 1    
    41   27   26 ar   
@<TRIPOS>SUBSTRUCTURE
     1 ADP1903     1 GROUP   
@<TRIPOS>SET

