#    Name: 2ZR9_1_CAVITY_N1_6.mol2
#    Modification time : Tue Mar 11 06:14:43 2014

@<TRIPOS>MOLECULE
2ZR9_1_CAVITY_N1_6.mol2
   60     0     5     0     0
SMALL
NO_CHARGES


@<TRIPOS>ATOM
      1 CZ         30.8709    5.2701  -16.1106 C.ar      3 PHE5        0.0000 
      2 O          29.7398    6.8763  -16.9111 O.2       2 ALA2        0.0000 
      3 DU         28.3189    7.3399  -16.7839 H         5 CUB7        0.0000 
      4 CA         28.6087    8.4825  -17.7115 C.3       4 GLY6        0.0000 
      5 DU         26.8980    7.8035  -16.6567 H         5 CUB7        0.0000 
      6 CZ         27.1878    8.9460  -17.5844 C.ar      3 PHE5        0.0000 
      7 DU         25.1874    7.1245  -15.6019 H         5 CUB7        0.0000 
      8 DU         25.4771    8.2670  -16.5295 H         5 CUB7        0.0000 
      9 CZ         25.7669    9.4096  -17.4572 C.ar      3 PHE5        0.0000 
     10 N          24.3460    9.8732  -17.3300 N.2       2 ALA2        0.0000 
     11 CZ         29.5439    5.4452  -13.8839 C.ar      3 PHE5        0.0000 
     12 CZ         29.8336    6.5878  -14.8116 C.ar      3 PHE5        0.0000 
     13 CZ         30.1234    7.7304  -15.7392 C.ar      3 PHE5        0.0000 
     14 O          30.4131    8.8730  -16.6668 O.2       2 ALA2        0.0000 
     15 DU         28.1230    5.9088  -13.7567 H         5 CUB7        0.0000 
     16 DU         28.4127    7.0514  -14.6844 H         5 CUB7        0.0000 
     17 DU         28.7025    8.1940  -15.6120 H         5 CUB7        0.0000 
     18 O          28.9923    9.3366  -16.5397 O.2       2 ALA2        0.0000 
     19 N          29.2820   10.4792  -17.4673 N.2       2 ALA2        0.0000 
     20 DU         27.2816    8.6576  -15.4848 H         5 CUB7        0.0000 
     21 DU         27.5714    9.8002  -16.4125 H         5 CUB7        0.0000 
     22 CZ         27.8611   10.9428  -17.3401 C.ar      3 PHE5        0.0000 
     23 DU         24.9914    5.6934  -12.5747 H         5 CUB7        0.0000 
     24 DU         25.2812    6.8360  -13.5024 H         5 CUB7        0.0000 
     25 DU         25.5710    7.9786  -14.4300 H         5 CUB7        0.0000 
     26 O          25.8607    9.1212  -15.3577 O.2       2 ALA2        0.0000 
     27 N          26.1505   10.2638  -16.2853 N.2       2 ALA2        0.0000 
     28 OG         23.5706    6.1570  -12.4475 O.2       1 SER1        0.0000 
     29 OG         23.8603    7.2996  -13.3752 O.2       1 SER1        0.0000 
     30 CA         24.1501    8.4422  -14.3028 C.3       4 GLY6        0.0000 
     31 O          24.4398    9.5848  -15.2305 O.2       2 ALA2        0.0000 
     32 OG         28.2168    5.6204  -11.6572 O.2       1 SER1        0.0000 
     33 CZ         28.5065    6.7630  -12.5848 C.ar      3 PHE5        0.0000 
     34 OG         28.7963    7.9056  -13.5125 O.2       1 SER1        0.0000 
     35 OG         29.0861    9.0482  -14.4401 O.2       1 SER1        0.0000 
     36 CA         29.3758   10.1907  -15.3678 C.3       4 GLY6        0.0000 
     37 OG         26.7959    6.0840  -11.5300 O.2       1 SER1        0.0000 
     38 DU         27.0857    7.2266  -12.4577 H         5 CUB7        0.0000 
     39 DU         27.3754    8.3692  -13.3853 H         5 CUB7        0.0000 
     40 CA         27.6652    9.5117  -14.3130 C.3       4 GLY6        0.0000 
     41 CA         27.9549   10.6543  -15.2406 C.3       4 GLY6        0.0000 
     42 CA         28.2447   11.7969  -16.1682 C.3       4 GLY6        0.0000 
     43 CA         25.3750    6.5476  -11.4028 C.3       4 GLY6        0.0000 
     44 CA         25.6648    7.6902  -12.3305 C.3       4 GLY6        0.0000 
     45 DU         25.9545    8.8327  -13.2581 H         5 CUB7        0.0000 
     46 O          26.2443    9.9753  -14.1858 O.2       2 ALA2        0.0000 
     47 O          26.5341   11.1179  -15.1134 O.2       2 ALA2        0.0000 
     48 N          26.8238   12.2605  -16.0411 N.2       2 ALA2        0.0000 
     49 CA         24.5337    9.2963  -13.1309 C.3       4 GLY6        0.0000 
     50 OG         28.8901    7.6171  -11.4130 O.2       1 SER1        0.0000 
     51 OG         27.4692    8.0807  -11.2858 O.2       1 SER1        0.0000 
     52 OG         27.7590    9.2233  -12.2134 O.2       1 SER1        0.0000 
     53 OG         28.0488   10.3659  -13.1411 O.2       1 SER1        0.0000 
     54 O          26.0484    8.5443  -11.1586 O.2       2 ALA2        0.0000 
     55 CA         26.3381    9.6869  -12.0862 C.3       4 GLY6        0.0000 
     56 CA         26.6279   10.8295  -13.0139 C.3       4 GLY6        0.0000 
     57 CA         26.9176   11.9721  -13.9415 C.3       4 GLY6        0.0000 
     58 CA         24.6275    9.0079  -11.0314 C.3       4 GLY6        0.0000 
     59 O          24.9172   10.1505  -11.9591 O.2       2 ALA2        0.0000 
     60 O          25.2070   11.2931  -12.8867 O.2       2 ALA2        0.0000 
@<TRIPOS>BOND
@<TRIPOS>SUBSTRUCTURE
     1 SER1       28 GROUP   
     2 ALA2        2 GROUP   
     3 PHE5        1 GROUP   
     4 GLY6        4 GROUP   
     5 CUB7        3 GROUP   
@<TRIPOS>SET

