#    Name: 2zr9_DTP_1_INTS_M
#    Modification time : Mon Apr  7 18:48:27 2014

@<TRIPOS>MOLECULE
2zr9_DTP_1_INTS_M
   54     0     9     0     0
SMALL
NO_CHARGES


@<TRIPOS>ATOM
      1 N          27.0205    5.6415   -8.5695 N.am      1 SEC2        0.0000 
      2 N          25.5170    4.9990   -9.0670 N.am      7 SEL2        0.0000 
      3 N          28.5240    6.2840   -8.0720 N.am      4 SEP2        0.0000 
      4 NZ         23.8785    7.8890   -6.6130 N.4       2 LYC4        0.0000 
      5 NZ         25.4810    7.2900   -7.4550 N.4       8 LYL4        0.0000 
      6 NZ         22.2760    8.4880   -5.7710 N.4       5 LYP4        0.0000 
      7 N          26.6965    7.9700   -6.9150 N.am      1 SEC2        0.0000 
      8 N          25.4810    7.2900   -7.4550 N.am      7 SEL2        0.0000 
      9 N          27.9120    8.6500   -6.3750 N.am      4 SEP2        0.0000 
     10 N          27.0025    6.7870   -7.7635 N.am      1 SEC2        0.0000 
     11 NZ         23.0080    8.7690   -6.8355 N.4       2 LYC4        0.0000 
     12 NZ         23.7400    9.0500   -7.9000 N.4       8 LYL4        0.0000 
     13 N          23.1495    9.8325   -9.0010 N.am      1 SEC2        0.0000 
     14 N          23.7400    9.0500   -7.9000 N.am      7 SEL2        0.0000 
     15 N          22.5590   10.6150  -10.1020 N.am      4 SEP2        0.0000 
     16 N          24.3835   10.2290   -8.7605 N.am      1 SEC2        0.0000 
     17 N          25.0270   11.4080   -9.6210 N.am      4 SEP2        0.0000 
     18 N          24.9630    9.9645   -7.5990 N.am      1 SEC2        0.0000 
     19 N          26.1860   10.8790   -7.2980 N.am      4 SEP2        0.0000 
     20 N          23.0080    8.7690   -6.8355 N.am      1 SEC2        0.0000 
     21 N          22.2760    8.4880   -5.7710 N.am      4 SEP2        0.0000 
     22 N          22.6555    7.4210   -9.8350 N.am      1 SEC2        0.0000 
     23 N          23.6720    6.8310   -9.2190 N.am      7 SEL2        0.0000 
     24 N          21.6390    8.0110  -10.4510 N.am      4 SEP2        0.0000 
     25 N          29.0465    9.4360  -10.4185 N.am      1 SEC2        0.0000 
     26 N          27.9280    8.9950   -9.9030 N.am      7 SEL2        0.0000 
     27 N          30.1650    9.8770  -10.9340 N.am      4 SEP2        0.0000 
     28 N          29.0110    9.0780   -8.9585 N.am      1 SEC2        0.0000 
     29 N          30.0940    9.1610   -8.0140 N.am      4 SEP2        0.0000 
     30 N          25.2785    9.9760   -9.6380 N.am      1 SEC2        0.0000 
     31 N          25.5300    8.5440   -9.6550 N.am      7 SEL2        0.0000 
     32 CA         24.1190    9.0750  -11.8500 C.3       3 GLC5        0.0000 
     33 CA         26.0520    9.4220  -12.1040 C.3       9 GLL5        0.0000 
     34 CA         22.1860    8.7280  -11.5960 C.3       6 GLP5        0.0000 
     35 CA         28.0135   11.8900  -12.4395 C.3       3 GLC5        0.0000 
     36 CA         27.1860   10.0920  -12.8550 C.3       9 GLL5        0.0000 
     37 CA         28.8410   13.6880  -12.0240 C.3       6 GLP5        0.0000 
     38 N          24.8865   11.8790  -14.7590 N.am      1 SEC2        0.0000 
     39 N          26.2250   11.5250  -14.5140 N.am      7 SEL2        0.0000 
     40 N          23.5480   12.2330  -15.0040 N.am      4 SEP2        0.0000 
     41 CA         29.1690   10.7320  -14.5865 C.3       3 GLC5        0.0000 
     42 CA         28.1830    8.8740  -14.6070 C.3       9 GLL5        0.0000 
     43 CA         30.1550   12.5900  -14.5660 C.3       6 GLP5        0.0000 
     44 CA         32.0025    4.1840  -14.8185 C.3       3 GLC5        0.0000 
     45 CA         30.1750    4.5620  -15.8860 C.3       9 GLL5        0.0000 
     46 CA         33.8300    3.8060  -13.7510 C.3       6 GLP5        0.0000 
     47 CA         31.4630    6.9005  -18.2910 C.3       3 GLC5        0.0000 
     48 CA         30.2570    6.0620  -17.6200 C.3       9 GLL5        0.0000 
     49 CA         32.6690    7.7390  -18.9620 C.3       6 GLP5        0.0000 
     50 N          30.5310    7.7320  -17.9920 N.am      1 SEC2        0.0000 
     51 N          29.6400    6.9910  -16.9120 N.am      7 SEL2        0.0000 
     52 N          31.4220    8.4730  -19.0720 N.am      4 SEP2        0.0000 
     53 CA         26.5335   10.7205  -11.0233 C.3       3 GLC5        0.0000 
     54 CA         26.4480   11.6840   -9.5670 C.3       6 GLP5        0.0000 
@<TRIPOS>BOND
@<TRIPOS>SUBSTRUCTURE
     1 SEC2        1 GROUP        1 X    SEC  0     ROOT SEC X 2
     2 LYC4        4 GROUP        1 X    LYC  0     **** LYC X 4
     3 GLC5       32 GROUP        1 X    GLC  0     **** GLC X 6
     4 SEP2        3 GROUP        1 Y    SEP  0     ROOT SEP Y 9
     5 LYP4        6 GROUP        1 Y    LYP  0     **** LYP Y 11
     6 GLP5       34 GROUP        1 Y    GLP  0     **** GLP Y 13
     7 SEL2        2 GROUP        1 Z    SEL  0     ROOT SEL Z 16
     8 LYL4        5 GROUP        1 Z    LYL  0     **** LYL Z 18
     9 GLL5       33 GROUP        1 Z    GLL  0     **** GLL Z 20
@<TRIPOS>SET

