#    Name: 2zr9_DTP_1_ligand
#    Modification time : Mon Apr  7 18:48:27 2014

@<TRIPOS>MOLECULE
2zr9_DTP_1_ligand
   42    44     1     0     0
SMALL
NO_CHARGES


@<TRIPOS>ATOM
      1 PG         23.9220    5.2410   -9.1430 P.3       1 DTP600      0.0000 
      2 O1G        23.2680    4.6430   -7.9550 O.co2     1 DTP600      0.0000 
      3 O2G        23.4100    4.6570  -10.5600 O.co2     1 DTP600      0.0000 
      4 O3G        25.5170    4.9990   -9.0670 O.co2     1 DTP600      0.0000 
      5 PB         24.6390    7.8820   -8.5010 P.3       1 DTP600      0.0000 
      6 O1B        25.4810    7.2900   -7.4550 O.co2     1 DTP600      0.0000 
      7 O2B        23.7400    9.0500   -7.9000 O.co2     1 DTP600      0.0000 
      8 O3B        23.6720    6.8310   -9.2190 O.3       1 DTP600      0.0000 
      9 PA         26.8940    8.0230  -10.3060 P.3       1 DTP600      0.0000 
     10 O1A        27.9280    8.9950   -9.9030 O.co2     1 DTP600      0.0000 
     11 O2A        27.2850    6.4990   -9.9920 O.co2     1 DTP600      0.0000 
     12 O3A        25.5300    8.5440   -9.6550 O.3       1 DTP600      0.0000 
     13 O5'        26.4470    8.0880  -11.8430 O.3       1 DTP600      0.0000 
     14 C5'        26.0520    9.4220  -12.1040 C.3       1 DTP600      0.0000 
     15 C4'        27.1860   10.0920  -12.8550 C.3       1 DTP600      0.0000 
     16 O4'        28.2040    9.1360  -13.1900 O.3       1 DTP600      0.0000 
     17 C3'        26.2360   10.1740  -14.0470 C.3       1 DTP600      0.0000 
     18 O3'        26.2250   11.5250  -14.5140 O.3       1 DTP600      0.0000 
     19 C2'        26.7250    9.0960  -15.0210 C.3       1 DTP600      0.0000 
     20 C1'        28.1830    8.8740  -14.6070 C.3       1 DTP600      0.0000 
     21 N9         28.6310    7.4610  -14.6950 N.pl3     1 DTP600      0.0000 
     22 C8         28.5220    6.6810  -13.6300 C.2       1 DTP600      0.0000 
     23 N7         29.0670    5.4870  -13.8640 N.2       1 DTP600      0.0000 
     24 C5         29.5250    5.5150  -15.1060 C.ar      1 DTP600      0.0000 
     25 C6         30.1750    4.5620  -15.8860 C.ar      1 DTP600      0.0000 
     26 N6         30.4210    3.3540  -15.3900 N.pl3     1 DTP600      0.0000 
     27 N1         30.5320    4.8600  -17.1380 N.ar      1 DTP600      0.0000 
     28 C2         30.2570    6.0620  -17.6200 C.ar      1 DTP600      0.0000 
     29 N3         29.6400    6.9910  -16.9120 N.ar      1 DTP600      0.0000 
     30 C4         29.2560    6.7630  -15.6520 C.ar      1 DTP600      0.0000 
     31 H          25.8746    9.9847  -11.1882 H         1 DTP600      0.0000 
     32 H          25.1591    9.4719  -12.7261 H         1 DTP600      0.0000 
     33 H          27.3807   10.9674  -12.5122 H         1 DTP600      0.0000 
     34 H          25.2624    9.8638  -13.6693 H         1 DTP600      0.0000 
     35 H          26.6859    9.4650  -16.0120 H         1 DTP600      0.0000 
     36 H          26.1717    8.2056  -14.8764 H         1 DTP600      0.0000 
     37 H          28.8174    9.5205  -15.1149 H         1 DTP600      0.0000 
     38 H          28.0966    6.9432  -12.7779 H         1 DTP600      0.0000 
     39 H          30.9255    2.7284  -15.9850 H         1 DTP600      0.0000 
     40 H          30.0794    3.1796  -14.4665 H         1 DTP600      0.0000 
     41 H          30.5468    6.2890  -18.6238 H         1 DTP600      0.0000 
     42 H          26.1601   12.0839  -13.6874 H         1 DTP600      0.0000 
@<TRIPOS>BOND
     1    2    1 ar   
     2    3    1 ar   
     3    4    1 ar   
     4    8    1 1    
     5    6    5 ar   
     6    7    5 ar   
     7    8    5 1    
     8   12    5 1    
     9   10    9 ar   
    10   11    9 ar   
    11   12    9 1    
    12   13    9 1    
    13   14   13 1    
    14   15   14 1    
    15   31   14 1    
    16   32   14 1    
    17   16   15 1    
    18   17   15 1    
    19   33   15 1    
    20   20   16 1    
    21   18   17 1    
    22   19   17 1    
    23   34   17 1    
    24   42   18 1    
    25   20   19 1    
    26   35   19 1    
    27   36   19 1    
    28   21   20 1    
    29   37   20 1    
    30   22   21 1    
    31   30   21 1    
    32   23   22 2    
    33   38   22 1    
    34   24   23 1    
    35   25   24 ar   
    36   30   24 ar   
    37   26   25 1    
    38   27   25 ar   
    39   39   26 1    
    40   40   26 1    
    41   28   27 ar   
    42   29   28 ar   
    43   41   28 1    
    44   30   29 ar   
@<TRIPOS>SUBSTRUCTURE
     1 DTP600      1 GROUP   
@<TRIPOS>SET

