#    Name: 3fvq_ATP_2_INTS_M
#    Modification time : Tue Mar 25 06:38:43 2014

@<TRIPOS>MOLECULE
3fvq_ATP_2_INTS_M
   75     0    12     0     0
SMALL
NO_CHARGES


@<TRIPOS>ATOM
      1 N         -18.2755  -11.9805   33.6645 N.am      2 SEC2        0.0000 
      2 N         -18.6000  -10.9140   32.7870 N.am     10 SEL2        0.0000 
      3 N         -17.9510  -13.0470   34.5420 N.am      6 SEP2        0.0000 
      4 N         -19.1640  -11.9810   32.0465 N.am      2 SEC2        0.0000 
      5 N         -19.7280  -13.0480   31.3060 N.am      6 SEP2        0.0000 
      6 N         -17.3850  -10.9425   32.3400 N.am      2 SEC2        0.0000 
      7 N         -16.1700  -10.9710   31.8930 N.am      6 SEP2        0.0000 
      8 N         -17.4175  -10.2490   33.8630 N.am      2 SEC2        0.0000 
      9 N         -16.2350   -9.5840   34.9390 N.am      6 SEP2        0.0000 
     10 NZ        -19.3180   -7.2395   33.4840 N.4       3 LYC4        0.0000 
     11 NZ        -19.3450   -8.4880   32.8680 N.4      11 LYL4        0.0000 
     12 NZ        -19.2910   -5.9910   34.1000 N.4       7 LYP4        0.0000 
     13 N         -19.3180   -7.2395   33.4840 N.am      2 SEC2        0.0000 
     14 N         -19.3450   -8.4880   32.8680 N.am     10 SEL2        0.0000 
     15 N         -19.2910   -5.9910   34.1000 N.am      6 SEP2        0.0000 
     16 NZ        -19.2640   -6.8840   35.2680 N.4       3 LYC4        0.0000 
     17 NZ        -19.2370   -7.7770   36.4360 N.4      11 LYL4        0.0000 
     18 N         -18.5630   -7.6135   37.7970 N.am      2 SEC2        0.0000 
     19 N         -19.2370   -7.7770   36.4360 N.am     10 SEL2        0.0000 
     20 N         -17.8890   -7.4500   39.1580 N.am      6 SEP2        0.0000 
     21 N         -19.9015   -7.1795   37.5925 N.am      2 SEC2        0.0000 
     22 N         -20.5660   -6.5820   38.7490 N.am      6 SEP2        0.0000 
     23 N         -19.2640   -6.8840   35.2680 N.am      2 SEC2        0.0000 
     24 N         -22.2335   -8.5170   37.2375 N.am      2 SEC2        0.0000 
     25 N         -21.3500   -9.1190   36.1690 N.am     10 SEL2        0.0000 
     26 N         -23.1170   -7.9150   38.3060 N.am      6 SEP2        0.0000 
     27 N         -17.6970   -9.6810   34.9380 N.am      2 SEC2        0.0000 
     28 N         -19.1590   -9.7780   34.9370 N.am     10 SEL2        0.0000 
     29 N         -21.9360   -9.7630   40.0645 N.am      2 SEC2        0.0000 
     30 N         -20.7160  -10.0880   39.4510 N.am     10 SEL2        0.0000 
     31 N         -23.1560   -9.4380   40.6780 N.am      6 SEP2        0.0000 
     32 N         -20.9505  -10.5805   40.6760 N.am      2 SEC2        0.0000 
     33 N         -21.1850  -11.0730   41.9010 N.am      6 SEP2        0.0000 
     34 CA        -16.9125  -10.6210   38.0740 C.3       4 GLC5        0.0000 
     35 CA        -18.0120  -11.1210   39.9310 C.3      12 GLL5        0.0000 
     36 CA        -15.8130  -10.1210   36.2170 C.3       8 GLP5        0.0000 
     37 CA        -18.4400   -9.3440   40.0950 C.3       4 GLC5        0.0000 
     38 CA        -18.8680   -7.5670   40.2590 C.3       8 GLP5        0.0000 
     39 CA        -16.0635  -11.4635   37.6295 C.3       4 GLC5        0.0000 
     40 CA        -16.3140  -12.8060   39.0420 C.3      12 GLL5        0.0000 
     41 N         -14.6680  -13.1275   37.5425 N.am      2 SEC2        0.0000 
     42 N         -14.8760  -12.7240   38.9720 N.am     10 SEL2        0.0000 
     43 N         -14.4600  -13.5310   36.1130 N.am      6 SEP2        0.0000 
     44 N         -15.2550  -16.3635   39.3665 N.am      2 SEC2        0.0000 
     45 N         -15.8000  -15.2120   38.7240 N.am     10 SEL2        0.0000 
     46 N         -14.7100  -17.5150   40.0090 N.am      6 SEP2        0.0000 
     47 N         -15.1300  -14.3715   37.4185 N.am      2 SEC2        0.0000 
     48 O         -15.9035  -15.1745   37.4730 O.2       1 ALC1        0.0000 
     49 O         -15.8000  -15.2120   38.7240 O.2       9 ALL1        0.0000 
     50 O         -16.0070  -15.1370   36.2220 O.2       5 ALP1        0.0000 
     51 CA        -16.6430  -13.3130   42.5765 C.3       4 GLC5        0.0000 
     52 CA        -16.8690  -14.3670   40.7750 C.3      12 GLL5        0.0000 
     53 CA        -16.4170  -12.2590   44.3780 C.3       8 GLP5        0.0000 
     54 CA        -18.8485  -18.6305   40.9765 C.3       4 GLC5        0.0000 
     55 CA        -18.6150  -17.1970   42.2340 C.3      12 GLL5        0.0000 
     56 CA        -19.0820  -20.0640   39.7190 C.3       8 GLP5        0.0000 
     57 CA        -18.1990  -19.6425   41.7280 C.3       4 GLC5        0.0000 
     58 CA        -18.4330  -18.3970   43.0790 C.3      12 GLL5        0.0000 
     59 CA        -17.9650  -20.8880   40.3770 C.3       8 GLP5        0.0000 
     60 N         -16.7475  -19.4360   44.7390 N.am      2 SEC2        0.0000 
     61 N         -17.1930  -18.6430   43.5570 N.am     10 SEL2        0.0000 
     62 N         -16.3020  -20.2290   45.9210 N.am      6 SEP2        0.0000 
     63 CA        -15.1990  -19.0540   41.9185 C.3       4 GLC5        0.0000 
     64 CA        -16.1430  -17.8480   43.3360 C.3      12 GLL5        0.0000 
     65 CA        -14.2550  -20.2600   40.5010 C.3       8 GLP5        0.0000 
     66 CA        -16.8245  -17.2900   44.9155 C.3       4 GLC5        0.0000 
     67 CA        -17.5060  -16.7320   46.4950 C.3       8 GLP5        0.0000 
     68 CA        -14.8710  -16.4825   43.8315 C.3       4 GLC5        0.0000 
     69 CA        -13.5990  -15.1170   44.3270 C.3       8 GLP5        0.0000 
     70 CA        -17.5510  -10.9730   41.7167 C.3       4 GLC5        0.0000 
     71 CA        -16.8240  -12.0710   40.2900 C.3      12 GLL5        0.0000 
     72 CA        -17.6840  -10.3500   43.3230 C.3       8 GLP5        0.0000 
     73 CA        -17.7175  -13.2873   37.3552 C.3       4 GLC5        0.0000 
     74 CA        -18.9170  -13.0510   35.5600 C.3       8 GLP5        0.0000 
     75 CA        -17.7437  -16.9120   44.4146 C.3       4 GLC5        0.0000 
@<TRIPOS>BOND
@<TRIPOS>SUBSTRUCTURE
     1 ALC1       48 GROUP        1 X    ALC  0     ROOT ALC X 1
     2 SEC2        1 GROUP        1 X    SEC  0     **** SEC X 2
     3 LYC4       10 GROUP        1 X    LYC  0     **** LYC X 4
     4 GLC5       34 GROUP        1 X    GLC  0     **** GLC X 6
     5 ALP1       50 GROUP        1 Y    ALP  0     ROOT ALP Y 8
     6 SEP2        3 GROUP        1 Y    SEP  0     **** SEP Y 9
     7 LYP4       12 GROUP        1 Y    LYP  0     **** LYP Y 11
     8 GLP5       36 GROUP        1 Y    GLP  0     **** GLP Y 13
     9 ALL1       49 GROUP        1 Z    ALL  0     ROOT ALL Z 15
    10 SEL2        2 GROUP        1 Z    SEL  0     **** SEL Z 16
    11 LYL4       11 GROUP        1 Z    LYL  0     **** LYL Z 18
    12 GLL5       35 GROUP        1 Z    GLL  0     **** GLL Z 20
@<TRIPOS>SET

