#    Name: 3fvq_ATP_2_ligand
#    Modification time : Tue Mar 25 06:38:43 2014

@<TRIPOS>MOLECULE
3fvq_ATP_2_ligand
   43    45     1     0     0
SMALL
NO_CHARGES


@<TRIPOS>ATOM
      1 PG        -19.6070   -9.8950   33.3480 P.3       1 ATP360      0.0000 
      2 O1G       -21.0360  -10.3660   33.2620 O.co2     1 ATP360      0.0000 
      3 O2G       -18.6000  -10.9140   32.7870 O.co2     1 ATP360      0.0000 
      4 O3G       -19.3450   -8.4880   32.8680 O.co2     1 ATP360      0.0000 
      5 PB        -19.8510   -9.1320   36.2270 P.3       1 ATP360      0.0000 
      6 O1B       -19.2370   -7.7770   36.4360 O.co2     1 ATP360      0.0000 
      7 O2B       -21.3500   -9.1190   36.1690 O.co2     1 ATP360      0.0000 
      8 O3B       -19.1590   -9.7780   34.9370 O.3       1 ATP360      0.0000 
      9 PA        -20.1630  -11.0420   38.4280 P.3       1 ATP360      0.0000 
     10 O1A       -21.1190  -12.0160   37.7380 O.co2     1 ATP360      0.0000 
     11 O2A       -20.7160  -10.0880   39.4510 O.co2     1 ATP360      0.0000 
     12 O3A       -19.3210  -10.1850   37.3830 O.3       1 ATP360      0.0000 
     13 O5'       -18.9260  -11.8640   39.0840 O.3       1 ATP360      0.0000 
     14 C5'       -18.0120  -11.1210   39.9310 C.3       1 ATP360      0.0000 
     15 C4'       -16.8240  -12.0710   40.2900 C.3       1 ATP360      0.0000 
     16 O4'       -17.3070  -13.0740   41.2270 O.3       1 ATP360      0.0000 
     17 C3'       -16.3140  -12.8060   39.0420 C.3       1 ATP360      0.0000 
     18 O3'       -14.8760  -12.7240   38.9720 O.3       1 ATP360      0.0000 
     19 C2'       -16.7220  -14.2410   39.2590 C.3       1 ATP360      0.0000 
     20 O2'       -15.8000  -15.2120   38.7240 O.3       1 ATP360      0.0000 
     21 C1'       -16.8690  -14.3670   40.7750 C.3       1 ATP360      0.0000 
     22 N9        -17.8190  -15.4060   41.2060 N.pl3     1 ATP360      0.0000 
     23 C8        -19.1410  -15.5160   40.9330 C.2       1 ATP360      0.0000 
     24 N7        -19.6140  -16.6110   41.5540 N.2       1 ATP360      0.0000 
     25 C5        -18.6150  -17.1970   42.2340 C.ar      1 ATP360      0.0000 
     26 C6        -18.4330  -18.3970   43.0790 C.ar      1 ATP360      0.0000 
     27 N6        -19.4650  -19.2180   43.3720 N.pl3     1 ATP360      0.0000 
     28 N1        -17.1930  -18.6430   43.5570 N.ar      1 ATP360      0.0000 
     29 C2        -16.1430  -17.8480   43.3360 C.ar      1 ATP360      0.0000 
     30 N3        -16.2370  -16.7300   42.5620 N.ar      1 ATP360      0.0000 
     31 C4        -17.4390  -16.3870   42.0120 C.ar      1 ATP360      0.0000 
     32 H         -18.4760  -10.8170   40.8587 H         1 ATP360      0.0000 
     33 H         -17.5978  -10.2612   39.4235 H         1 ATP360      0.0000 
     34 H         -16.0403  -11.4959   40.7077 H         1 ATP360      0.0000 
     35 H         -16.8003  -12.4235   38.1975 H         1 ATP360      0.0000 
     36 H         -17.7234  -14.3629   38.8444 H         1 ATP360      0.0000 
     37 H         -15.8802  -14.5674   41.1799 H         1 ATP360      0.0000 
     38 H         -19.6526  -14.9078   40.3843 H         1 ATP360      0.0000 
     39 H         -20.3568  -18.9515   43.0064 H         1 ATP360      0.0000 
     40 H         -19.2455  -20.0194   43.9285 H         1 ATP360      0.0000 
     41 H         -15.2091  -18.0816   43.7674 H         1 ATP360      0.0000 
     42 H         -14.5503  -13.6135   39.2924 H         1 ATP360      0.0000 
     43 H         -16.2195  -15.5249   37.8719 H         1 ATP360      0.0000 
@<TRIPOS>BOND
     1    2    1 ar   
     2    3    1 ar   
     3    4    1 ar   
     4    8    1 1    
     5    6    5 ar   
     6    7    5 ar   
     7    8    5 1    
     8   12    5 1    
     9   10    9 ar   
    10   11    9 ar   
    11   12    9 1    
    12   13    9 1    
    13   14   13 1    
    14   15   14 1    
    15   32   14 1    
    16   33   14 1    
    17   16   15 1    
    18   17   15 1    
    19   34   15 1    
    20   21   16 1    
    21   18   17 1    
    22   19   17 1    
    23   35   17 1    
    24   42   18 1    
    25   20   19 1    
    26   21   19 1    
    27   36   19 1    
    28   43   20 1    
    29   22   21 1    
    30   37   21 1    
    31   23   22 1    
    32   31   22 1    
    33   24   23 2    
    34   38   23 1    
    35   25   24 1    
    36   26   25 ar   
    37   31   25 ar   
    38   27   26 1    
    39   28   26 ar   
    40   39   27 1    
    41   40   27 1    
    42   29   28 ar   
    43   30   29 ar   
    44   41   29 1    
    45   31   30 ar   
@<TRIPOS>SUBSTRUCTURE
     1 ATP360      1 GROUP   
@<TRIPOS>SET

