#    Name: 4h0m_CYC_4_INTS_M
#    Modification time : Tue Mar 25 00:01:27 2014

@<TRIPOS>MOLECULE
4h0m_CYC_4_INTS_M
   72     0     9     0     0
SMALL
NO_CHARGES


@<TRIPOS>ATOM
      1 N         -42.5725  -30.2040   34.6040 N.am      2 SEC2        0.0000 
      2 N         -42.9190  -29.2190   33.6030 N.am      8 SEL2        0.0000 
      3 N         -42.2260  -31.1890   35.6050 N.am      5 SEP2        0.0000 
      4 CA        -40.6765  -25.9220   32.2590 C.3       3 GLC5        0.0000 
      5 CA        -42.7070  -25.8780   31.9310 C.3       9 GLL5        0.0000 
      6 CA        -38.6460  -25.9660   32.5870 C.3       6 GLP5        0.0000 
      7 CA        -39.0135  -24.7655   34.7785 C.3       3 GLC5        0.0000 
      8 CA        -40.2880  -24.4660   36.4290 C.3       9 GLL5        0.0000 
      9 CA        -37.7390  -25.0650   33.1280 C.3       6 GLP5        0.0000 
     10 CA        -38.4125  -27.5795   36.1735 C.3       3 GLC5        0.0000 
     11 CA        -39.9680  -26.8330   37.3700 C.3       9 GLL5        0.0000 
     12 CA        -36.8570  -28.3260   34.9770 C.3       6 GLP5        0.0000 
     13 CA        -38.7410  -27.6705   38.9445 C.3       3 GLC5        0.0000 
     14 CA        -37.5140  -28.5080   40.5190 C.3       6 GLP5        0.0000 
     15 CA        -39.9880  -22.0370   38.6815 C.3       3 GLC5        0.0000 
     16 CA        -39.5590  -23.5900   37.4050 C.3       9 GLL5        0.0000 
     17 CA        -40.4170  -20.4840   39.9580 C.3       6 GLP5        0.0000 
     18 CA        -36.7275  -24.6455   37.7840 C.3       3 GLC5        0.0000 
     19 CA        -38.1090  -23.3150   36.9320 C.3       9 GLL5        0.0000 
     20 CA        -35.3460  -25.9760   38.6360 C.3       6 GLP5        0.0000 
     21 CA        -37.9240  -24.1900   35.0300 C.3       3 GLC5        0.0000 
     22 O         -47.0725  -34.5640   35.2835 O.2       1 ALC1        0.0000 
     23 O         -46.0720  -35.4720   35.7510 O.2       7 ALL1        0.0000 
     24 O         -48.0730  -33.6560   34.8160 O.2       4 ALP1        0.0000 
     25 CA        -44.9055  -38.4580   40.3495 C.3       3 GLC5        0.0000 
     26 CA        -45.8100  -37.1530   38.9730 C.3       9 GLL5        0.0000 
     27 CA        -44.0010  -39.7630   41.7260 C.3       6 GLP5        0.0000 
     28 CA        -47.5895  -36.8965   39.9880 C.3       3 GLC5        0.0000 
     29 CA        -49.3690  -36.6400   41.0030 C.3       6 GLP5        0.0000 
     30 CA        -40.0855  -36.3965   37.9530 C.3       3 GLC5        0.0000 
     31 CA        -41.9670  -36.3660   38.2230 C.3       9 GLL5        0.0000 
     32 CA        -38.2040  -36.4270   37.6830 C.3       6 GLP5        0.0000 
     33 CA        -40.9685  -37.0935   39.3150 C.3       3 GLC5        0.0000 
     34 CA        -39.9700  -37.8210   40.4070 C.3       6 GLP5        0.0000 
     35 N         -48.3350  -36.9680   35.2620 N.am      2 SEC2        0.0000 
     36 N         -47.7110  -36.7110   36.8060 N.am      8 SEL2        0.0000 
     37 N         -48.9590  -37.2250   33.7180 N.am      5 SEP2        0.0000 
     38 O         -43.0915  -31.7860   34.7405 O.2       1 ALC1        0.0000 
     39 O         -43.9570  -32.3830   33.8760 O.2       7 ALL1        0.0000 
     40 O         -42.2260  -31.1890   35.6050 O.2       4 ALP1        0.0000 
     41 CA        -42.6015  -31.5050   31.5965 C.3       3 GLC5        0.0000 
     42 CA        -44.3330  -31.9440   32.6350 C.3       9 GLL5        0.0000 
     43 CA        -40.8700  -31.0660   30.5580 C.3       6 GLP5        0.0000 
     44 CA        -44.2340  -36.4120   31.5265 C.3       3 GLC5        0.0000 
     45 CA        -45.4490  -35.5480   32.4390 C.3       9 GLL5        0.0000 
     46 CA        -43.0190  -37.2760   30.6140 C.3       6 GLP5        0.0000 
     47 CA        -46.8410  -36.7685   32.5815 C.3       3 GLC5        0.0000 
     48 CA        -48.2330  -37.9890   32.7240 C.3       6 GLP5        0.0000 
     49 CA        -43.8575  -35.3340   29.9895 C.3       3 GLC5        0.0000 
     50 CA        -44.6960  -33.3920   29.3650 C.3       9 GLL5        0.0000 
     51 CA        -42.3256  -30.1124   31.2542 C.3       3 GLC5        0.0000 
     52 CA        -44.1810  -30.6300   32.0390 C.3       9 GLL5        0.0000 
     53 CA        -39.8071  -26.1515   34.1489 C.3       3 GLC5        0.0000 
     54 CA        -40.4740  -25.8640   36.3970 C.3       9 GLL5        0.0000 
     55 CA        -41.3912  -24.0410   37.7975 C.3       3 GLC5        0.0000 
     56 CA        -42.8590  -24.0540   38.6780 C.3       6 GLP5        0.0000 
     57 CA        -41.6386  -25.2401   37.6339 C.3       3 GLC5        0.0000 
     58 CA        -43.8345  -37.1195   36.4008 C.3       3 GLC5        0.0000 
     59 CA        -44.2680  -35.9890   37.2020 C.3       9 GLL5        0.0000 
     60 CA        -42.8480  -37.7760   35.4440 C.3       6 GLP5        0.0000 
     61 CA        -43.6202  -36.3268   35.5095 C.3       3 GLC5        0.0000 
     62 CA        -44.7710  -35.2770   35.9700 C.3       9 GLL5        0.0000 
     63 CA        -42.6093  -37.0965   36.5418 C.3       3 GLC5        0.0000 
     64 CA        -42.7740  -36.4680   37.0560 C.3       9 GLL5        0.0000 
     65 CA        -42.8745  -35.0113   33.3700 C.3       3 GLC5        0.0000 
     66 CA        -44.0140  -34.4780   35.1800 C.3       9 GLL5        0.0000 
     67 CA        -41.5860  -35.9180   32.1660 C.3       6 GLP5        0.0000 
     68 CA        -45.2451  -33.0916   36.0132 C.3       3 GLC5        0.0000 
     69 CA        -44.3120  -33.7310   33.9680 C.3       9 GLL5        0.0000 
     70 CA        -46.1380  -31.8790   37.2550 C.3       6 GLP5        0.0000 
     71 CA        -43.2597  -34.7520   32.2430 C.3       3 GLC5        0.0000 
     72 CA        -44.9250  -34.1610   32.7650 C.3       9 GLL5        0.0000 
@<TRIPOS>BOND
@<TRIPOS>SUBSTRUCTURE
     1 ALC1       22 GROUP        1 X    ALC  0     ROOT ALC X 1
     2 SEC2        1 GROUP        1 X    SEC  0     **** SEC X 2
     3 GLC5        4 GROUP        1 X    GLC  0     **** GLC X 6
     4 ALP1       24 GROUP        1 Y    ALP  0     ROOT ALP Y 8
     5 SEP2        3 GROUP        1 Y    SEP  0     **** SEP Y 9
     6 GLP5        6 GROUP        1 Y    GLP  0     **** GLP Y 13
     7 ALL1       23 GROUP        1 Z    ALL  0     ROOT ALL Z 15
     8 SEL2        2 GROUP        1 Z    SEL  0     **** SEL Z 16
     9 GLL5        5 GROUP        1 Z    GLL  0     **** GLL Z 20
@<TRIPOS>SET

