#    Name: 4h0m_CYC_4_ligand
#    Modification time : Tue Mar 25 00:01:27 2014

@<TRIPOS>MOLECULE
4h0m_CYC_4_ligand
   81    84     1     0     0
SMALL
NO_CHARGES


@<TRIPOS>ATOM
      1 CHA       -44.1810  -30.6300   32.0390 C.2       1 CYC202      0.0000 
      2 NA        -42.9190  -29.2190   33.6030 N.2       1 CYC202      0.0000 
      3 C1A       -43.6100  -29.4670   32.4730 C.2       1 CYC202      0.0000 
      4 C2A       -43.6670  -28.2690   31.6450 C.2       1 CYC202      0.0000 
      5 C3A       -42.9280  -27.2950   32.4120 C.2       1 CYC202      0.0000 
      6 C4A       -42.4640  -27.9260   33.6570 C.2       1 CYC202      0.0000 
      7 CMA       -42.7070  -25.8780   31.9310 C.3       1 CYC202      0.0000 
      8 CAA       -44.3440  -28.1380   30.3100 C.3       1 CYC202      0.0000 
      9 CBA       -45.5960  -27.3830   30.2930 C.3       1 CYC202      0.0000 
     10 CGA       -46.6550  -28.2250   30.9520 C.2       1 CYC202      0.0000 
     11 O1A       -47.1760  -29.0840   30.2220 O.co2     1 CYC202      0.0000 
     12 O2A       -46.9480  -28.0430   32.1570 O.co2     1 CYC202      0.0000 
     13 CHB       -41.6620  -27.4450   34.8270 C.2       1 CYC202      0.0000 
     14 NB        -41.5680  -25.0590   34.5470 N.am      1 CYC202      0.0000 
     15 C1B       -41.2630  -26.1750   35.2220 C.2       1 CYC202      0.0000 
     16 C2B       -40.4740  -25.8640   36.3970 C.2       1 CYC202      0.0000 
     17 C3B       -40.2880  -24.4660   36.4290 C.2       1 CYC202      0.0000 
     18 C4B       -41.0050  -24.0890   35.2450 C.2       1 CYC202      0.0000 
     19 CMB       -39.9680  -26.8330   37.3700 C.3       1 CYC202      0.0000 
     20 CAB       -39.5590  -23.5900   37.4050 C.3       1 CYC202      0.0000 
     21 CBB       -38.1090  -23.3150   36.9320 C.3       1 CYC202      0.0000 
     22 OB        -41.0740  -22.7820   34.9000 O.2       1 CYC202      0.0000 
     23 NC        -46.0720  -35.4720   35.7510 N.am      1 CYC202      0.0000 
     24 C1C       -46.4720  -36.3410   36.6140 C.2       1 CYC202      0.0000 
     25 C2C       -45.3740  -36.9370   37.5130 C.3       1 CYC202      0.0000 
     26 C3C       -44.2680  -35.9890   37.2020 C.3       1 CYC202      0.0000 
     27 C4C       -44.7710  -35.2770   35.9700 C.2       1 CYC202      0.0000 
     28 CMC       -45.8100  -37.1530   38.9730 C.3       1 CYC202      0.0000 
     29 CAC       -42.7740  -36.4680   37.0560 C.3       1 CYC202      0.0000 
     30 CBC       -41.9670  -36.3660   38.2230 C.3       1 CYC202      0.0000 
     31 OC        -47.7110  -36.7110   36.8060 O.2       1 CYC202      0.0000 
     32 CHD       -44.0140  -34.4780   35.1800 C.2       1 CYC202      0.0000 
     33 ND        -43.9570  -32.3830   33.8760 N.pl3     1 CYC202      0.0000 
     34 C1D       -44.3120  -33.7310   33.9680 C.2       1 CYC202      0.0000 
     35 C2D       -44.9250  -34.1610   32.7650 C.2       1 CYC202      0.0000 
     36 C3D       -44.9420  -33.0110   31.8750 C.2       1 CYC202      0.0000 
     37 C4D       -44.3330  -31.9440   32.6350 C.2       1 CYC202      0.0000 
     38 CMD       -45.4490  -35.5480   32.4390 C.3       1 CYC202      0.0000 
     39 CAD       -45.4440  -32.9460   30.4830 C.3       1 CYC202      0.0000 
     40 CBD       -44.6960  -33.3920   29.3650 C.3       1 CYC202      0.0000 
     41 CGD       -44.0530  -32.4560   28.7620 C.2       1 CYC202      0.0000 
     42 O1D       -43.0430  -32.5640   28.0850 O.co2     1 CYC202      0.0000 
     43 O2D       -43.9890  -31.0770   28.7990 O.co2     1 CYC202      0.0000 
     44 H         -44.6319  -30.5875   31.0156 H         1 CYC202      0.0000 
     45 H         -44.5184  -29.1696   29.9041 H         1 CYC202      0.0000 
     46 H         -43.6145  -27.6777   29.5921 H         1 CYC202      0.0000 
     47 H         -45.9007  -27.1646   29.2727 H         1 CYC202      0.0000 
     48 H         -45.4916  -26.4508   30.8422 H         1 CYC202      0.0000 
     49 H         -41.3468  -28.2802   35.4727 H         1 CYC202      0.0000 
     50 H         -42.0750  -24.9925   33.7484 H         1 CYC202      0.0000 
     51 H         -39.5143  -24.0705   38.3830 H         1 CYC202      0.0000 
     52 H         -40.0719  -22.6332   37.5094 H         1 CYC202      0.0000 
     53 H         -46.5952  -35.0283   35.0626 H         1 CYC202      0.0000 
     54 H         -45.1240  -37.9023   37.0447 H         1 CYC202      0.0000 
     55 H         -44.2827  -35.1928   38.0036 H         1 CYC202      0.0000 
     56 H         -42.3473  -35.8818   36.2024 H         1 CYC202      0.0000 
     57 H         -42.8263  -37.5205   36.6769 H         1 CYC202      0.0000 
     58 H         -42.9520  -34.3472   35.4922 H         1 CYC202      0.0000 
     59 H         -43.5342  -31.8798   34.5567 H         1 CYC202      0.0000 
     60 H         -45.7827  -31.8491   30.3010 H         1 CYC202      0.0000 
     61 H         -46.4830  -33.4672   30.4780 H         1 CYC202      0.0000 
     62 H         -45.4133  -33.9514   28.6734 H         1 CYC202      0.0000 
     63 H         -44.0143  -34.2363   29.7230 H         1 CYC202      0.0000 
     64 H         -42.1726  -25.3428   32.5852 H         1 CYC202      0.0000 
     65 H         -42.2146  -25.8537   31.0609 H         1 CYC202      0.0000 
     66 H         -43.5709  -25.3938   31.7925 H         1 CYC202      0.0000 
     67 H         -39.3621  -27.5051   36.9442 H         1 CYC202      0.0000 
     68 H         -39.4472  -26.3895   38.0994 H         1 CYC202      0.0000 
     69 H         -40.7094  -27.3422   37.8071 H         1 CYC202      0.0000 
     70 H         -37.6131  -22.7312   37.5748 H         1 CYC202      0.0000 
     71 H         -37.5827  -24.1600   36.8374 H         1 CYC202      0.0000 
     72 H         -38.0888  -22.8561   36.0437 H         1 CYC202      0.0000 
     73 H         -45.0731  -37.5399   39.5273 H         1 CYC202      0.0000 
     74 H         -46.0858  -36.2963   39.4088 H         1 CYC202      0.0000 
     75 H         -46.5868  -37.7792   39.0399 H         1 CYC202      0.0000 
     76 H         -41.0332  -36.6832   38.0577 H         1 CYC202      0.0000 
     77 H         -41.9028  -35.4228   38.5489 H         1 CYC202      0.0000 
     78 H         -42.3330  -36.9122   38.9765 H         1 CYC202      0.0000 
     79 H         -44.7266  -36.2380   32.4842 H         1 CYC202      0.0000 
     80 H         -46.1666  -35.8328   33.0746 H         1 CYC202      0.0000 
     81 H         -45.8384  -35.5911   31.5189 H         1 CYC202      0.0000 
@<TRIPOS>BOND
     1    3    1 2    
     2   37    1 1    
     3   44    1 1    
     4    3    2 1    
     5    6    2 2    
     6    4    3 1    
     7    5    4 2    
     8    8    4 1    
     9    6    5 1    
    10    7    5 1    
    11   13    6 1    
    12   64    7 1    
    13   65    7 1    
    14   66    7 1    
    15    9    8 1    
    16   45    8 1    
    17   46    8 1    
    18   10    9 1    
    19   47    9 1    
    20   48    9 1    
    21   11   10 ar   
    22   12   10 ar   
    23   15   13 2    
    24   49   13 1    
    25   15   14 1    
    26   18   14 am   
    27   50   14 1    
    28   16   15 1    
    29   17   16 2    
    30   19   16 1    
    31   18   17 1    
    32   20   17 1    
    33   22   18 2    
    34   67   19 1    
    35   68   19 1    
    36   69   19 1    
    37   21   20 1    
    38   51   20 1    
    39   52   20 1    
    40   70   21 1    
    41   71   21 1    
    42   72   21 1    
    43   24   23 am   
    44   27   23 1    
    45   53   23 1    
    46   25   24 1    
    47   31   24 2    
    48   26   25 1    
    49   28   25 1    
    50   54   25 1    
    51   27   26 1    
    52   29   26 1    
    53   55   26 1    
    54   32   27 2    
    55   73   28 1    
    56   74   28 1    
    57   75   28 1    
    58   30   29 1    
    59   56   29 1    
    60   57   29 1    
    61   76   30 1    
    62   77   30 1    
    63   78   30 1    
    64   34   32 1    
    65   58   32 1    
    66   34   33 1    
    67   37   33 1    
    68   59   33 1    
    69   35   34 2    
    70   36   35 1    
    71   38   35 1    
    72   37   36 2    
    73   39   36 1    
    74   79   38 1    
    75   80   38 1    
    76   81   38 1    
    77   40   39 1    
    78   60   39 1    
    79   61   39 1    
    80   41   40 1    
    81   62   40 1    
    82   63   40 1    
    83   42   41 ar   
    84   43   41 ar   
@<TRIPOS>SUBSTRUCTURE
     1 CYC202      1 GROUP   
@<TRIPOS>SET

