#    Name: 3eej_53R_1_INTS_M
#    Modification time : Tue Mar 25 01:36:42 2014

@<TRIPOS>MOLECULE
3eej_53R_1_INTS_M
   90     0     9     0     0
SMALL
NO_CHARGES


@<TRIPOS>ATOM
      1 CA         13.4195   -4.1685   -6.7115 C.3       3 GLC5        0.0000 
      2 CA         11.6270   -3.1260   -5.9450 C.3       9 GLL5        0.0000 
      3 CA         15.2120   -5.2110   -7.4780 C.3       6 GLP5        0.0000 
      4 CA         10.1620   -1.9335   -5.2540 C.3       3 GLC5        0.0000 
      5 CA          8.6970   -0.7410   -4.5630 C.3       6 GLP5        0.0000 
      6 CA         14.4465   -3.3300   -6.1960 C.3       3 GLC5        0.0000 
      7 CA         12.7330   -2.6080   -5.2710 C.3       9 GLL5        0.0000 
      8 CA         16.1600   -4.0520   -7.1210 C.3       6 GLP5        0.0000 
      9 CA         12.7080   -0.5245   -4.7970 C.3       3 GLC5        0.0000 
     10 CA         12.6830    1.5590   -4.3230 C.3       6 GLP5        0.0000 
     11 CA         15.7640   -0.0445   -6.2935 C.3       3 GLC5        0.0000 
     12 CA         14.7520   -1.1440   -5.0580 C.3       9 GLL5        0.0000 
     13 CA         16.7760    1.0550   -7.5290 C.3       6 GLP5        0.0000 
     14 CA         15.4560   -2.5980   -6.0895 C.3       3 GLC5        0.0000 
     15 CA         13.7175    0.2075   -4.6905 C.3       3 GLC5        0.0000 
     16 CA         16.2480   -0.7280   -4.1815 C.3       3 GLC5        0.0000 
     17 CA         17.7440   -0.3120   -3.3050 C.3       6 GLP5        0.0000 
     18 CA         15.0455   -3.8550   -4.9970 C.3       3 GLC5        0.0000 
     19 CA         13.1590   -3.2950   -4.1280 C.3       9 GLL5        0.0000 
     20 CA         16.9320   -4.4150   -5.8660 C.3       6 GLP5        0.0000 
     21 CA         13.2990   -2.6240   -2.0240 C.3       3 GLC5        0.0000 
     22 CA         13.4390   -1.9530    0.0800 C.3       6 GLP5        0.0000 
     23 CA         14.7890   -4.5190   -1.7650 C.3       3 GLC5        0.0000 
     24 CA         13.0840   -5.0810   -2.4640 C.3       9 GLL5        0.0000 
     25 CA         16.4940   -3.9570   -1.0660 C.3       6 GLP5        0.0000 
     26 CA         11.7305   -7.2460   -1.1635 C.3       3 GLC5        0.0000 
     27 CA         11.9770   -5.0740   -1.3970 C.3       9 GLL5        0.0000 
     28 CA         11.4840   -9.4180   -0.9300 C.3       6 GLP5        0.0000 
     29 CA         10.3645   -3.9850   -1.2970 C.3       3 GLC5        0.0000 
     30 CA          8.7520   -2.8960   -1.1970 C.3       6 GLP5        0.0000 
     31 CA         11.5300   -5.6960    0.1550 C.3       3 GLC5        0.0000 
     32 CA         11.0830   -6.3180    1.7070 C.3       6 GLP5        0.0000 
     33 CA         12.6300   -7.8925   -1.8305 C.3       3 GLC5        0.0000 
     34 CA         13.7760   -6.3670   -2.7310 C.3       9 GLL5        0.0000 
     35 CA         13.5245   -8.7600   -1.7420 C.3       3 GLC5        0.0000 
     36 CA         14.3890   -7.3570   -2.8710 C.3       9 GLL5        0.0000 
     37 CA         12.6600  -10.1630   -0.6130 C.3       6 GLP5        0.0000 
     38 CA         14.9140   -7.0035   -6.4745 C.3       3 GLC5        0.0000 
     39 CA         14.6160   -8.7960   -5.4710 C.3       9 GLL5        0.0000 
     40 CA         13.1485   -8.2870   -6.3570 C.3       3 GLC5        0.0000 
     41 CA         11.6810   -7.7780   -7.2430 C.3       6 GLP5        0.0000 
     42 CA         13.8210  -10.5540   -4.5805 C.3       3 GLC5        0.0000 
     43 CA         13.0260  -12.3120   -3.6900 C.3       6 GLP5        0.0000 
     44 N          16.2240  -10.8890   -5.4235 N.am      2 SEC2        0.0000 
     45 N          15.9900  -10.3790   -4.1350 N.am      8 SEL2        0.0000 
     46 N          16.4580  -11.3990   -6.7120 N.am      5 SEP2        0.0000 
     47 CA         16.5135  -11.9910   -1.2190 C.3       3 GLC5        0.0000 
     48 CA         16.6020  -10.8230   -3.0310 C.3       9 GLL5        0.0000 
     49 CA         16.4250  -13.1590    0.5930 C.3       6 GLP5        0.0000 
     50 CA         18.1020  -10.3620   -1.8025 C.3       3 GLC5        0.0000 
     51 CA         19.6020   -9.9010   -0.5740 C.3       6 GLP5        0.0000 
     52 CA         18.1500  -10.3515   -4.2155 C.3       3 GLC5        0.0000 
     53 CA         19.6980   -9.8800   -5.4000 C.3       6 GLP5        0.0000 
     54 CA         14.8140  -11.5675   -3.3605 C.3       3 GLC5        0.0000 
     55 O          17.3790  -12.5265   -4.3480 O.2       1 ALC1        0.0000 
     56 O          17.2890  -11.9690   -3.0570 O.2       7 ALL1        0.0000 
     57 O          17.4690  -13.0840   -5.6390 O.2       4 ALP1        0.0000 
     58 CA         17.6920   -9.4760   -1.1675 C.3       3 GLC5        0.0000 
     59 CA         15.7820   -9.0510   -1.7610 C.3       9 GLL5        0.0000 
     60 O          16.6225   -8.9635    0.3880 O.2       1 ALC1        0.0000 
     61 O          15.7460   -8.4640   -0.5410 O.2       7 ALL1        0.0000 
     62 O          17.4990   -9.4630    1.3170 O.2       4 ALP1        0.0000 
     63 O          16.9685   -7.6885    0.2210 O.2       1 ALC1        0.0000 
     64 O          18.1910   -6.9130    0.9830 O.2       4 ALP1        0.0000 
     65 CA         10.0302   -6.7760   -6.5433 C.3       3 GLC5        0.0000 
     66 CA          8.9320   -5.5190   -5.5110 C.3       9 GLL5        0.0000 
     67 CA          7.4417   -6.0865   -3.9497 C.3       3 GLC5        0.0000 
     68 CA          6.5040   -6.3990   -2.0560 C.3       6 GLP5        0.0000 
     69 CA          6.0047   -5.2290   -6.5915 C.3       3 GLC5        0.0000 
     70 CA          7.8270   -6.0290   -6.1760 C.3       9 GLL5        0.0000 
     71 CA          4.2410   -4.5330   -6.3120 C.3       6 GLP5        0.0000 
     72 CA          9.9375   -6.6182   -7.5843 C.3       3 GLC5        0.0000 
     73 CA          7.7100   -5.8210   -7.5660 C.3       9 GLL5        0.0000 
     74 CA         10.7620   -6.2365   -7.0745 C.3       3 GLC5        0.0000 
     75 CA          9.7890   -4.5900   -7.5980 C.3       9 GLL5        0.0000 
     76 CA          8.1401   -3.9325   -5.0074 C.3       3 GLC5        0.0000 
     77 CA          9.8970   -4.8000   -6.2140 C.3       9 GLL5        0.0000 
     78 CA          7.1420   -2.5780   -3.9860 C.3       6 GLP5        0.0000 
     79 CA         11.4452   -6.2170   -6.0945 C.3       3 GLC5        0.0000 
     80 CA         10.9840   -4.3060   -5.5140 C.3       9 GLL5        0.0000 
     81 CA          9.5962   -2.7095   -6.5728 C.3       3 GLC5        0.0000 
     82 CA          7.8870   -1.7030   -7.4160 C.3       6 GLP5        0.0000 
     83 CA         12.9848   -3.5152   -0.9252 C.3       3 GLC5        0.0000 
     84 CA         15.5958   -5.9840   -2.2195 C.3       3 GLC5        0.0000 
     85 CA         17.1090   -5.1060   -1.6380 C.3       6 GLP5        0.0000 
     86 CA         14.1145  -10.6058   -3.6117 C.3       3 GLC5        0.0000 
     87 CA         15.1390   -8.5480   -2.9270 C.3       9 GLL5        0.0000 
     88 CA          8.3924   -3.4348   -7.3719 C.3       3 GLC5        0.0000 
     89 CA         10.8026   -3.0431   -3.5551 C.3       3 GLC5        0.0000 
     90 CA          9.1970   -2.3290   -2.5960 C.3       6 GLP5        0.0000 
@<TRIPOS>BOND
@<TRIPOS>SUBSTRUCTURE
     1 ALC1       55 GROUP        1 X    ALC  0     ROOT ALC X 1
     2 SEC2       44 GROUP        1 X    SEC  0     **** SEC X 2
     3 GLC5        1 GROUP        1 X    GLC  0     **** GLC X 6
     4 ALP1       57 GROUP        1 Y    ALP  0     ROOT ALP Y 8
     5 SEP2       46 GROUP        1 Y    SEP  0     **** SEP Y 9
     6 GLP5        3 GROUP        1 Y    GLP  0     **** GLP Y 13
     7 ALL1       56 GROUP        1 Z    ALL  0     ROOT ALL Z 15
     8 SEL2       45 GROUP        1 Z    SEL  0     **** SEL Z 16
     9 GLL5        2 GROUP        1 Z    GLL  0     **** GLL Z 20
@<TRIPOS>SET

