#    Name: 3eej_53R_1_ligand
#    Modification time : Tue Mar 25 01:36:42 2014

@<TRIPOS>MOLECULE
3eej_53R_1_ligand
   49    51     1     0     0
SMALL
NO_CHARGES


@<TRIPOS>ATOM
      1 C20         8.9320   -5.5190   -5.5110 C.ar      1 53R229      0.0000 
      2 C21         7.8270   -6.0290   -6.1760 C.ar      1 53R229      0.0000 
      3 C22         7.7100   -5.8210   -7.5660 C.ar      1 53R229      0.0000 
      4 C23         8.6780   -5.0960   -8.2850 C.ar      1 53R229      0.0000 
      5 C24         9.7890   -4.5900   -7.5980 C.ar      1 53R229      0.0000 
      6 C25         9.8970   -4.8000   -6.2140 C.ar      1 53R229      0.0000 
      7 C18        10.9840   -4.3060   -5.5140 C.ar      1 53R229      0.0000 
      8 C19        11.4350   -5.0060   -4.3780 C.ar      1 53R229      0.0000 
      9 C17        11.6270   -3.1260   -5.9450 C.ar      1 53R229      0.0000 
     10 C16        12.7330   -2.6080   -5.2710 C.ar      1 53R229      0.0000 
     11 O17        13.3670   -1.4240   -5.6740 O.3       1 53R229      0.0000 
     12 C2         14.7520   -1.1440   -5.0580 C.3       1 53R229      0.0000 
     13 C15        13.1590   -3.2950   -4.1280 C.ar      1 53R229      0.0000 
     14 C14        12.5310   -4.4700   -3.7120 C.ar      1 53R229      0.0000 
     15 C12        13.0840   -5.0810   -2.4640 C.3       1 53R229      0.0000 
     16 C13        11.9770   -5.0740   -1.3970 C.3       1 53R229      0.0000 
     17 C11        13.7760   -6.3670   -2.7310 C.1       1 53R229      0.0000 
     18 C10        14.3890   -7.3570   -2.8710 C.1       1 53R229      0.0000 
     19 C6         15.1390   -8.5480   -2.9270 C.ar      1 53R229      0.0000 
     20 C5         15.2670   -9.2510   -4.1400 C.ar      1 53R229      0.0000 
     21 C8         14.6160   -8.7960   -5.4710 C.3       1 53R229      0.0000 
     22 N4         15.9900  -10.3790   -4.1350 N.ar      1 53R229      0.0000 
     23 C3         16.6020  -10.8230   -3.0310 C.ar      1 53R229      0.0000 
     24 N7         17.2890  -11.9690   -3.0570 N.pl3     1 53R229      0.0000 
     25 N2         16.4770  -10.1860   -1.8920 N.ar      1 53R229      0.0000 
     26 C1         15.7820   -9.0510   -1.7610 C.ar      1 53R229      0.0000 
     27 N9         15.7460   -8.4640   -0.5410 N.pl3     1 53R229      0.0000 
     28 H           9.0421   -5.6696   -4.4999 H         1 53R229      0.0000 
     29 H           7.1054   -6.5472   -5.6780 H         1 53R229      0.0000 
     30 H           6.8945   -6.2104   -8.0663 H         1 53R229      0.0000 
     31 H           8.5708   -4.9440   -9.2829 H         1 53R229      0.0000 
     32 H          10.5133   -4.0738   -8.0971 H         1 53R229      0.0000 
     33 H          10.9831   -5.8460   -4.0730 H         1 53R229      0.0000 
     34 H          11.2636   -2.6378   -6.7829 H         1 53R229      0.0000 
     35 H          13.9556   -2.9227   -3.5819 H         1 53R229      0.0000 
     36 H          13.8597   -4.3406   -2.0933 H         1 53R229      0.0000 
     37 H          17.3000  -12.4557   -3.9305 H         1 53R229      0.0000 
     38 H          17.7304  -12.2369   -2.2006 H         1 53R229      0.0000 
     39 H          16.5470   -8.6077    0.0403 H         1 53R229      0.0000 
     40 H          14.9216   -7.9389   -0.3296 H         1 53R229      0.0000 
     41 H          15.4075   -1.8679   -5.2734 H         1 53R229      0.0000 
     42 H          15.1414   -0.2864   -5.3940 H         1 53R229      0.0000 
     43 H          14.7082   -1.0753   -4.0613 H         1 53R229      0.0000 
     44 H          12.2896   -5.4729   -0.5349 H         1 53R229      0.0000 
     45 H          11.6627   -4.1466   -1.1940 H         1 53R229      0.0000 
     46 H          11.1765   -5.5974   -1.6889 H         1 53R229      0.0000 
     47 H          14.9358   -7.8906   -5.7504 H         1 53R229      0.0000 
     48 H          14.8244   -9.4246   -6.2203 H         1 53R229      0.0000 
     49 H          13.6199   -8.7457   -5.3991 H         1 53R229      0.0000 
@<TRIPOS>BOND
     1    2    1 ar   
     2    6    1 ar   
     3   28    1 1    
     4    3    2 ar   
     5   29    2 1    
     6    4    3 ar   
     7   30    3 1    
     8    5    4 ar   
     9   31    4 1    
    10    6    5 ar   
    11   32    5 1    
    12    7    6 1    
    13    8    7 ar   
    14    9    7 ar   
    15   14    8 ar   
    16   33    8 1    
    17   10    9 ar   
    18   34    9 1    
    19   11   10 1    
    20   13   10 ar   
    21   12   11 1    
    22   41   12 1    
    23   42   12 1    
    24   43   12 1    
    25   14   13 ar   
    26   35   13 1    
    27   15   14 1    
    28   16   15 1    
    29   17   15 1    
    30   36   15 1    
    31   44   16 1    
    32   45   16 1    
    33   46   16 1    
    34   18   17 3    
    35   19   18 1    
    36   20   19 ar   
    37   26   19 ar   
    38   21   20 1    
    39   22   20 ar   
    40   47   21 1    
    41   48   21 1    
    42   49   21 1    
    43   23   22 ar   
    44   24   23 1    
    45   25   23 ar   
    46   37   24 1    
    47   38   24 1    
    48   26   25 ar   
    49   27   26 1    
    50   39   27 1    
    51   40   27 1    
@<TRIPOS>SUBSTRUCTURE
     1 53R229      1 GROUP   
@<TRIPOS>SET

