#    Name: 3dol_GWI_1_INTS_M
#    Modification time : Mon Mar 24 23:55:58 2014

@<TRIPOS>MOLECULE
3dol_GWI_1_INTS_M
   89     0     6     0     0
SMALL
NO_CHARGES


@<TRIPOS>ATOM
      1 CA         -3.5620  -37.3930   25.3570 C.3       2 GLC5        0.0000 
      2 CA         -2.0640  -36.7340   24.5540 C.3       6 GLL5        0.0000 
      3 CA         -5.0600  -38.0520   26.1600 C.3       4 GLP5        0.0000 
      4 CA         -1.1520  -37.1235   26.4550 C.3       2 GLC5        0.0000 
      5 CA         -0.2400  -37.5130   28.3560 C.3       4 GLP5        0.0000 
      6 CA          1.1305  -39.6750   23.0555 C.3       2 GLC5        0.0000 
      7 CA         -0.5580  -39.0210   24.2440 C.3       6 GLL5        0.0000 
      8 CA          2.8190  -40.3290   21.8670 C.3       4 GLP5        0.0000 
      9 CA          1.4580  -38.4270   24.3585 C.3       2 GLC5        0.0000 
     10 CA          3.4740  -37.8330   24.4730 C.3       4 GLP5        0.0000 
     11 CA         -0.3990  -38.2670   26.3000 C.3       2 GLC5        0.0000 
     12 CA         -0.9310  -40.5200   25.5205 C.3       2 GLC5        0.0000 
     13 CA         -1.3040  -42.0190   26.7970 C.3       4 GLP5        0.0000 
     14 CA          3.0415  -32.0750   26.2085 C.3       2 GLC5        0.0000 
     15 CA          1.2070  -32.9830   26.9760 C.3       6 GLL5        0.0000 
     16 CA          4.8760  -31.1670   25.4410 C.3       4 GLP5        0.0000 
     17 CA          0.7630  -32.5640   25.0210 C.3       2 GLC5        0.0000 
     18 CA          0.3190  -32.1450   23.0660 C.3       4 GLP5        0.0000 
     19 CA          1.9010  -34.3660   26.1055 C.3       2 GLC5        0.0000 
     20 CA          2.5950  -35.7490   25.2350 C.3       4 GLP5        0.0000 
     21 CA          1.1500  -34.3090   28.1980 C.3       2 GLC5        0.0000 
     22 CA          1.0930  -35.6350   29.4200 C.3       4 GLP5        0.0000 
     23 CA          1.7475  -31.2635   27.5385 C.3       2 GLC5        0.0000 
     24 CA          2.2880  -29.5440   28.1010 C.3       4 GLP5        0.0000 
     25 CA         -2.3000  -34.1915   20.9010 C.3       2 GLC5        0.0000 
     26 CA         -4.3720  -34.3030   20.9160 C.3       6 GLL5        0.0000 
     27 CA         -0.2280  -34.0800   20.8860 C.3       4 GLP5        0.0000 
     28 CA         -4.2950  -35.0030   19.0510 C.3       2 GLC5        0.0000 
     29 CA         -4.2180  -35.7030   17.1860 C.3       4 GLP5        0.0000 
     30 CA         -5.2355  -32.7820   20.3765 C.3       2 GLC5        0.0000 
     31 CA         -6.0990  -31.2610   19.8370 C.3       4 GLP5        0.0000 
     32 N          -5.6205  -36.5485   19.2000 N.am      1 SEC2        0.0000 
     33 N          -6.1800  -35.4410   19.9960 N.am      5 SEL2        0.0000 
     34 N          -5.0610  -37.6560   18.4040 N.am      3 SEP2        0.0000 
     35 CA         -7.7935  -34.6440   26.2560 C.3       2 GLC5        0.0000 
     36 CA         -8.0190  -33.8720   24.4990 C.3       6 GLL5        0.0000 
     37 CA         -7.5680  -35.4160   28.0130 C.3       4 GLP5        0.0000 
     38 CA         -7.0345  -32.0960   24.9475 C.3       2 GLC5        0.0000 
     39 CA         -6.0500  -30.3200   25.3960 C.3       4 GLP5        0.0000 
     40 CA         -9.1395  -32.2605   23.9315 C.3       2 GLC5        0.0000 
     41 CA        -10.2600  -30.6490   23.3640 C.3       4 GLP5        0.0000 
     42 CA         -9.1205  -33.7540   22.7530 C.3       2 GLC5        0.0000 
     43 CA        -10.2220  -33.6360   21.0070 C.3       4 GLP5        0.0000 
     44 CA        -10.2990  -35.1435   25.9795 C.3       2 GLC5        0.0000 
     45 CA         -9.2930  -36.0000   24.3280 C.3       6 GLL5        0.0000 
     46 CA        -11.3050  -34.2870   27.6310 C.3       4 GLP5        0.0000 
     47 CA         -8.5675  -39.6925   22.5750 C.3       2 GLC5        0.0000 
     48 CA         -8.8290  -37.8180   22.7350 C.3       6 GLL5        0.0000 
     49 CA         -8.3060  -41.5670   22.4150 C.3       4 GLP5        0.0000 
     50 CA        -13.4730  -35.4865   22.2825 C.3       2 GLC5        0.0000 
     51 CA        -14.4370  -36.9700   22.9740 C.3       6 GLL5        0.0000 
     52 CA        -12.5090  -34.0030   21.5910 C.3       4 GLP5        0.0000 
     53 N          -8.9900  -40.1195   24.3415 N.am      1 SEC2        0.0000 
     54 N         -10.6490  -39.7370   24.3410 N.am      5 SEL2        0.0000 
     55 N          -7.3310  -40.5020   24.3420 N.am      3 SEP2        0.0000 
     56 CA         -4.2335  -35.2005   30.3870 C.3       2 GLC5        0.0000 
     57 CA         -3.0810  -33.3370   29.9510 C.3       6 GLL5        0.0000 
     58 CA         -5.3860  -37.0640   30.8230 C.3       4 GLP5        0.0000 
     59 CA         -1.8735  -34.4050   30.7525 C.3       2 GLC5        0.0000 
     60 CA         -0.6660  -35.4730   31.5540 C.3       4 GLP5        0.0000 
     61 CA         -4.9075  -32.7480   29.8790 C.3       2 GLC5        0.0000 
     62 CA         -6.7340  -32.1590   29.8070 C.3       4 GLP5        0.0000 
     63 CA         -1.5760  -34.8360   22.1285 C.3       2 GLC5        0.0000 
     64 CA         -2.8040  -35.6740   24.1100 C.3       6 GLL5        0.0000 
     65 CA         -4.0900  -36.9935   23.5385 C.3       2 GLC5        0.0000 
     66 CA         -3.0440  -35.5100   22.6320 C.3       6 GLL5        0.0000 
     67 CA         -5.2560  -38.3950   23.7060 C.3       4 GLP5        0.0000 
     68 CA         -1.1638  -35.5465   21.4575 C.3       2 GLC5        0.0000 
     69 CA         -2.5030  -36.4400   21.7710 C.3       6 GLL5        0.0000 
     70 CA         -2.5758  -38.4705   20.7375 C.3       2 GLC5        0.0000 
     71 CA         -3.0520  -39.9280   19.4460 C.3       4 GLP5        0.0000 
     72 CA         -3.5256  -37.8800   23.2647 C.3       2 GLC5        0.0000 
     73 CA         -1.6960  -37.5860   22.2870 C.3       6 GLL5        0.0000 
     74 CA         -1.8962  -40.1195   23.6055 C.3       2 GLC5        0.0000 
     75 CA         -1.4910  -37.7170   23.6180 C.3       6 GLL5        0.0000 
     76 CA         -2.7680  -41.8700   23.2800 C.3       4 GLP5        0.0000 
     77 CA         -0.2747  -32.8695   24.8715 C.3       2 GLC5        0.0000 
     78 CA         -1.2510  -33.8320   26.1350 C.3       6 GLL5        0.0000 
     79 CA         -0.6106  -35.4515   27.9693 C.3       2 GLC5        0.0000 
     80 CA         -7.5665  -37.5247   24.4721 C.3       2 GLC5        0.0000 
     81 CA         -9.5970  -37.3490   23.7480 C.3       6 GLL5        0.0000 
     82 CA         -5.9450  -38.5670   25.0220 C.3       4 GLP5        0.0000 
     83 CA         -6.7235  -37.7464   23.1553 C.3       2 GLC5        0.0000 
     84 CA        -10.2160  -35.9871   22.2368 C.3       2 GLC5        0.0000 
     85 CA        -11.2950  -34.7280   21.0870 C.3       4 GLP5        0.0000 
     86 CA         -8.9959  -34.9410   21.8829 C.3       2 GLC5        0.0000 
     87 CA         -7.7080  -36.9970   22.2220 C.3       6 GLL5        0.0000 
     88 CA         -2.4661  -31.4176   29.8912 C.3       2 GLC5        0.0000 
     89 CA         -2.4990  -29.4940   30.5200 C.3       4 GLP5        0.0000 
@<TRIPOS>BOND
@<TRIPOS>SUBSTRUCTURE
     1 SEC2       32 GROUP        1 X    SEC  0     ROOT SEC X 2
     2 GLC5        1 GROUP        1 X    GLC  0     **** GLC X 6
     3 SEP2       34 GROUP        1 Y    SEP  0     ROOT SEP Y 9
     4 GLP5        3 GROUP        1 Y    GLP  0     **** GLP Y 13
     5 SEL2       33 GROUP        1 Z    SEL  0     ROOT SEL Z 16
     6 GLL5        2 GROUP        1 Z    GLL  0     **** GLL Z 20
@<TRIPOS>SET

