#    Name: 3dol_GWI_1_ligand
#    Modification time : Mon Mar 24 23:55:58 2014

@<TRIPOS>MOLECULE
3dol_GWI_1_ligand
   59    61     1     0     0
SMALL
NO_CHARGES


@<TRIPOS>ATOM
      1 C1         -3.0440  -35.5100   22.6320 C.ar      1 GWI999      0.0000 
      2 C2         -2.8040  -35.6740   24.1100 C.ar      1 GWI999      0.0000 
      3 C3         -2.0640  -36.7340   24.5540 C.ar      1 GWI999      0.0000 
      4 C6         -2.5030  -36.4400   21.7710 C.ar      1 GWI999      0.0000 
      5 C4         -1.4910  -37.7170   23.6180 C.ar      1 GWI999      0.0000 
      6 C5         -1.6960  -37.5860   22.2870 C.ar      1 GWI999      0.0000 
      7 CL         -0.5580  -39.0210   24.2440 Cl        1 GWI999      0.0000 
      8 C7         -3.3860  -34.6780   25.0620 C.2       1 GWI999      0.0000 
      9 O1         -4.5210  -34.2630   24.8590 O.2       1 GWI999      0.0000 
     10 C8         -2.6300  -34.1550   26.2820 C.ar      1 GWI999      0.0000 
     11 C9         -1.2510  -33.8320   26.1350 C.ar      1 GWI999      0.0000 
     12 C10        -0.4860  -33.3560   27.2190 C.ar      1 GWI999      0.0000 
     13 C11        -1.0940  -33.1860   28.4880 C.ar      1 GWI999      0.0000 
     14 C12        -2.4770  -33.5050   28.6600 C.ar      1 GWI999      0.0000 
     15 C13        -3.2470  -33.9880   27.5580 C.ar      1 GWI999      0.0000 
     16 CL1         1.2070  -32.9830   26.9760 Cl        1 GWI999      0.0000 
     17 O2         -3.7870  -34.4250   22.2370 O.3       1 GWI999      0.0000 
     18 C15        -4.3720  -34.3030   20.9160 C.3       1 GWI999      0.0000 
     19 C16        -5.7290  -34.9650   21.0420 C.2       1 GWI999      0.0000 
     20 O3         -6.1800  -35.4410   19.9960 O.2       1 GWI999      0.0000 
     21 N1         -6.3470  -35.0030   22.2640 N.am      1 GWI999      0.0000 
     22 C17        -7.3980  -35.7580   22.7260 C.ar      1 GWI999      0.0000 
     23 C18        -8.2650  -35.2320   23.8650 C.ar      1 GWI999      0.0000 
     24 C23        -8.0190  -33.8720   24.4990 C.3       1 GWI999      0.0000 
     25 C19        -9.2930  -36.0000   24.3280 C.ar      1 GWI999      0.0000 
     26 C20        -9.5970  -37.3490   23.7480 C.ar      1 GWI999      0.0000 
     27 C21        -8.8290  -37.8180   22.7350 C.ar      1 GWI999      0.0000 
     28 C22        -7.7080  -36.9970   22.2220 C.ar      1 GWI999      0.0000 
     29 N3        -12.1870  -37.9040   23.4180 N.pl3     1 GWI999      0.0000 
     30 C14       -13.1090  -36.9470   23.7110 C.2       1 GWI999      0.0000 
     31 C24       -14.4370  -36.9700   22.9740 C.3       1 GWI999      0.0000 
     32 S         -10.9390  -38.3180   24.3940 S.o2      1 GWI999      0.0000 
     33 O4        -11.2090  -37.8690   25.7670 O.2       1 GWI999      0.0000 
     34 C25       -15.6150  -36.4600   23.8580 C.3       1 GWI999      0.0000 
     35 O6        -12.9120  -36.0710   24.5430 O.2       1 GWI999      0.0000 
     36 O5        -10.6490  -39.7370   24.3410 O.2       1 GWI999      0.0000 
     37 C26        -3.0810  -33.3370   29.9510 C.1       1 GWI999      0.0000 
     38 N2         -3.5460  -33.2080   30.9960 N.1       1 GWI999      0.0000 
     39 H          -1.8772  -36.8889   25.5549 H         1 GWI999      0.0000 
     40 H          -2.6270  -36.3890   20.7586 H         1 GWI999      0.0000 
     41 H          -1.3293  -38.2309   21.5908 H         1 GWI999      0.0000 
     42 H          -0.8077  -33.9511   25.2124 H         1 GWI999      0.0000 
     43 H          -0.5543  -32.8394   29.2751 H         1 GWI999      0.0000 
     44 H          -4.2283  -34.2112   27.6825 H         1 GWI999      0.0000 
     45 H          -3.7957  -34.8296   20.1793 H         1 GWI999      0.0000 
     46 H          -4.5113  -33.2752   20.6397 H         1 GWI999      0.0000 
     47 H          -5.9239  -34.2980   23.0169 H         1 GWI999      0.0000 
     48 H          -9.9100  -35.6963   25.0945 H         1 GWI999      0.0000 
     49 H          -8.9759  -38.7230   22.2908 H         1 GWI999      0.0000 
     50 H          -7.1589  -37.4162   21.4465 H         1 GWI999      0.0000 
     51 H         -12.1797  -38.4664   22.5516 H         1 GWI999      0.0000 
     52 H         -14.6658  -37.9901   22.6547 H         1 GWI999      0.0000 
     53 H         -14.3780  -36.3372   22.0846 H         1 GWI999      0.0000 
     54 H          -7.1049  -33.8089   24.8996 H         1 GWI999      0.0000 
     55 H          -8.0984  -33.1314   23.8318 H         1 GWI999      0.0000 
     56 H          -8.6734  -33.6792   25.2301 H         1 GWI999      0.0000 
     57 H         -15.7335  -37.0200   24.6779 H         1 GWI999      0.0000 
     58 H         -15.4693  -35.5192   24.1642 H         1 GWI999      0.0000 
     59 H         -16.4842  -36.4762   23.3638 H         1 GWI999      0.0000 
@<TRIPOS>BOND
     1    2    1 ar   
     2    4    1 ar   
     3   17    1 1    
     4    3    2 ar   
     5    8    2 1    
     6    5    3 ar   
     7   39    3 1    
     8    6    4 ar   
     9   40    4 1    
    10    6    5 ar   
    11    7    5 1    
    12   41    6 1    
    13    9    8 2    
    14   10    8 1    
    15   11   10 ar   
    16   15   10 ar   
    17   12   11 ar   
    18   42   11 1    
    19   13   12 ar   
    20   16   12 1    
    21   14   13 ar   
    22   43   13 1    
    23   15   14 ar   
    24   37   14 1    
    25   44   15 1    
    26   18   17 1    
    27   19   18 1    
    28   45   18 1    
    29   46   18 1    
    30   20   19 2    
    31   21   19 am   
    32   22   21 1    
    33   47   21 1    
    34   23   22 ar   
    35   28   22 ar   
    36   24   23 1    
    37   25   23 ar   
    38   54   24 1    
    39   55   24 1    
    40   56   24 1    
    41   26   25 ar   
    42   48   25 1    
    43   27   26 ar   
    44   32   26 1    
    45   28   27 ar   
    46   49   27 1    
    47   50   28 1    
    48   30   29 am   
    49   32   29 1    
    50   51   29 1    
    51   31   30 1    
    52   35   30 2    
    53   34   31 1    
    54   52   31 1    
    55   53   31 1    
    56   33   32 2    
    57   36   32 2    
    58   57   34 1    
    59   58   34 1    
    60   59   34 1    
    61   38   37 3    
@<TRIPOS>SUBSTRUCTURE
     1 GWI999      1 GROUP   
@<TRIPOS>SET

