#    Name: 2rl5_2RL_1_INTS_M
#    Modification time : Tue Mar 25 00:04:24 2014

@<TRIPOS>MOLECULE
2rl5_2RL_1_INTS_M
   95     0     9     0     0
SMALL
NO_CHARGES


@<TRIPOS>ATOM
      1 CA         56.0750   52.8055   14.7580 C.3       3 GLC5        0.0000 
      2 CA         57.1940   51.6760   13.6700 C.3       9 GLL5        0.0000 
      3 CA         54.9560   53.9350   15.8460 C.3       6 GLP5        0.0000 
      4 N          62.1140   53.2030   12.5195 N.am      2 SEC2        0.0000 
      5 N          61.4000   52.3800   13.4540 N.am      8 SEL2        0.0000 
      6 N          62.8280   54.0260   11.5850 N.am      5 SEP2        0.0000 
      7 CA         62.9125   53.7665   13.8920 C.3       3 GLC5        0.0000 
      8 CA         62.2280   51.9810   14.4600 C.3       9 GLL5        0.0000 
      9 CA         63.5970   55.5520   13.3240 C.3       6 GLP5        0.0000 
     10 CA         63.3440   51.6610   12.7930 C.3       3 GLC5        0.0000 
     11 CA         64.4600   51.3410   11.1260 C.3       6 GLP5        0.0000 
     12 CA         60.8200   48.8295   21.4815 C.3       3 GLC5        0.0000 
     13 CA         61.8700   48.9670   19.5270 C.3       9 GLL5        0.0000 
     14 CA         59.7700   48.6920   23.4360 C.3       6 GLP5        0.0000 
     15 CA         63.6160   50.1920   19.5545 C.3       3 GLC5        0.0000 
     16 CA         65.3620   51.4170   19.5820 C.3       6 GLP5        0.0000 
     17 CA         62.2300   46.2985   16.4490 C.3       3 GLC5        0.0000 
     18 CA         61.3630   47.2380   17.8420 C.3       9 GLL5        0.0000 
     19 CA         63.0970   45.3590   15.0560 C.3       6 GLP5        0.0000 
     20 CA         61.2815   48.4850   15.0485 C.3       3 GLC5        0.0000 
     21 CA         60.6120   48.1720   17.1060 C.3       9 GLL5        0.0000 
     22 CA         61.9510   48.7980   12.9910 C.3       6 GLP5        0.0000 
     23 CA         61.0365   46.6545   15.7200 C.3       3 GLC5        0.0000 
     24 CA         61.4610   45.1370   14.3340 C.3       6 GLP5        0.0000 
     25 CA         64.3855   49.7990   22.6775 C.3       3 GLC5        0.0000 
     26 CA         63.5190   48.6280   21.2510 C.3       9 GLL5        0.0000 
     27 CA         65.2520   50.9700   24.1040 C.3       6 GLP5        0.0000 
     28 CA         64.4405   50.0225   20.4165 C.3       3 GLC5        0.0000 
     29 CA         63.5460   45.9565   22.8570 C.3       3 GLC5        0.0000 
     30 CA         63.1140   47.1510   21.2480 C.3       9 GLL5        0.0000 
     31 CA         63.9780   44.7620   24.4660 C.3       6 GLP5        0.0000 
     32 N          62.9475   44.3990   17.5300 N.am      2 SEC2        0.0000 
     33 N          63.5880   45.4420   18.0970 N.am      8 SEL2        0.0000 
     34 N          62.3070   43.3560   16.9630 N.am      5 SEP2        0.0000 
     35 O          63.3370   44.7905   21.4520 O.2       1 ALC1        0.0000 
     36 O          64.3040   44.9100   20.1860 O.2       7 ALL1        0.0000 
     37 O          62.3700   44.6710   22.7180 O.2       4 ALP1        0.0000 
     38 CA         66.1200   45.6345   17.6810 C.3       3 GLC5        0.0000 
     39 CA         65.9500   43.8160   18.7300 C.3       9 GLL5        0.0000 
     40 CA         66.2900   47.4530   16.6320 C.3       6 GLP5        0.0000 
     41 CA         64.5205   43.7030   22.5855 C.3       3 GLC5        0.0000 
     42 CA         65.0630   42.6440   20.7050 C.3       9 GLL5        0.0000 
     43 CA         68.6220   39.6540   17.4390 C.3       3 GLC5        0.0000 
     44 CA         67.6740   40.1750   18.8710 C.3       9 GLL5        0.0000 
     45 CA         69.5700   39.1330   16.0070 C.3       6 GLP5        0.0000 
     46 CA         66.3825   39.4715   17.4495 C.3       3 GLC5        0.0000 
     47 CA         65.0910   38.7680   16.0280 C.3       6 GLP5        0.0000 
     48 CA         55.1745   51.9920   14.9910 C.3       3 GLC5        0.0000 
     49 CA         55.3930   50.0490   14.1360 C.3       9 GLL5        0.0000 
     50 CA         56.3175   48.6765   14.8235 C.3       3 GLC5        0.0000 
     51 CA         57.2420   47.3040   15.5110 C.3       6 GLP5        0.0000 
     52 CA         56.1805   54.9125   12.5465 C.3       3 GLC5        0.0000 
     53 CA         57.1690   54.0300   10.8750 C.3       9 GLL5        0.0000 
     54 CA         55.1920   55.7950   14.2180 C.3       6 GLP5        0.0000 
     55 CA         58.1040   55.5820   11.2345 C.3       3 GLC5        0.0000 
     56 CA         59.0390   57.1340   11.5940 C.3       6 GLP5        0.0000 
     57 CA         57.5875   52.1790    9.8550 C.3       3 GLC5        0.0000 
     58 CA         58.0060   50.3280    8.8350 C.3       6 GLP5        0.0000 
     59 CA         57.8120   53.7682   14.0265 C.3       3 GLC5        0.0000 
     60 CA         57.7490   52.3500   12.5160 C.3       9 GLL5        0.0000 
     61 CA         57.1660   55.0710   15.5690 C.3       6 GLP5        0.0000 
     62 CA         58.2320   51.3967   10.6595 C.3       3 GLC5        0.0000 
     63 CA         61.2533   52.1328   11.6865 C.3       3 GLC5        0.0000 
     64 CA         59.1670   52.5810   12.4520 C.3       9 GLL5        0.0000 
     65 CA         62.9080   51.8930   10.3980 C.3       6 GLP5        0.0000 
     66 CA         57.9672   53.2223   15.1293 C.3       3 GLC5        0.0000 
     67 CA         59.4740   51.4910   14.6530 C.3       9 GLL5        0.0000 
     68 CA         60.6200   52.8340   16.1955 C.3       3 GLC5        0.0000 
     69 CA         60.3300   51.0670   15.7210 C.3       9 GLL5        0.0000 
     70 CA         61.3380   54.3890   17.2040 C.3       6 GLP5        0.0000 
     71 CA         61.6615   53.0207   16.1195 C.3       3 GLC5        0.0000 
     72 CA         61.7420   51.3240   15.6100 C.3       9 GLL5        0.0000 
     73 CA         63.8185   50.6228   15.2750 C.3       3 GLC5        0.0000 
     74 CA         65.6520   49.5930   15.5150 C.3       6 GLP5        0.0000 
     75 CA         58.8441   51.9456   16.9711 C.3       3 GLC5        0.0000 
     76 CA         58.1390   52.6710   18.7370 C.3       6 GLP5        0.0000 
     77 CA         59.1705   50.1200   19.0343 C.3       3 GLC5        0.0000 
     78 CA         60.4870   49.5010   17.5690 C.3       9 GLL5        0.0000 
     79 CA         57.5390   50.5460   19.8940 C.3       6 GLP5        0.0000 
     80 CA         61.5433   48.2908   22.3427 C.3       3 GLC5        0.0000 
     81 CA         65.1753   47.6842   21.7293 C.3       3 GLC5        0.0000 
     82 CA         67.0340   47.4790   22.2090 C.3       6 GLP5        0.0000 
     83 CA         63.8068   42.7003   18.9855 C.3       3 GLC5        0.0000 
     84 CA         62.0920   41.5900   18.6670 C.3       6 GLP5        0.0000 
     85 CA         65.1120   43.6538   16.9155 C.3       3 GLC5        0.0000 
     86 CA         63.8720   44.0550   15.2580 C.3       6 GLP5        0.0000 
     87 CA         67.1924   44.5589   19.7960 C.3       3 GLC5        0.0000 
     88 CA         66.7540   42.6890   18.4160 C.3       9 GLL5        0.0000 
     89 CA         68.2470   45.8680   20.7320 C.3       6 GLP5        0.0000 
     90 CA         68.9230   41.2317   19.8845 C.3       3 GLC5        0.0000 
     91 CA         66.7020   41.5500   19.2530 C.3       9 GLL5        0.0000 
     92 CA         70.6580   41.6010   20.7070 C.3       6 GLP5        0.0000 
     93 CA         63.7790   41.8340   19.6082 C.3       3 GLC5        0.0000 
     94 CA         65.8690   41.5120   20.3940 C.3       9 GLL5        0.0000 
     95 CA         61.4820   50.1739   13.9788 C.3       3 GLC5        0.0000 
@<TRIPOS>BOND
@<TRIPOS>SUBSTRUCTURE
     1 ALC1       35 GROUP        1 X    ALC  0     ROOT ALC X 1
     2 SEC2        4 GROUP        1 X    SEC  0     **** SEC X 2
     3 GLC5        1 GROUP        1 X    GLC  0     **** GLC X 6
     4 ALP1       37 GROUP        1 Y    ALP  0     ROOT ALP Y 8
     5 SEP2        6 GROUP        1 Y    SEP  0     **** SEP Y 9
     6 GLP5        3 GROUP        1 Y    GLP  0     **** GLP Y 13
     7 ALL1       36 GROUP        1 Z    ALL  0     ROOT ALL Z 15
     8 SEL2        5 GROUP        1 Z    SEL  0     **** SEL Z 16
     9 GLL5        2 GROUP        1 Z    GLL  0     **** GLL Z 20
@<TRIPOS>SET

