#    Name: 2rl5_2RL_1_ligand
#    Modification time : Tue Mar 25 00:04:24 2014

@<TRIPOS>MOLECULE
2rl5_2RL_1_ligand
   57    61     1     0     0
SMALL
NO_CHARGES


@<TRIPOS>ATOM
      1 C1         57.7490   52.3500   12.5160 C.ar      1 2RL501      0.0000 
      2 C2         59.1670   52.5810   12.4520 C.ar      1 2RL501      0.0000 
      3 C3         60.0300   52.1640   13.4980 C.ar      1 2RL501      0.0000 
      4 C4         59.4740   51.4910   14.6530 C.ar      1 2RL501      0.0000 
      5 C5         58.0630   51.2560   14.7260 C.ar      1 2RL501      0.0000 
      6 C6         57.1940   51.6760   13.6700 C.ar      1 2RL501      0.0000 
      7 N7         61.4000   52.3800   13.4540 N.ar      1 2RL501      0.0000 
      8 C8         62.2280   51.9810   14.4600 C.ar      1 2RL501      0.0000 
      9 C9         61.7420   51.3240   15.6100 C.ar      1 2RL501      0.0000 
     10 C10        60.3300   51.0670   15.7210 C.ar      1 2RL501      0.0000 
     11 O11        59.7340   50.4220   16.8350 O.3       1 2RL501      0.0000 
     12 C12        60.4870   49.5010   17.5690 C.ar      1 2RL501      0.0000 
     13 C13        61.1170   49.8870   18.7800 C.ar      1 2RL501      0.0000 
     14 C14        61.8700   48.9670   19.5270 C.ar      1 2RL501      0.0000 
     15 C15        62.0170   47.6010   19.0700 C.ar      1 2RL501      0.0000 
     16 C16        61.3630   47.2380   17.8420 C.ar      1 2RL501      0.0000 
     17 C17        60.6120   48.1720   17.1060 C.ar      1 2RL501      0.0000 
     18 O25        62.4570   49.4490   20.7280 O.3       1 2RL501      0.0000 
     19 C26        63.5190   48.6280   21.2510 C.3       1 2RL501      0.0000 
     20 C27        63.1140   47.1510   21.2480 C.3       1 2RL501      0.0000 
     21 N28        62.7920   46.7140   19.8650 N.am      1 2RL501      0.0000 
     22 O33        55.8180   51.3850   13.8690 O.3       1 2RL501      0.0000 
     23 O34        56.8940   52.7640   11.4740 O.3       1 2RL501      0.0000 
     24 C35        63.5620   45.6700   19.3080 C.2       1 2RL501      0.0000 
     25 O36        63.5880   45.4420   18.0970 O.2       1 2RL501      0.0000 
     26 N37        64.3040   44.9100   20.1860 N.am      1 2RL501      0.0000 
     27 C38        65.0930   43.8050   19.8780 C.ar      1 2RL501      0.0000 
     28 C39        65.9500   43.8160   18.7300 C.ar      1 2RL501      0.0000 
     29 C40        66.7540   42.6890   18.4160 C.ar      1 2RL501      0.0000 
     30 C41        66.7020   41.5500   19.2530 C.ar      1 2RL501      0.0000 
     31 C42        65.8690   41.5120   20.3940 C.ar      1 2RL501      0.0000 
     32 C43        65.0630   42.6440   20.7050 C.ar      1 2RL501      0.0000 
     33 CL48       67.6740   40.1750   18.8710 Cl        1 2RL501      0.0000 
     34 C49        55.3930   50.0490   14.1360 C.3       1 2RL501      0.0000 
     35 C53        57.1690   54.0300   10.8750 C.3       1 2RL501      0.0000 
     36 H          59.5539   53.0572   11.6306 H         1 2RL501      0.0000 
     37 H          57.6732   50.7828   15.5421 H         1 2RL501      0.0000 
     38 H          63.2544   52.1570   14.3974 H         1 2RL501      0.0000 
     39 H          62.3637   51.0337   16.3501 H         1 2RL501      0.0000 
     40 H          61.0170   50.8555   19.1100 H         1 2RL501      0.0000 
     41 H          61.4545   46.2704   17.5056 H         1 2RL501      0.0000 
     42 H          60.1554   47.8920   16.2355 H         1 2RL501      0.0000 
     43 H          63.7685   48.9051   22.2840 H         1 2RL501      0.0000 
     44 H          64.4340   48.7259   20.6515 H         1 2RL501      0.0000 
     45 H          62.2474   47.0273   21.8972 H         1 2RL501      0.0000 
     46 H          63.9397   46.5638   21.6497 H         1 2RL501      0.0000 
     47 H          64.2737   45.1982   21.2262 H         1 2RL501      0.0000 
     48 H          65.9787   44.6456   18.1352 H         1 2RL501      0.0000 
     49 H          67.3572   42.7026   17.6015 H         1 2RL501      0.0000 
     50 H          65.8421   40.6907   20.9873 H         1 2RL501      0.0000 
     51 H          64.4581   42.6248   21.5273 H         1 2RL501      0.0000 
     52 H          55.6357   49.4264   13.3921 H         1 2RL501      0.0000 
     53 H          55.8097   49.6863   14.9695 H         1 2RL501      0.0000 
     54 H          54.4018   49.9913   14.2549 H         1 2RL501      0.0000 
     55 H          58.0835   54.0591   10.4715 H         1 2RL501      0.0000 
     56 H          56.5197   54.2445   10.1454 H         1 2RL501      0.0000 
     57 H          57.1185   54.7746   11.5406 H         1 2RL501      0.0000 
@<TRIPOS>BOND
     1    2    1 ar   
     2    6    1 ar   
     3   23    1 1    
     4    3    2 ar   
     5   36    2 1    
     6    4    3 ar   
     7    7    3 ar   
     8    5    4 ar   
     9   10    4 ar   
    10    6    5 ar   
    11   37    5 1    
    12   22    6 1    
    13    8    7 ar   
    14    9    8 ar   
    15   38    8 1    
    16   10    9 ar   
    17   39    9 1    
    18   11   10 1    
    19   12   11 1    
    20   13   12 ar   
    21   17   12 ar   
    22   14   13 ar   
    23   40   13 1    
    24   15   14 ar   
    25   18   14 1    
    26   16   15 ar   
    27   21   15 1    
    28   17   16 ar   
    29   41   16 1    
    30   42   17 1    
    31   19   18 1    
    32   20   19 1    
    33   43   19 1    
    34   44   19 1    
    35   21   20 1    
    36   45   20 1    
    37   46   20 1    
    38   24   21 am   
    39   34   22 1    
    40   35   23 1    
    41   25   24 2    
    42   26   24 am   
    43   27   26 1    
    44   47   26 1    
    45   28   27 ar   
    46   32   27 ar   
    47   29   28 ar   
    48   48   28 1    
    49   30   29 ar   
    50   49   29 1    
    51   31   30 ar   
    52   33   30 1    
    53   32   31 ar   
    54   50   31 1    
    55   51   32 1    
    56   52   34 1    
    57   53   34 1    
    58   54   34 1    
    59   55   35 1    
    60   56   35 1    
    61   57   35 1    
@<TRIPOS>SUBSTRUCTURE
     1 2RL501      1 GROUP   
@<TRIPOS>SET

