#    Name: 2Z3H_3_CAVITY_N1_ALL.mol2
#    Modification time : Tue Mar 11 04:50:55 2014

@<TRIPOS>MOLECULE
2Z3H_3_CAVITY_N1_ALL.mol2
   76     0     6     0     0
SMALL
NO_CHARGES


@<TRIPOS>ATOM
      1 N          12.6810   28.5454  100.5482 N.2       2 ALA2        0.0000 
      2 DU         12.0310   30.7947   98.1466 H         6 CUB7        0.0000 
      3 DU         12.0897   29.4016   98.6997 H         6 CUB7        0.0000 
      4 N          12.1484   28.0085   99.2528 N.2       2 ALA2        0.0000 
      5 DU         11.3810   33.0440   95.7449 H         6 CUB7        0.0000 
      6 DU         11.4397   31.6509   96.2980 H         6 CUB7        0.0000 
      7 OG         11.4984   30.2578   96.8511 O.2       1 SER1        0.0000 
      8 OG         11.5571   28.8648   97.4042 O.2       1 SER1        0.0000 
      9 DU         10.7897   33.9002   93.8963 H         6 CUB7        0.0000 
     10 DU         10.8484   32.5071   94.4494 H         6 CUB7        0.0000 
     11 CA         10.9071   31.1141   95.0026 C.3       5 GLY6        0.0000 
     12 OG         10.9658   29.7210   95.5557 O.2       1 SER1        0.0000 
     13 N          10.1397   36.1495   91.4946 N.2       2 ALA2        0.0000 
     14 N          10.1983   34.7564   92.0477 N.2       2 ALA2        0.0000 
     15 DU         10.2570   33.3634   92.6009 H         6 CUB7        0.0000 
     16 CA         10.3157   31.9703   93.1540 C.3       5 GLY6        0.0000 
     17 CA         10.3744   30.5773   93.7071 C.3       5 GLY6        0.0000 
     18 N           9.6657   34.2196   90.7523 N.2       2 ALA2        0.0000 
     19 CA          9.7244   32.8266   91.3054 C.3       5 GLY6        0.0000 
     20 CA          9.7831   31.4335   91.8586 C.3       5 GLY6        0.0000 
     21 CA          9.1918   32.2898   90.0100 C.3       5 GLY6        0.0000 
     22 CA          9.2505   30.8967   90.5631 C.3       5 GLY6        0.0000 
     23 CZ         13.9059   32.5788   98.3732 C.ar      4 PHE5        0.0000 
     24 CZ         14.0233   29.7927   99.4795 C.ar      4 PHE5        0.0000 
     25 CZ         13.3733   32.0420   97.0778 C.ar      4 PHE5        0.0000 
     26 CZ         13.4320   30.6489   97.6309 C.ar      4 PHE5        0.0000 
     27 CZ         13.4907   29.2559   98.1840 C.ar      4 PHE5        0.0000 
     28 CZ         12.7820   32.8982   95.2292 C.ar      4 PHE5        0.0000 
     29 DU         12.8407   31.5052   95.7823 H         6 CUB7        0.0000 
     30 CZ         12.8994   30.1121   96.3355 C.ar      4 PHE5        0.0000 
     31 OG         12.9581   28.7191   96.8886 O.2       1 SER1        0.0000 
     32 CZ         12.1907   33.7545   93.3806 C.ar      4 PHE5        0.0000 
     33 CZ         12.2494   32.3614   93.9338 C.ar      4 PHE5        0.0000 
     34 DU         12.3081   30.9684   94.4869 H         6 CUB7        0.0000 
     35 OG         12.3668   29.5753   95.0400 O.2       1 SER1        0.0000 
     36 CA         11.5994   34.6107   91.5321 C.3       5 GLY6        0.0000 
     37 CZ         11.6581   33.2177   92.0852 C.ar      4 PHE5        0.0000 
     38 DU         11.7168   31.8246   92.6383 H         6 CUB7        0.0000 
     39 CA         11.7755   30.4316   93.1915 C.3       5 GLY6        0.0000 
     40 CA         11.8342   29.0385   93.7446 C.3       5 GLY6        0.0000 
     41 O          11.0668   34.0739   90.2366 O.2       2 ALA2        0.0000 
     42 DU         11.1255   32.6809   90.7898 H         6 CUB7        0.0000 
     43 CA         11.1841   31.2878   91.3429 C.3       5 GLY6        0.0000 
     44 CA         11.2428   29.8948   91.8960 C.3       5 GLY6        0.0000 
     45 NZ         10.5928   32.1441   89.4943 N.2       3 LYS4        0.0000 
     46 CA         10.6515   30.7510   90.0475 C.3       5 GLY6        0.0000 
     47 CZ         14.7743   31.8963   96.5621 C.ar      4 PHE5        0.0000 
     48 CZ         14.2417   31.3595   95.2667 C.ar      4 PHE5        0.0000 
     49 CZ         14.3004   29.9664   95.8198 C.ar      4 PHE5        0.0000 
     50 CZ         13.6504   32.2157   93.4181 C.ar      4 PHE5        0.0000 
     51 O          13.7091   30.8227   93.9713 O.2       2 ALA2        0.0000 
     52 CA         13.0591   33.0720   91.5696 C.3       5 GLY6        0.0000 
     53 CA         13.1178   31.6789   92.1227 C.3       5 GLY6        0.0000 
     54 O          13.1765   30.2859   92.6758 O.2       2 ALA2        0.0000 
     55 CA         12.5265   32.5352   90.2741 C.3       5 GLY6        0.0000 
     56 CA         12.5852   31.1421   90.8273 C.3       5 GLY6        0.0000 
     57 CA         12.6439   29.7490   91.3804 C.3       5 GLY6        0.0000 
     58 NZ         12.0526   30.6053   89.5318 N.2       3 LYS4        0.0000 
     59 CZ         15.6428   31.2138   94.7510 C.ar      4 PHE5        0.0000 
     60 CZ         15.1101   30.6770   93.4556 C.ar      4 PHE5        0.0000 
     61 CA         14.5775   30.1401   92.1602 C.3       5 GLY6        0.0000 
     62 CA          7.4550   33.6548   93.6322 C.3       5 GLY6        0.0000 
     63 CA          7.5137   32.2618   94.1853 C.3       5 GLY6        0.0000 
     64 CA          6.8637   34.5111   91.7836 C.3       5 GLY6        0.0000 
     65 N          10.7474   28.1543   99.7685 N.2       2 ALA2        0.0000 
     66 OG         10.1560   29.0105   97.9199 O.2       1 SER1        0.0000 
     67 DU          9.3886   34.0459   94.4119 H         6 CUB7        0.0000 
     68 DU          9.4473   32.6529   94.9651 H         6 CUB7        0.0000 
     69 O           9.5060   31.2598   95.5182 O.2       2 ALA2        0.0000 
     70 O           9.5647   29.8667   96.0713 O.2       2 ALA2        0.0000 
     71 DU          8.7973   34.9022   92.5634 H         6 CUB7        0.0000 
     72 CA          8.8560   33.5091   93.1165 C.3       5 GLY6        0.0000 
     73 CA          8.9147   32.1160   93.6696 C.3       5 GLY6        0.0000 
     74 CA          8.9734   30.7230   94.2228 C.3       5 GLY6        0.0000 
     75 N           8.2647   34.3653   91.2679 N.2       2 ALA2        0.0000 
     76 CA          8.3234   32.9723   91.8211 C.3       5 GLY6        0.0000 
@<TRIPOS>BOND
@<TRIPOS>SUBSTRUCTURE
     1 SER1        7 GROUP   
     2 ALA2        1 GROUP   
     3 LYS4       45 GROUP   
     4 PHE5       23 GROUP   
     5 GLY6       11 GROUP   
     6 CUB7        2 GROUP   
@<TRIPOS>SET

