#    Name: 2z3h_BLO_3_INTS_M
#    Modification time : Tue Mar 25 09:54:36 2014

@<TRIPOS>MOLECULE
2z3h_BLO_3_INTS_M
   69     0    18     0     0
SMALL
NO_CHARGES


@<TRIPOS>ATOM
      1 CA         14.4395   29.4415   98.5490 C.3       6 GLC5        0.0000 
      2 CA         12.6920   29.2030   99.3900 C.3      18 GLL5        0.0000 
      3 CA         16.1870   29.6800   97.7080 C.3      12 GLP5        0.0000 
      4 CA         14.6815   30.3570   99.5560 C.3       6 GLC5        0.0000 
      5 CA         13.1100   29.8370  100.7020 C.3      18 GLL5        0.0000 
      6 CA         16.2530   30.8770   98.4100 C.3      12 GLP5        0.0000 
      7 CA         13.2810   26.7090  101.6620 C.3       6 GLC5        0.0000 
      8 CA         13.7330   28.7170  101.5150 C.3      18 GLL5        0.0000 
      9 CA         12.8290   24.7010  101.8090 C.3      12 GLP5        0.0000 
     10 CA         16.6695   29.4475  100.6335 C.3       6 GLC5        0.0000 
     11 CA         15.2460   28.8660  101.5710 C.3      18 GLL5        0.0000 
     12 CA         18.0930   30.0290   99.6960 C.3      12 GLP5        0.0000 
     13 OD1        16.8100   25.0570  100.4980 O.co2     3 ASC3        0.0000 
     14 OD1        16.5110   26.7860  102.1080 O.co2    15 ASL3        0.0000 
     15 OD1        17.3840   23.8580  100.0700 O.co2     9 ASP3        0.0000 
     16 O          15.0475   26.0195  100.0435 O.2       1 ALC1        0.0000 
     17 O          16.2360   26.2560  100.9260 O.2      13 ALL1        0.0000 
     18 O          13.8590   25.7830   99.1610 O.2       7 ALP1        0.0000 
     19 O          16.8100   25.0570  100.4980 O.2       1 ALC1        0.0000 
     20 O          17.3840   23.8580  100.0700 O.2       7 ALP1        0.0000 
     21 CA         13.9680   28.8020   92.6980 C.3       6 GLC5        0.0000 
     22 CA         13.5330   30.6320   93.8190 C.3      18 GLL5        0.0000 
     23 CA         14.4030   26.9720   91.5770 C.3      12 GLP5        0.0000 
     24 CA         10.3260   29.1050   93.8540 C.3       6 GLC5        0.0000 
     25 CA         11.3140   29.8900   95.0960 C.3      18 GLL5        0.0000 
     26 CA          9.3380   28.3200   92.6120 C.3      12 GLP5        0.0000 
     27 NZ          8.2060   28.4720   95.9540 N.4       4 LYC4        0.0000 
     28 NZ          9.5620   28.9090   96.3180 N.4      16 LYL4        0.0000 
     29 NZ          5.9740   28.9990   95.8530 N.4      10 LYP4        0.0000 
     30 N          10.2520   27.8035   96.1355 N.am      2 SEC2        0.0000 
     31 N           9.5620   28.9090   96.3180 N.am     14 SEL2        0.0000 
     32 N          10.9420   26.6980   95.9530 N.am      8 SEP2        0.0000 
     33 N           8.2060   28.4720   95.9540 N.am      2 SEC2        0.0000 
     34 N           6.8500   28.0350   95.5900 N.am      8 SEP2        0.0000 
     35 N           7.9685   29.5870   96.1170 N.am      2 SEC2        0.0000 
     36 N           6.3750   30.2650   95.9160 N.am      8 SEP2        0.0000 
     37 NZ          7.7875   30.5815   95.6790 N.4       4 LYC4        0.0000 
     38 NZ          9.2000   30.8980   95.4420 N.4      16 LYL4        0.0000 
     39 N           7.7875   30.5815   95.6790 N.am      2 SEC2        0.0000 
     40 N           9.2000   30.8980   95.4420 N.am     14 SEL2        0.0000 
     41 CA         10.8870   29.5295   92.8900 C.3       6 GLC5        0.0000 
     42 CA         12.4360   30.7390   93.1680 C.3      18 GLL5        0.0000 
     43 CA         12.7645   35.2400   90.5510 C.3       6 GLC5        0.0000 
     44 CA         12.2330   33.5710   91.1040 C.3      18 GLL5        0.0000 
     45 CA         13.2960   36.9090   89.9980 C.3      12 GLP5        0.0000 
     46 Zn         13.4435   33.9805   88.7125 Zn        5 ZIC7        0.0000 
     47 Zn         12.2910   33.8120   88.7680 Zn       17 ZIL7        0.0000 
     48 Zn         14.5960   34.1490   88.6570 Zn       11 ZIP7        0.0000 
     49 N          12.0340   35.1345   88.4325 N.am      2 SEC2        0.0000 
     50 N          12.2910   33.8120   88.7680 N.am     14 SEL2        0.0000 
     51 N          11.7770   36.4570   88.0970 N.am      8 SEP2        0.0000 
     52 O          12.3035   32.3165   87.8870 O.2       1 ALC1        0.0000 
     53 O          12.2910   33.8120   88.7680 O.2      13 ALL1        0.0000 
     54 O          12.3160   30.8210   87.0060 O.2       7 ALP1        0.0000 
     55 O          11.5030   32.9860   87.5340 O.2       1 ALC1        0.0000 
     56 O          10.7150   32.1600   86.3000 O.2       7 ALP1        0.0000 
     57 N          12.3365   31.2475   88.3260 N.am      2 SEC2        0.0000 
     58 N          12.3570   31.6740   89.6460 N.am     14 SEL2        0.0000 
     59 N          12.3160   30.8210   87.0060 N.am      8 SEP2        0.0000 
     60 N          13.4095   28.9345   89.4975 N.am      2 SEC2        0.0000 
     61 N          12.5210   29.5940   90.5020 N.am     14 SEL2        0.0000 
     62 N          14.2980   28.2750   88.4930 N.am      8 SEP2        0.0000 
     63 CA         14.5550   30.2515   96.6005 C.3       6 GLC5        0.0000 
     64 CA         13.5350   30.9410   95.0570 C.3      18 GLL5        0.0000 
     65 CA         14.7950   32.3377   94.3325 C.3       6 GLC5        0.0000 
     66 CA         16.0560   33.8890   94.2270 C.3      12 GLP5        0.0000 
     67 CA         13.8560   32.8072   90.8380 C.3       6 GLC5        0.0000 
     68 CA         12.2690   32.6840   92.1560 C.3      18 GLL5        0.0000 
     69 CA         15.4610   32.4870   90.0460 C.3      12 GLP5        0.0000 
@<TRIPOS>BOND
@<TRIPOS>SUBSTRUCTURE
     1 ALC1       16 GROUP        1 X    ALC  0     ROOT ALC X 1
     2 SEC2       30 GROUP        1 X    SEC  0     **** SEC X 2
     3 ASC3       13 GROUP        1 X    ASC  0     **** ASC X 3
     4 LYC4       27 GROUP        1 X    LYC  0     **** LYC X 4
     5 ZIC7       46 GROUP        1 X    ZIC  0     **** ZIC X 5
     6 GLC5        1 GROUP        1 X    GLC  0     **** GLC X 6
     7 ALP1       18 GROUP        1 Y    ALP  0     ROOT ALP Y 8
     8 SEP2       32 GROUP        1 Y    SEP  0     **** SEP Y 9
     9 ASP3       15 GROUP        1 Y    ASP  0     **** ASP Y 10
    10 LYP4       29 GROUP        1 Y    LYP  0     **** LYP Y 11
    11 ZIP7       48 GROUP        1 Y    ZIP  0     **** ZIP Y 12
    12 GLP5        3 GROUP        1 Y    GLP  0     **** GLP Y 13
    13 ALL1       17 GROUP        1 Z    ALL  0     ROOT ALL Z 15
    14 SEL2       31 GROUP        1 Z    SEL  0     **** SEL Z 16
    15 ASL3       14 GROUP        1 Z    ASL  0     **** ASL Z 17
    16 LYL4       28 GROUP        1 Z    LYL  0     **** LYL Z 18
    17 ZIL7       47 GROUP        1 Z    ZIL  0     **** ZIL Z 19
    18 GLL5        2 GROUP        1 Z    GLL  0     **** GLL Z 20
@<TRIPOS>SET

