#    Name: 2z3h_BLO_3_ligand
#    Modification time : Tue Mar 25 09:54:36 2014

@<TRIPOS>MOLECULE
2z3h_BLO_3_ligand
   56    57     1     0     0
SMALL
NO_CHARGES


@<TRIPOS>ATOM
      1 O7         11.9700   31.3600   98.6470 O.2       1 BLO2502     0.0000 
      2 C7         12.3770   30.2500   98.3450 C.2       1 BLO2502     0.0000 
      3 C8         12.6920   29.2030   99.3900 C.3       1 BLO2502     0.0000 
      4 C9         13.1100   29.8370  100.7020 C.3       1 BLO2502     0.0000 
      5 C10        13.7330   28.7170  101.5150 C.3       1 BLO2502     0.0000 
      6 C11        15.2460   28.8660  101.5710 C.3       1 BLO2502     0.0000 
      7 N12        15.7830   27.9110  102.5540 N.pl3     1 BLO2502     0.0000 
      8 C14        16.5110   26.7860  102.1080 C.cat     1 BLO2502     0.0000 
      9 N15        16.2360   26.2560  100.9260 N.pl3     1 BLO2502     0.0000 
     10 N14        17.4790   26.2560  102.8640 N.pl3     1 BLO2502     0.0000 
     11 C13        15.5790   28.1440  103.9990 C.3       1 BLO2502     0.0000 
     12 N9         11.9100   30.3010  101.3730 N.4       1 BLO2502     0.0000 
     13 N6         12.5710   29.8570   97.0900 N.am      1 BLO2502     0.0000 
     14 C4'        12.3110   30.7050   95.9290 C.3       1 BLO2502     0.0000 
     15 C3'        13.5350   30.9410   95.0570 C.2       1 BLO2502     0.0000 
     16 C2'        13.5330   30.6320   93.8190 C.2       1 BLO2502     0.0000 
     17 C5'        11.3140   29.8900   95.0960 C.3       1 BLO2502     0.0000 
     18 C6'         9.9280   29.9010   95.6710 C.2       1 BLO2502     0.0000 
     19 O3          9.5620   28.9090   96.3180 O.co2     1 BLO2502     0.0000 
     20 O4          9.2000   30.8980   95.4420 O.co2     1 BLO2502     0.0000 
     21 O5'        11.1880   30.4660   93.8090 O.3       1 BLO2502     0.0000 
     22 C1'        12.4360   30.7390   93.1680 C.3       1 BLO2502     0.0000 
     23 N1         12.3860   31.3600   91.9570 N.am      1 BLO2502     0.0000 
     24 C6         12.2690   32.6840   92.1560 C.2       1 BLO2502     0.0000 
     25 C5         12.2330   33.5710   91.1040 C.2       1 BLO2502     0.0000 
     26 C4         12.2900   33.0150   89.8290 C.2       1 BLO2502     0.0000 
     27 O1         12.2910   33.8120   88.7680 O.3       1 BLO2502     0.0000 
     28 N3         12.3570   31.6740   89.6460 N.2       1 BLO2502     0.0000 
     29 C2         12.4310   30.8290   90.7090 C.2       1 BLO2502     0.0000 
     30 O2         12.5210   29.5940   90.5020 O.2       1 BLO2502     0.0000 
     31 H          13.4995   28.5594   99.0272 H         1 BLO2502     0.0000 
     32 H          11.8085   28.5789   99.5565 H         1 BLO2502     0.0000 
     33 H          13.8048   30.5894  100.5297 H         1 BLO2502     0.0000 
     34 H          13.4827   27.7574  101.0612 H         1 BLO2502     0.0000 
     35 H          13.3317   28.7388  102.5288 H         1 BLO2502     0.0000 
     36 H          15.4856   29.8878  101.8570 H         1 BLO2502     0.0000 
     37 H          15.6529   28.6691  100.5816 H         1 BLO2502     0.0000 
     38 H          15.5249   26.7144  100.3929 H         1 BLO2502     0.0000 
     39 H          16.7644   25.4454  100.6736 H         1 BLO2502     0.0000 
     40 H          17.9507   25.4615  102.4816 H         1 BLO2502     0.0000 
     41 H          17.6441   26.7018  103.7438 H         1 BLO2502     0.0000 
     42 H          12.9300   28.8927   96.8640 H         1 BLO2502     0.0000 
     43 H          11.8514   31.6112   96.1917 H         1 BLO2502     0.0000 
     44 H          14.3296   31.3645   95.5764 H         1 BLO2502     0.0000 
     45 H          14.4123   30.2966   93.3421 H         1 BLO2502     0.0000 
     46 H          11.6573   28.8767   95.0295 H         1 BLO2502     0.0000 
     47 H          12.4921   29.4763   92.6133 H         1 BLO2502     0.0000 
     48 H          12.2025   33.0648   93.1317 H         1 BLO2502     0.0000 
     49 H          12.1693   34.5638   91.2405 H         1 BLO2502     0.0000 
     50 H          15.9926   27.4220  104.5536 H         1 BLO2502     0.0000 
     51 H          15.9824   29.0094  104.2962 H         1 BLO2502     0.0000 
     52 H          14.6082   28.1763  104.2366 H         1 BLO2502     0.0000 
     53 H          12.1181   30.7286  102.2527 H         1 BLO2502     0.0000 
     54 H          11.4176   30.9787  100.8269 H         1 BLO2502     0.0000 
     55 H          11.2728   29.5520  101.5546 H         1 BLO2502     0.0000 
     56 H          12.0887   33.2123   87.9938 H         1 BLO2502     0.0000 
@<TRIPOS>BOND
     1    2    1 2    
     2    3    2 1    
     3   13    2 am   
     4    4    3 1    
     5   31    3 1    
     6   32    3 1    
     7    5    4 1    
     8   12    4 1    
     9   33    4 1    
    10    6    5 1    
    11   34    5 1    
    12   35    5 1    
    13    7    6 1    
    14   36    6 1    
    15   37    6 1    
    16    8    7 ar   
    17   11    7 1    
    18    9    8 ar   
    19   10    8 ar   
    20   38    9 1    
    21   39    9 1    
    22   40   10 1    
    23   41   10 1    
    24   50   11 1    
    25   51   11 1    
    26   52   11 1    
    27   53   12 1    
    28   54   12 1    
    29   55   12 1    
    30   14   13 1    
    31   42   13 1    
    32   15   14 1    
    33   17   14 1    
    34   43   14 1    
    35   16   15 2    
    36   44   15 1    
    37   22   16 1    
    38   45   16 1    
    39   18   17 1    
    40   21   17 1    
    41   46   17 1    
    42   19   18 ar   
    43   20   18 ar   
    44   22   21 1    
    45   23   22 1    
    46   47   22 1    
    47   24   23 1    
    48   29   23 am   
    49   25   24 2    
    50   48   24 1    
    51   26   25 1    
    52   49   25 1    
    53   27   26 1    
    54   28   26 2    
    55   56   27 1    
    56   29   28 1    
    57   30   29 2    
@<TRIPOS>SUBSTRUCTURE
     1 BLO2502     1 GROUP   
@<TRIPOS>SET

