#    Name: 2cye_COA_4_INTS_M
#    Modification time : Tue Mar 25 01:22:28 2014

@<TRIPOS>MOLECULE
2cye_COA_4_INTS_M
   82     0     9     0     0
SMALL
NO_CHARGES


@<TRIPOS>ATOM
      1 CA          9.9350   31.4595   47.3005 C.3       3 GLC5        0.0000 
      2 CA          9.0660   29.6100   47.5350 C.3       9 GLL5        0.0000 
      3 CA         10.8040   33.3090   47.0660 C.3       6 GLP5        0.0000 
      4 CA         11.0320   29.4295   47.1385 C.3       3 GLC5        0.0000 
      5 CA         12.9980   29.2490   46.7420 C.3       6 GLP5        0.0000 
      6 CA         10.1390   27.7080   45.7530 C.3       3 GLC5        0.0000 
      7 CA          8.1150   28.1290   46.0310 C.3       9 GLL5        0.0000 
      8 CA         12.1630   27.2870   45.4750 C.3       6 GLP5        0.0000 
      9 CA          9.5130   31.4615   45.1935 C.3       3 GLC5        0.0000 
     10 CA          7.9560   30.4850   45.6920 C.3       9 GLL5        0.0000 
     11 CA         11.0700   32.4380   44.6950 C.3       6 GLP5        0.0000 
     12 O           7.6560   32.8620   45.2970 O.2       1 ALC1        0.0000 
     13 O           7.5020   31.5300   45.0050 O.2       7 ALL1        0.0000 
     14 O           7.8100   34.1940   45.5890 O.2       4 ALP1        0.0000 
     15 N          10.1615   22.9835   47.0675 N.am      2 SEC2        0.0000 
     16 N           8.5510   22.9890   47.0010 N.am      8 SEL2        0.0000 
     17 N          11.7720   22.9780   47.1340 N.am      5 SEP2        0.0000 
     18 N           9.2840   19.6775   45.7760 N.am      2 SEC2        0.0000 
     19 N           8.2170   20.5540   46.2320 N.am      8 SEL2        0.0000 
     20 N          10.3510   18.8010   45.3200 N.am      5 SEP2        0.0000 
     21 N           8.4210   20.5920   44.9330 N.am      2 SEC2        0.0000 
     22 N           8.6250   20.6300   43.6340 N.am      5 SEP2        0.0000 
     23 N          10.7400   19.9445   48.0005 N.am      2 SEC2        0.0000 
     24 N          10.0920   21.1690   47.9170 N.am      8 SEL2        0.0000 
     25 N          11.3880   18.7200   48.0840 N.am      5 SEP2        0.0000 
     26 N          10.8870   21.0780   46.4225 N.am      2 SEC2        0.0000 
     27 N          11.6820   20.9870   44.9280 N.am      5 SEP2        0.0000 
     28 N          10.9320   22.0735   47.5255 N.am      2 SEC2        0.0000 
     29 CA          5.4815   24.1530   40.4850 C.3       3 GLC5        0.0000 
     30 CA          5.5050   26.2250   40.7690 C.3       9 GLL5        0.0000 
     31 CA          5.4580   22.0810   40.2010 C.3       6 GLP5        0.0000 
     32 CA          8.1335   25.6075   37.7625 C.3       3 GLC5        0.0000 
     33 CA          6.1090   25.3290   38.5160 C.3       9 GLL5        0.0000 
     34 CA         10.1580   25.8860   37.0090 C.3       6 GLP5        0.0000 
     35 CA          7.6870   24.2630   39.6355 C.3       3 GLC5        0.0000 
     36 CA          9.2650   23.1970   40.7550 C.3       6 GLP5        0.0000 
     37 CA          7.1075   23.8700   37.7980 C.3       3 GLC5        0.0000 
     38 CA          8.1060   22.4110   37.0800 C.3       6 GLP5        0.0000 
     39 CA          5.7835   23.7050   39.3585 C.3       3 GLC5        0.0000 
     40 CA          8.8600   26.4555   38.3220 C.3       3 GLC5        0.0000 
     41 CA          7.5620   27.0250   39.6350 C.3       9 GLL5        0.0000 
     42 CA          8.6635   27.8635   40.8210 C.3       3 GLC5        0.0000 
     43 CA          9.7650   28.7020   42.0070 C.3       6 GLP5        0.0000 
     44 CA          8.8425   26.1060   40.8360 C.3       3 GLC5        0.0000 
     45 CA         10.1230   25.1870   42.0370 C.3       6 GLP5        0.0000 
     46 O           5.8235   30.0565   39.6905 O.2       1 ALC1        0.0000 
     47 O           5.0210   28.7320   39.6770 O.2       7 ALL1        0.0000 
     48 O           6.6260   31.3810   39.7040 O.2       4 ALP1        0.0000 
     49 O           6.3135   30.5550   38.6295 O.2       1 ALC1        0.0000 
     50 O           6.0010   29.7290   37.5550 O.2       7 ALL1        0.0000 
     51 CA          5.3710   31.2790   37.8590 C.3       3 GLC5        0.0000 
     52 CA          6.7630   30.3140   36.4410 C.3       9 GLL5        0.0000 
     53 CA          3.9790   32.2440   39.2770 C.3       6 GLP5        0.0000 
     54 CA          5.1285   30.8705   36.0210 C.3       3 GLC5        0.0000 
     55 CA          3.4940   31.4270   35.6010 C.3       6 GLP5        0.0000 
     56 CA          5.5970   29.9015   34.9830 C.3       3 GLC5        0.0000 
     57 CA          4.4310   29.4890   33.5250 C.3       6 GLP5        0.0000 
     58 O          10.7220   30.6840   37.1710 O.2       1 ALC1        0.0000 
     59 O          10.4850   30.8030   35.8260 O.2       7 ALL1        0.0000 
     60 O          10.9590   30.5650   38.5160 O.2       4 ALP1        0.0000 
     61 CA         12.5395   31.3180   36.6330 C.3       3 GLC5        0.0000 
     62 CA         11.2120   31.7850   35.0080 C.3       9 GLL5        0.0000 
     63 CA         13.8670   30.8510   38.2580 C.3       6 GLP5        0.0000 
     64 CA         12.6080   33.4070   35.0400 C.3       3 GLC5        0.0000 
     65 CA         14.0040   35.0290   35.0720 C.3       6 GLP5        0.0000 
     66 CA         10.4145   33.5860   34.3420 C.3       3 GLC5        0.0000 
     67 CA          9.6170   35.3870   33.6760 C.3       6 GLP5        0.0000 
     68 CA         10.6955   33.2940   36.2395 C.3       3 GLC5        0.0000 
     69 CA         10.1790   34.8030   37.4710 C.3       6 GLP5        0.0000 
     70 CA         12.8125   28.1750   35.3740 C.3       3 GLC5        0.0000 
     71 CA         13.0880   29.8190   34.3180 C.3       9 GLL5        0.0000 
     72 CA         12.5370   26.5310   36.4300 C.3       6 GLP5        0.0000 
     73 CA         14.1695   30.1630   36.0165 C.3       3 GLC5        0.0000 
     74 CA         15.2510   30.5070   37.7150 C.3       6 GLP5        0.0000 
     75 CA          8.8453   29.1379   43.8376 C.3       3 GLC5        0.0000 
     76 CA          7.6750   29.1960   45.2580 C.3       9 GLL5        0.0000 
     77 CA          8.1327   31.6028   37.5425 C.3       3 GLC5        0.0000 
     78 CA          8.2680   30.0830   36.6030 C.3       9 GLL5        0.0000 
     79 CA          8.7500   33.0070   38.5630 C.3       6 GLP5        0.0000 
     80 CA         11.9090   30.1705   32.3660 C.3       3 GLC5        0.0000 
     81 CA         11.8580   31.0770   33.8140 C.3       9 GLL5        0.0000 
     82 CA         11.3450   29.8930   30.6660 C.3       6 GLP5        0.0000 
@<TRIPOS>BOND
@<TRIPOS>SUBSTRUCTURE
     1 ALC1       12 GROUP        1 X    ALC  0     ROOT ALC X 1
     2 SEC2       15 GROUP        1 X    SEC  0     **** SEC X 2
     3 GLC5        1 GROUP        1 X    GLC  0     **** GLC X 6
     4 ALP1       14 GROUP        1 Y    ALP  0     ROOT ALP Y 8
     5 SEP2       17 GROUP        1 Y    SEP  0     **** SEP Y 9
     6 GLP5        3 GROUP        1 Y    GLP  0     **** GLP Y 13
     7 ALL1       13 GROUP        1 Z    ALL  0     ROOT ALL Z 15
     8 SEL2       16 GROUP        1 Z    SEL  0     **** SEL Z 16
     9 GLL5        2 GROUP        1 Z    GLL  0     **** GLL Z 20
@<TRIPOS>SET

