#    Name: 2cye_COA_4_ligand
#    Modification time : Tue Mar 25 01:22:28 2014

@<TRIPOS>MOLECULE
2cye_COA_4_ligand
   79    81     1     0     0
SMALL
NO_CHARGES


@<TRIPOS>ATOM
      1 N1A         8.6530   30.6490   46.8260 N.ar      1 COA603      0.0000 
      2 C2A         9.0660   29.6100   47.5350 C.ar      1 COA603      0.0000 
      3 N3A         8.8040   28.3710   47.1560 N.ar      1 COA603      0.0000 
      4 C4A         8.1150   28.1290   46.0310 C.ar      1 COA603      0.0000 
      5 C5A         7.6750   29.1960   45.2580 C.ar      1 COA603      0.0000 
      6 C6A         7.9560   30.4850   45.6920 C.ar      1 COA603      0.0000 
      7 N6A         7.5020   31.5300   45.0050 N.pl3     1 COA603      0.0000 
      8 N7A         7.1060   28.7040   44.1630 N.2       1 COA603      0.0000 
      9 C8A         7.1870   27.3780   44.2380 C.2       1 COA603      0.0000 
     10 N9A         7.7840   27.0220   45.3740 N.pl3     1 COA603      0.0000 
     11 C1B         7.6840   25.8020   45.8980 C.3       1 COA603      0.0000 
     12 C2B         7.8120   25.2840   47.1850 C.3       1 COA603      0.0000 
     13 O2B         8.0370   25.9840   48.3290 O.3       1 COA603      0.0000 
     14 C3B         7.3900   23.8140   47.1260 C.3       1 COA603      0.0000 
     15 O3B         8.5510   22.9890   47.0010 O.3       1 COA603      0.0000 
     16 P3B         8.5610   21.4610   47.5160 P.3       1 COA603      0.0000 
     17 O7A         8.2170   20.5540   46.2320 O.co2     1 COA603      0.0000 
     18 O8A        10.0920   21.1690   47.9170 O.co2     1 COA603      0.0000 
     19 O9A         7.6270   21.2230   48.6400 O.co2     1 COA603      0.0000 
     20 C4B         6.6060   23.9520   45.8230 C.3       1 COA603      0.0000 
     21 O4B         7.5010   24.7570   45.0480 O.3       1 COA603      0.0000 
     22 C5B         6.2060   22.7380   44.9890 C.3       1 COA603      0.0000 
     23 O5B         5.5400   23.2670   43.8390 O.3       1 COA603      0.0000 
     24 P1A         3.9640   23.6030   43.8690 P.3       1 COA603      0.0000 
     25 O1A         3.2960   22.2920   44.0250 O.co2     1 COA603      0.0000 
     26 O2A         3.6690   24.6660   44.8560 O.co2     1 COA603      0.0000 
     27 O3A         3.7030   24.1370   42.3690 O.3       1 COA603      0.0000 
     28 P2A         3.2540   25.6400   41.9960 P.3       1 COA603      0.0000 
     29 O4A         1.8260   25.5870   41.6110 O.co2     1 COA603      0.0000 
     30 O5A         3.6630   26.5740   43.0700 O.co2     1 COA603      0.0000 
     31 O6A         4.1110   25.9300   40.6640 O.3       1 COA603      0.0000 
     32 CBP         6.1180   26.5710   39.4100 C.3       1 COA603      0.0000 
     33 CCP         5.5050   26.2250   40.7690 C.3       1 COA603      0.0000 
     34 CDP         6.1090   25.3290   38.5160 C.3       1 COA603      0.0000 
     35 CEP         7.5620   27.0250   39.6350 C.3       1 COA603      0.0000 
     36 CAP         5.3150   27.6910   38.7410 C.3       1 COA603      0.0000 
     37 OAP         5.0210   28.7320   39.6770 O.3       1 COA603      0.0000 
     38 C9P         6.0610   28.2610   37.5310 C.2       1 COA603      0.0000 
     39 O9P         5.4730   27.7580   36.3290 O.2       1 COA603      0.0000 
     40 N8P         6.0010   29.7290   37.5550 N.am      1 COA603      0.0000 
     41 C7P         6.7630   30.3140   36.4410 C.3       1 COA603      0.0000 
     42 C6P         8.2680   30.0830   36.6030 C.3       1 COA603      0.0000 
     43 C5P         9.0400   30.9320   35.5910 C.2       1 COA603      0.0000 
     44 O5P         8.7230   30.5150   34.2610 O.2       1 COA603      0.0000 
     45 N4P        10.4850   30.8030   35.8260 N.am      1 COA603      0.0000 
     46 C3P        11.2120   31.7850   35.0080 C.3       1 COA603      0.0000 
     47 C2P        11.8580   31.0770   33.8140 C.3       1 COA603      0.0000 
     48 S1P        13.0880   29.8190   34.3180 S.3       1 COA603      0.0000 
     49 H           9.6179   29.7759   48.4245 H         1 COA603      0.0000 
     50 H           7.7565   32.4313   45.3556 H         1 COA603      0.0000 
     51 H           6.9472   31.3199   44.2000 H         1 COA603      0.0000 
     52 H           6.8554   26.7529   43.5561 H         1 COA603      0.0000 
     53 H           6.2700   25.8891   46.0518 H         1 COA603      0.0000 
     54 H           9.1352   24.9188   46.9666 H         1 COA603      0.0000 
     55 H           6.7476   23.6284   47.8962 H         1 COA603      0.0000 
     56 H           5.7219   24.5651   46.0302 H         1 COA603      0.0000 
     57 H           5.5554   22.1182   45.5863 H         1 COA603      0.0000 
     58 H           7.1030   22.1986   44.7270 H         1 COA603      0.0000 
     59 H           6.0708   25.3700   41.1802 H         1 COA603      0.0000 
     60 H           5.6890   27.0803   41.4434 H         1 COA603      0.0000 
     61 H           4.3852   27.2459   38.3672 H         1 COA603      0.0000 
     62 H           5.5360   30.2303   38.1986 H         1 COA603      0.0000 
     63 H           6.5872   31.3965   36.3793 H         1 COA603      0.0000 
     64 H           6.4496   29.8729   35.4851 H         1 COA603      0.0000 
     65 H           8.4897   29.0345   36.4357 H         1 COA603      0.0000 
     66 H           8.5672   30.3612   37.6078 H         1 COA603      0.0000 
     67 H          10.8798   30.1933   36.4039 H         1 COA603      0.0000 
     68 H          11.9981   32.2667   35.5884 H         1 COA603      0.0000 
     69 H          10.5356   32.5503   34.6290 H         1 COA603      0.0000 
     70 H          12.4441   31.7258   33.1944 H         1 COA603      0.0000 
     71 H          11.1694   30.4955   33.2343 H         1 COA603      0.0000 
     72 H           6.5023   25.5164   37.6159 H         1 COA603      0.0000 
     73 H           6.6366   24.5796   38.9161 H         1 COA603      0.0000 
     74 H           5.1816   24.9867   38.3651 H         1 COA603      0.0000 
     75 H           8.1128   26.3108   40.0669 H         1 COA603      0.0000 
     76 H           8.0142   27.2645   38.7758 H         1 COA603      0.0000 
     77 H           7.6103   27.8302   40.2261 H         1 COA603      0.0000 
     78 H           8.3562   26.8814   48.0246 H         1 COA603      0.0000 
     79 H           5.7156   29.4322   39.5118 H         1 COA603      0.0000 
@<TRIPOS>BOND
     1    2    1 ar   
     2    6    1 ar   
     3    3    2 ar   
     4   49    2 1    
     5    4    3 ar   
     6    5    4 ar   
     7   10    4 1    
     8    6    5 ar   
     9    8    5 1    
    10    7    6 1    
    11   50    7 1    
    12   51    7 1    
    13    9    8 2    
    14   10    9 1    
    15   52    9 1    
    16   11   10 1    
    17   12   11 1    
    18   21   11 1    
    19   53   11 1    
    20   13   12 1    
    21   14   12 1    
    22   54   12 1    
    23   78   13 1    
    24   15   14 1    
    25   20   14 1    
    26   55   14 1    
    27   16   15 1    
    28   17   16 ar   
    29   18   16 ar   
    30   19   16 ar   
    31   21   20 1    
    32   22   20 1    
    33   56   20 1    
    34   23   22 1    
    35   57   22 1    
    36   58   22 1    
    37   24   23 1    
    38   25   24 ar   
    39   26   24 ar   
    40   27   24 1    
    41   28   27 1    
    42   29   28 ar   
    43   30   28 ar   
    44   31   28 1    
    45   33   31 1    
    46   33   32 1    
    47   34   32 1    
    48   35   32 1    
    49   36   32 1    
    50   59   33 1    
    51   60   33 1    
    52   72   34 1    
    53   73   34 1    
    54   74   34 1    
    55   75   35 1    
    56   76   35 1    
    57   77   35 1    
    58   37   36 1    
    59   38   36 1    
    60   61   36 1    
    61   79   37 1    
    62   39   38 2    
    63   40   38 am   
    64   41   40 1    
    65   62   40 1    
    66   42   41 1    
    67   63   41 1    
    68   64   41 1    
    69   43   42 1    
    70   65   42 1    
    71   66   42 1    
    72   44   43 2    
    73   45   43 am   
    74   46   45 1    
    75   67   45 1    
    76   47   46 1    
    77   68   46 1    
    78   69   46 1    
    79   48   47 1    
    80   70   47 1    
    81   71   47 1    
@<TRIPOS>SUBSTRUCTURE
     1 COA603      1 GROUP   
@<TRIPOS>SET

