#    Name: 3nw5_LGX_1_INTS_M
#    Modification time : Tue Mar 25 02:46:33 2014

@<TRIPOS>MOLECULE
3nw5_LGX_1_INTS_M
   60     0     9     0     0
SMALL
NO_CHARGES


@<TRIPOS>ATOM
      1 CA        -17.6810    8.5885   13.4730 C.3       3 GLC5        0.0000 
      2 CA        -16.7140    7.9300   11.7570 C.3       9 GLL5        0.0000 
      3 CA        -18.6480    9.2470   15.1890 C.3       6 GLP5        0.0000 
      4 O         -17.2650    5.8755   13.5345 O.2       1 ALC1        0.0000 
      5 O         -17.2140    4.9010   12.3830 O.2       7 ALL1        0.0000 
      6 O         -17.3160    6.8500   14.6860 O.2       4 ALP1        0.0000 
      7 CA        -15.3065    2.7455   13.1385 C.3       3 GLC5        0.0000 
      8 CA        -17.0840    2.1930   12.2070 C.3       9 GLL5        0.0000 
      9 CA        -13.5290    3.2980   14.0700 C.3       6 GLP5        0.0000 
     10 O         -19.0785    1.5865   15.0700 O.2       1 ALC1        0.0000 
     11 O         -18.2070    1.7890   14.0360 O.2       7 ALL1        0.0000 
     12 O         -19.9500    1.3840   16.1040 O.2       4 ALP1        0.0000 
     13 N         -18.5120    4.0680   15.0595 N.am      2 SEC2        0.0000 
     14 N         -18.1130    3.1250   13.8650 N.am      8 SEL2        0.0000 
     15 N         -18.9110    5.0110   16.2540 N.am      5 SEP2        0.0000 
     16 CA        -17.0540   -0.6025   15.0215 C.3       3 GLC5        0.0000 
     17 CA        -17.4920   -0.4050   12.9040 C.3       9 GLL5        0.0000 
     18 CA        -16.6160   -0.8000   17.1390 C.3       6 GLP5        0.0000 
     19 CA        -15.8085   -1.8600   13.1725 C.3       3 GLC5        0.0000 
     20 CA        -14.1250   -3.3150   13.4410 C.3       6 GLP5        0.0000 
     21 CA        -18.9360    0.4855    9.9525 C.3       3 GLC5        0.0000 
     22 CA        -18.5030   -0.4970   11.8160 C.3       9 GLL5        0.0000 
     23 CA        -19.3690    1.4680    8.0890 C.3       6 GLP5        0.0000 
     24 CA        -19.4035   -1.4105   13.1750 C.3       3 GLC5        0.0000 
     25 CA        -20.3040   -2.3240   14.5340 C.3       6 GLP5        0.0000 
     26 CA        -15.4715    2.6890    4.1220 C.3       3 GLC5        0.0000 
     27 CA        -15.1580    2.7800    6.3010 C.3       9 GLL5        0.0000 
     28 CA        -15.7850    2.5980    1.9430 C.3       6 GLP5        0.0000 
     29 CA        -15.1605    1.0795    5.0880 C.3       3 GLC5        0.0000 
     30 CA        -15.1630   -0.6210    3.8750 C.3       6 GLP5        0.0000 
     31 CA        -16.5550    1.5880    6.3145 C.3       3 GLC5        0.0000 
     32 CA        -17.9520    0.3960    6.3280 C.3       6 GLP5        0.0000 
     33 CA        -17.4565    4.3700    7.9065 C.3       3 GLC5        0.0000 
     34 CA        -15.7940    2.9990    7.6720 C.3       9 GLL5        0.0000 
     35 CA        -19.1190    5.7410    8.1410 C.3       6 GLP5        0.0000 
     36 CA        -17.3610    2.2640    7.1460 C.3       3 GLC5        0.0000 
     37 CA        -18.9280    1.5290    6.6200 C.3       6 GLP5        0.0000 
     38 CA        -18.2718    7.7041   10.5587 C.3       3 GLC5        0.0000 
     39 CA        -16.3160    6.7330   11.0890 C.3       9 GLL5        0.0000 
     40 CA        -20.1970    7.2590    9.9150 C.3       6 GLP5        0.0000 
     41 CA        -19.2233    1.7212   12.5495 C.3       3 GLC5        0.0000 
     42 CA        -21.1100    1.7760   12.4750 C.3       6 GLP5        0.0000 
     43 CA        -19.5538    0.6625   12.4175 C.3       3 GLC5        0.0000 
     44 CA        -17.7172   -2.1187   12.9355 C.3       3 GLC5        0.0000 
     45 CA        -18.1610   -3.7810   13.6720 C.3       6 GLP5        0.0000 
     46 CA        -18.4420   -1.6467   10.2945 C.3       3 GLC5        0.0000 
     47 CA        -19.1050   -2.7910    8.9340 C.3       6 GLP5        0.0000 
     48 CA        -15.8120    4.3860    5.1348 C.3       3 GLC5        0.0000 
     49 CA        -17.0460    5.4880    4.0230 C.3       6 GLP5        0.0000 
     50 CA        -10.7188    4.5315    5.5017 C.3       3 GLC5        0.0000 
     51 CA        -11.8470    6.0960    6.0390 C.3       9 GLL5        0.0000 
     52 CA         -9.7320    3.2930    4.3550 C.3       6 GLP5        0.0000 
     53 CA         -8.5898    4.5405    7.0147 C.3       3 GLC5        0.0000 
     54 CA        -10.2260    5.4810    7.6800 C.3       9 GLL5        0.0000 
     55 CA         -7.4580    3.2780    6.7170 C.3       6 GLP5        0.0000 
     56 CA         -9.4305    5.1655    4.8835 C.3       3 GLC5        0.0000 
     57 CA         -9.6190    6.7350    5.7540 C.3       9 GLL5        0.0000 
     58 CA        -14.8905    7.8625   12.0769 C.3       3 GLC5        0.0000 
     59 CA        -16.1780    8.9670   10.9820 C.3       9 GLL5        0.0000 
     60 CA        -13.6070    7.7110   13.2230 C.3       6 GLP5        0.0000 
@<TRIPOS>BOND
@<TRIPOS>SUBSTRUCTURE
     1 ALC1        4 GROUP        1 X    ALC  0     ROOT ALC X 1
     2 SEC2       13 GROUP        1 X    SEC  0     **** SEC X 2
     3 GLC5        1 GROUP        1 X    GLC  0     **** GLC X 6
     4 ALP1        6 GROUP        1 Y    ALP  0     ROOT ALP Y 8
     5 SEP2       15 GROUP        1 Y    SEP  0     **** SEP Y 9
     6 GLP5        3 GROUP        1 Y    GLP  0     **** GLP Y 13
     7 ALL1        5 GROUP        1 Z    ALL  0     ROOT ALL Z 15
     8 SEL2       14 GROUP        1 Z    SEL  0     **** SEL Z 16
     9 GLL5        2 GROUP        1 Z    GLL  0     **** GLL Z 20
@<TRIPOS>SET

