#    Name: 3nw5_LGX_1_ligand
#    Modification time : Tue Mar 25 02:46:33 2014

@<TRIPOS>MOLECULE
3nw5_LGX_1_ligand
   53    58     1     0     0
SMALL
NO_CHARGES


@<TRIPOS>ATOM
      1 N1        -15.5730    7.0780    9.9630 N.pl3     1 LGX1        0.0000 
      2 C2        -16.3160    6.7330   11.0890 C.2       1 LGX1        0.0000 
      3 C3        -16.7140    7.9300   11.7570 C.2       1 LGX1        0.0000 
      4 C4        -16.1780    8.9670   10.9820 C.2       1 LGX1        0.0000 
      5 C5        -15.4880    8.4260    9.8950 C.2       1 LGX1        0.0000 
      6 N6        -15.0710    6.1110    9.1440 N.2       1 LGX1        0.0000 
      7 C7        -15.2690    4.7880    9.3850 C.2       1 LGX1        0.0000 
      8 N8        -15.9770    4.4160   10.4580 N.2       1 LGX1        0.0000 
      9 C9        -16.4970    5.3510   11.3030 C.2       1 LGX1        0.0000 
     10 N10       -17.2140    4.9010   12.3830 N.pl3     1 LGX1        0.0000 
     11 C11       -17.4420    3.4820   12.7710 C.2       1 LGX1        0.0000 
     12 C12       -17.0840    2.1930   12.2070 C.2       1 LGX1        0.0000 
     13 C13       -17.5890    1.1400   13.0410 C.2       1 LGX1        0.0000 
     14 N14       -18.2070    1.7890   14.0360 N.pl3     1 LGX1        0.0000 
     15 N15       -18.1130    3.1250   13.8650 N.2       1 LGX1        0.0000 
     16 C16       -17.4920   -0.4050   12.9040 C.3       1 LGX1        0.0000 
     17 C17       -17.0550   -0.5080   11.4940 C.3       1 LGX1        0.0000 
     18 C18       -18.5030   -0.4970   11.8160 C.3       1 LGX1        0.0000 
     19 C19       -14.7260    3.7100    8.5000 C.3       1 LGX1        0.0000 
     20 N20       -13.6670    4.1200    7.5860 N.am      1 LGX1        0.0000 
     21 C21       -13.9980    3.7880    6.1920 C.3       1 LGX1        0.0000 
     22 C22       -15.1580    2.7800    6.3010 C.3       1 LGX1        0.0000 
     23 C23       -15.7940    2.9990    7.6720 C.3       1 LGX1        0.0000 
     24 C24       -12.5420    4.7370    8.1150 C.2       1 LGX1        0.0000 
     25 O25       -12.3600    4.6890    9.3360 O.2       1 LGX1        0.0000 
     26 C26       -11.5640    5.4440    7.2580 C.ar      1 LGX1        0.0000 
     27 C27       -10.2260    5.4810    7.6800 C.ar      1 LGX1        0.0000 
     28 C28        -9.2170    6.1250    6.9450 C.ar      1 LGX1        0.0000 
     29 C29        -9.6190    6.7350    5.7540 C.ar      1 LGX1        0.0000 
     30 N30       -10.8890    6.7250    5.3080 N.ar      1 LGX1        0.0000 
     31 C31       -11.8470    6.0960    6.0390 C.ar      1 LGX1        0.0000 
     32 F32        -8.6390    7.3410    5.0700 F         1 LGX1        0.0000 
     33 H         -17.2115    7.9901   12.5244 H         1 LGX1        0.0000 
     34 H         -16.2713    9.8968   11.1698 H         1 LGX1        0.0000 
     35 H         -15.0390    8.9437    9.2282 H         1 LGX1        0.0000 
     36 H         -17.6718    5.6056   13.0379 H         1 LGX1        0.0000 
     37 H         -16.5949    2.0756   11.4145 H         1 LGX1        0.0000 
     38 H         -18.6671    1.3582   14.7892 H         1 LGX1        0.0000 
     39 H         -17.4105   -0.9828   13.4056 H         1 LGX1        0.0000 
     40 H         -16.7860   -1.4074   11.3181 H         1 LGX1        0.0000 
     41 H         -16.8024    0.3594   11.1839 H         1 LGX1        0.0000 
     42 H         -18.8480    0.3756   11.6473 H         1 LGX1        0.0000 
     43 H         -18.8316   -1.3913   11.7815 H         1 LGX1        0.0000 
     44 H         -14.2967    2.9059    9.1653 H         1 LGX1        0.0000 
     45 H         -13.1785    3.3113    5.6993 H         1 LGX1        0.0000 
     46 H         -14.3427    4.6466    5.6578 H         1 LGX1        0.0000 
     47 H         -14.7699    1.7857    6.2353 H         1 LGX1        0.0000 
     48 H         -15.8739    2.9803    5.5323 H         1 LGX1        0.0000 
     49 H         -16.6508    3.6256    7.5753 H         1 LGX1        0.0000 
     50 H         -16.0260    2.0579    8.1155 H         1 LGX1        0.0000 
     51 H          -9.9701    5.0116    8.5752 H         1 LGX1        0.0000 
     52 H          -8.2702    6.1437    7.2580 H         1 LGX1        0.0000 
     53 H         -12.8394    6.0826    5.7033 H         1 LGX1        0.0000 
@<TRIPOS>BOND
     1    2    1 1    
     2    5    1 1    
     3    6    1 1    
     4    3    2 2    
     5    9    2 1    
     6    4    3 1    
     7   33    3 1    
     8    5    4 2    
     9   34    4 1    
    10   35    5 1    
    11    7    6 2    
    12    8    7 1    
    13   19    7 1    
    14    9    8 2    
    15   10    9 1    
    16   11   10 1    
    17   36   10 1    
    18   12   11 1    
    19   15   11 2    
    20   13   12 2    
    21   37   12 1    
    22   14   13 1    
    23   16   13 1    
    24   15   14 1    
    25   38   14 1    
    26   17   16 1    
    27   18   16 1    
    28   39   16 1    
    29   18   17 1    
    30   40   17 1    
    31   41   17 1    
    32   42   18 1    
    33   43   18 1    
    34   20   19 1    
    35   23   19 1    
    36   44   19 1    
    37   21   20 1    
    38   24   20 am   
    39   22   21 1    
    40   45   21 1    
    41   46   21 1    
    42   23   22 1    
    43   47   22 1    
    44   48   22 1    
    45   49   23 1    
    46   50   23 1    
    47   25   24 2    
    48   26   24 1    
    49   27   26 ar   
    50   31   26 ar   
    51   28   27 ar   
    52   51   27 1    
    53   29   28 ar   
    54   52   28 1    
    55   30   29 ar   
    56   32   29 1    
    57   31   30 ar   
    58   53   31 1    
@<TRIPOS>SUBSTRUCTURE
     1 LGX1        1 GROUP   
@<TRIPOS>SET

