#    Name: 3ocw_3AM_1_INTS_M
#    Modification time : Tue Mar 25 03:41:05 2014

@<TRIPOS>MOLECULE
3ocw_3AM_1_INTS_M
   41     0    12     0     0
SMALL
NO_CHARGES


@<TRIPOS>ATOM
      1 NZ         39.2995  -13.8490  -10.6315 N.4       2 LYC4        0.0000 
      2 NZ         40.6360  -14.3110  -10.1050 N.4      10 LYL4        0.0000 
      3 NZ         37.9630  -13.3870  -11.1580 N.4       6 LYP4        0.0000 
      4 N          40.6040  -15.6895  -10.5925 N.am      1 SEC2        0.0000 
      5 N          40.6360  -14.3110  -10.1050 N.am      9 SEL2        0.0000 
      6 N          40.5720  -17.0680  -11.0800 N.am      5 SEP2        0.0000 
      7 N          39.2995  -13.8490  -10.6315 N.am      1 SEC2        0.0000 
      8 N          37.9630  -13.3870  -11.1580 N.am      5 SEP2        0.0000 
      9 N          40.3200  -15.1870   -6.3310 N.am      1 SEC2        0.0000 
     10 N          40.5100  -15.5980   -7.7140 N.am      9 SEL2        0.0000 
     11 N          40.1300  -14.7760   -4.9480 N.am      5 SEP2        0.0000 
     12 N          40.0995  -16.8445   -8.0860 N.am      1 SEC2        0.0000 
     13 N          39.6890  -18.0910   -8.4580 N.am      5 SEP2        0.0000 
     14 Zn         40.9670  -12.2290   -7.4445 Zn        3 ZIC7        0.0000 
     15 Zn         41.4040  -13.1550   -7.9440 Zn       11 ZIL7        0.0000 
     16 Zn         40.5300  -11.3030   -6.9450 Zn        7 ZIP7        0.0000 
     17 N          44.2730  -12.0865   -6.4300 N.am      1 SEC2        0.0000 
     18 N          43.9820  -12.6140   -7.6530 N.am      9 SEL2        0.0000 
     19 N          44.5640  -11.5590   -5.2070 N.am      5 SEP2        0.0000 
     20 N          43.1890  -15.7035   -7.5660 N.am      1 SEC2        0.0000 
     21 N          42.8730  -15.1370   -8.7520 N.am      9 SEL2        0.0000 
     22 N          43.5050  -16.2700   -6.3800 N.am      5 SEP2        0.0000 
     23 CA         45.9885  -15.8940   -6.3225 C.3       4 GLC5        0.0000 
     24 CA         45.6500  -14.4740   -7.6290 C.3      12 GLL5        0.0000 
     25 CA         46.3270  -17.3140   -5.0160 C.3       8 GLP5        0.0000 
     26 CA         44.0980  -15.7030  -11.8320 C.3       4 GLC5        0.0000 
     27 CA         45.8050  -15.1290  -11.1190 C.3      12 GLL5        0.0000 
     28 CA         42.3910  -16.2770  -12.5450 C.3       8 GLP5        0.0000 
     29 CA         51.7390  -11.9805   -7.8825 C.3       4 GLC5        0.0000 
     30 CA         49.6650  -11.6120   -7.4830 C.3      12 GLL5        0.0000 
     31 CA         53.8130  -12.3490   -8.2820 C.3       8 GLP5        0.0000 
     32 CA         45.4815  -12.1670   -7.4280 C.3       4 GLC5        0.0000 
     33 CA         44.7460  -13.5400   -8.3810 C.3      12 GLL5        0.0000 
     34 CA         45.7650  -10.3270   -6.8510 C.3       8 GLP5        0.0000 
     35 CA         43.4860  -15.6120  -11.0370 C.3       4 GLC5        0.0000 
     36 CA         43.9930  -14.4610   -9.3160 C.3      12 GLL5        0.0000 
     37 CA         43.7854  -14.3121   -6.6994 C.3       4 GLC5        0.0000 
     38 CA         42.5610  -14.3870   -5.1600 C.3       8 GLP5        0.0000 
     39 CA         48.9240   -9.9595   -6.9090 C.3       4 GLC5        0.0000 
     40 CA         48.6190  -12.3960   -6.9630 C.3      12 GLL5        0.0000 
     41 CA         48.7060   -7.9150   -6.5950 C.3       8 GLP5        0.0000 
@<TRIPOS>BOND
@<TRIPOS>SUBSTRUCTURE
     1 SEC2        4 GROUP        1 X    SEC  0     ROOT SEC X 2
     2 LYC4        1 GROUP        1 X    LYC  0     **** LYC X 4
     3 ZIC7       14 GROUP        1 X    ZIC  0     **** ZIC X 5
     4 GLC5       23 GROUP        1 X    GLC  0     **** GLC X 6
     5 SEP2        6 GROUP        1 Y    SEP  0     ROOT SEP Y 9
     6 LYP4        3 GROUP        1 Y    LYP  0     **** LYP Y 11
     7 ZIP7       16 GROUP        1 Y    ZIP  0     **** ZIP Y 12
     8 GLP5       25 GROUP        1 Y    GLP  0     **** GLP Y 13
     9 SEL2        5 GROUP        1 Z    SEL  0     ROOT SEL Z 16
    10 LYL4        2 GROUP        1 Z    LYL  0     **** LYL Z 18
    11 ZIL7       15 GROUP        1 Z    ZIL  0     **** ZIL Z 19
    12 GLL5       24 GROUP        1 Z    GLL  0     **** GLL Z 20
@<TRIPOS>SET

