#    Name: 3ocw_3AM_1_ligand
#    Modification time : Tue Mar 25 03:41:05 2014

@<TRIPOS>MOLECULE
3ocw_3AM_1_ligand
   35    37     1     0     0
SMALL
NO_CHARGES


@<TRIPOS>ATOM
      1 O1P        40.6360  -14.3110  -10.1050 O.co2     1 3AM264      0.0000 
      2 P          41.3270  -14.4680   -8.6090 P.3       1 3AM264      0.0000 
      3 O2P        40.5100  -15.5980   -7.7140 O.co2     1 3AM264      0.0000 
      4 O3P        41.4040  -13.1550   -7.9440 O.co2     1 3AM264      0.0000 
      5 O2'        43.9820  -12.6140   -7.6530 O.3       1 3AM264      0.0000 
      6 C2'        44.7460  -13.5400   -8.3810 C.3       1 3AM264      0.0000 
      7 C3'        43.9930  -14.4610   -9.3160 C.3       1 3AM264      0.0000 
      8 O3'        42.8730  -15.1370   -8.7520 O.3       1 3AM264      0.0000 
      9 C1'        45.6500  -14.4740   -7.6290 C.3       1 3AM264      0.0000 
     10 O4'        46.1190  -15.4090   -8.6060 O.3       1 3AM264      0.0000 
     11 C4'        45.1690  -15.4330   -9.7420 C.3       1 3AM264      0.0000 
     12 C5'        45.8050  -15.1290  -11.1190 C.3       1 3AM264      0.0000 
     13 O5'        46.1680  -13.8010  -11.3700 O.3       1 3AM264      0.0000 
     14 N9         46.7810  -13.7350   -7.0490 N.pl3     1 3AM264      0.0000 
     15 C8         47.0760  -13.5520   -5.7370 C.2       1 3AM264      0.0000 
     16 N7         48.2400  -12.7130   -5.6570 N.2       1 3AM264      0.0000 
     17 C5         48.6190  -12.3960   -6.9630 C.ar      1 3AM264      0.0000 
     18 C6         49.6650  -11.6120   -7.4830 C.ar      1 3AM264      0.0000 
     19 N6         50.5910  -10.9220   -6.5770 N.pl3     1 3AM264      0.0000 
     20 C4         47.7460  -13.0150   -7.8310 C.ar      1 3AM264      0.0000 
     21 N3         47.8840  -12.8650   -9.2530 N.ar      1 3AM264      0.0000 
     22 C2         48.9430  -12.0740   -9.7790 C.ar      1 3AM264      0.0000 
     23 N1         49.8080  -11.4640   -8.9260 N.ar      1 3AM264      0.0000 
     24 H          45.4624  -12.9841   -9.0901 H         1 3AM264      0.0000 
     25 H          43.7686  -13.8953  -10.2102 H         1 3AM264      0.0000 
     26 H          45.0831  -14.9640   -6.8731 H         1 3AM264      0.0000 
     27 H          44.7110  -16.4388   -9.7782 H         1 3AM264      0.0000 
     28 H          45.0770  -15.5164  -11.8902 H         1 3AM264      0.0000 
     29 H          46.6857  -15.8287  -11.2161 H         1 3AM264      0.0000 
     30 H          46.6267  -13.8940   -4.9793 H         1 3AM264      0.0000 
     31 H          51.2856  -10.3482   -7.0110 H         1 3AM264      0.0000 
     32 H          50.4516  -11.0821   -5.5998 H         1 3AM264      0.0000 
     33 H          49.0286  -11.9826  -10.7958 H         1 3AM264      0.0000 
     34 H          43.0339  -12.9073   -7.7760 H         1 3AM264      0.0000 
     35 H          46.7883  -13.5571  -10.6245 H         1 3AM264      0.0000 
@<TRIPOS>BOND
     1    2    1 ar   
     2    3    2 ar   
     3    4    2 ar   
     4    8    2 1    
     5    6    5 1    
     6   34    5 1    
     7    7    6 1    
     8    9    6 1    
     9   24    6 1    
    10    8    7 1    
    11   11    7 1    
    12   25    7 1    
    13   10    9 1    
    14   14    9 1    
    15   26    9 1    
    16   11   10 1    
    17   12   11 1    
    18   27   11 1    
    19   13   12 1    
    20   28   12 1    
    21   29   12 1    
    22   35   13 1    
    23   15   14 1    
    24   20   14 1    
    25   16   15 2    
    26   30   15 1    
    27   17   16 1    
    28   18   17 ar   
    29   20   17 ar   
    30   19   18 1    
    31   23   18 ar   
    32   31   19 1    
    33   32   19 1    
    34   21   20 ar   
    35   22   21 ar   
    36   23   22 ar   
    37   33   22 1    
@<TRIPOS>SUBSTRUCTURE
     1 3AM264      1 GROUP   
@<TRIPOS>SET

