#    Name: 1cnf_FAD_1_INTS_M
#    Modification time : Mon Mar 24 20:50:17 2014

@<TRIPOS>MOLECULE
1cnf_FAD_1_INTS_M
   72     0    12     0     0
SMALL
NO_CHARGES


@<TRIPOS>ATOM
      1 N          23.9785   15.2375    5.8330 N.am      2 SEC2        0.0000 
      2 N          23.1750   14.2460    4.7320 N.am     10 SEL2        0.0000 
      3 N          24.7820   16.2290    6.9340 N.am      6 SEP2        0.0000 
      4 CA         19.3100   14.8195    4.4065 C.3       4 GLC5        0.0000 
      5 CA         20.5200   14.6000    2.6150 C.3      12 GLL5        0.0000 
      6 CA         18.1000   15.0390    6.1980 C.3       8 GLP5        0.0000 
      7 CA         20.3160    9.7115    4.3135 C.3       4 GLC5        0.0000 
      8 CA         19.8780   11.5520    3.9960 C.3      12 GLL5        0.0000 
      9 CA         20.7540    7.8710    4.6310 C.3       8 GLP5        0.0000 
     10 CA         18.8545    8.1375    8.7400 C.3       4 GLC5        0.0000 
     11 CA         18.8440   10.1740    8.4560 C.3      12 GLL5        0.0000 
     12 CA         18.8650    6.1010    9.0240 C.3       8 GLP5        0.0000 
     13 O          20.5650    9.9795   10.8835 O.2       1 ALC1        0.0000 
     14 O          19.4250    9.8370    9.5990 O.2       9 ALL1        0.0000 
     15 O          21.7050   10.1220   12.1680 O.2       5 ALP1        0.0000 
     16 N          14.8820   20.3910    9.8595 N.am      2 SEC2        0.0000 
     17 N          14.8400   20.9880    8.3960 N.am     10 SEL2        0.0000 
     18 N          14.9240   19.7940   11.3230 N.am      6 SEP2        0.0000 
     19 O          13.6090   23.2145    8.7520 O.2       1 ALC1        0.0000 
     20 O          13.9620   22.7240    7.4460 O.2       9 ALL1        0.0000 
     21 O          13.2560   23.7050   10.0580 O.2       5 ALP1        0.0000 
     22 N          11.8135   24.6685    5.8250 N.am      2 SEC2        0.0000 
     23 N          12.9030   24.5020    6.7070 N.am     10 SEL2        0.0000 
     24 N          10.7240   24.8350    4.9430 N.am      6 SEP2        0.0000 
     25 CA         12.6570   26.1765    2.6165 C.3       4 GLC5        0.0000 
     26 CA         13.4650   24.3040    1.8710 C.3      12 GLL5        0.0000 
     27 CA         11.8490   28.0490    3.3620 C.3       8 GLP5        0.0000 
     28 CA         11.9290   24.6080   -2.1775 C.3       4 GLC5        0.0000 
     29 CA         13.1730   24.8810   -0.5770 C.3      12 GLL5        0.0000 
     30 CA         10.6850   24.3350   -3.7780 C.3       8 GLP5        0.0000 
     31 CA         20.6300   20.5080    2.9190 C.3       4 GLC5        0.0000 
     32 CA         18.7440   19.7570    3.5150 C.3      12 GLL5        0.0000 
     33 CA         22.5160   21.2590    2.3230 C.3       8 GLP5        0.0000 
     34 O          19.2200   21.2725    6.4355 O.2       1 ALC1        0.0000 
     35 O          18.2060   20.1970    5.8190 O.2       9 ALL1        0.0000 
     36 O          20.2340   22.3480    7.0520 O.2       5 ALP1        0.0000 
     37 CA         19.8370   19.0130    7.5565 C.3       4 GLC5        0.0000 
     38 CA         19.6710   18.6420    5.6250 C.3      12 GLL5        0.0000 
     39 CA         20.0030   19.3840    9.4880 C.3       8 GLP5        0.0000 
     40 N          23.3560   18.4205    7.2565 N.am      2 SEC2        0.0000 
     41 N          21.8670   17.6750    7.0910 N.am     10 SEL2        0.0000 
     42 N          24.8450   19.1660    7.4220 N.am      6 SEP2        0.0000 
     43 N          22.4765   18.5450    8.3025 N.am      2 SEC2        0.0000 
     44 N          23.0860   19.4150    9.5140 N.am      6 SEP2        0.0000 
     45 N          21.5915   17.5470    8.4050 N.am      2 SEC2        0.0000 
     46 N          21.3160   17.4190    9.7190 N.am      6 SEP2        0.0000 
     47 NZ         23.2455   19.1710    4.2525 N.4       3 LYC4        0.0000 
     48 NZ         22.3990   19.1610    5.1180 N.4      11 LYL4        0.0000 
     49 NZ         24.3990   19.6870    2.2040 N.4       7 LYP4        0.0000 
     50 N          23.2455   19.1710    4.2525 N.am      2 SEC2        0.0000 
     51 N          22.3990   19.1610    5.1180 N.am     10 SEL2        0.0000 
     52 N          24.0920   19.1810    3.3870 N.am      6 SEP2        0.0000 
     53 N          23.6220   19.1635    6.2700 N.am      2 SEC2        0.0000 
     54 N          23.8530   16.5100    5.8915 N.am      2 SEC2        0.0000 
     55 N          22.9240   16.7910    4.8490 N.am     10 SEL2        0.0000 
     56 CA         18.7112   13.5140    4.9757 C.3       4 GLC5        0.0000 
     57 CA         19.6082   12.3305    8.6575 C.3       4 GLC5        0.0000 
     58 CA         19.5150   10.6680    7.4120 C.3      12 GLL5        0.0000 
     59 CA         20.0370   14.2400    9.3810 C.3       8 GLP5        0.0000 
     60 CA         20.3249    9.2853    6.4800 C.3       4 GLC5        0.0000 
     61 CA         21.5730    7.9130    5.8850 C.3       8 GLP5        0.0000 
     62 CA         14.9905   25.2447    3.3000 C.3       4 GLC5        0.0000 
     63 CA         13.9930   23.5950    2.8590 C.3      12 GLL5        0.0000 
     64 CA         16.2520   26.5400    4.2350 C.3       8 GLP5        0.0000 
     65 CA         11.9085   24.2178    1.6280 C.3       4 GLC5        0.0000 
     66 CA         10.0880   24.4860    0.8910 C.3       8 GLP5        0.0000 
     67 CA         11.7880   24.4798    0.4433 C.3       4 GLC5        0.0000 
     68 CA         13.8030   24.0660    0.5680 C.3      12 GLL5        0.0000 
     69 CA         16.4118   24.2119    0.2442 C.3       4 GLC5        0.0000 
     70 CA         17.8720   25.6490    0.0330 C.3       8 GLP5        0.0000 
     71 CA         18.5953   16.9707    5.7328 C.3       4 GLC5        0.0000 
     72 CA         18.5100   19.1630    4.9100 C.3      12 GLL5        0.0000 
@<TRIPOS>BOND
@<TRIPOS>SUBSTRUCTURE
     1 ALC1       13 GROUP        1 X    ALC  0     ROOT ALC X 1
     2 SEC2        1 GROUP        1 X    SEC  0     **** SEC X 2
     3 LYC4       47 GROUP        1 X    LYC  0     **** LYC X 4
     4 GLC5        4 GROUP        1 X    GLC  0     **** GLC X 6
     5 ALP1       15 GROUP        1 Y    ALP  0     ROOT ALP Y 8
     6 SEP2        3 GROUP        1 Y    SEP  0     **** SEP Y 9
     7 LYP4       49 GROUP        1 Y    LYP  0     **** LYP Y 11
     8 GLP5        6 GROUP        1 Y    GLP  0     **** GLP Y 13
     9 ALL1       14 GROUP        1 Z    ALL  0     ROOT ALL Z 15
    10 SEL2        2 GROUP        1 Z    SEL  0     **** SEL Z 16
    11 LYL4       48 GROUP        1 Z    LYL  0     **** LYL Z 18
    12 GLL5        5 GROUP        1 Z    GLL  0     **** GLL Z 20
@<TRIPOS>SET

