#    Name: 1cnf_FAD_1_ligand
#    Modification time : Mon Mar 24 20:50:17 2014

@<TRIPOS>MOLECULE
1cnf_FAD_1_ligand
   84    89     1     0     0
SMALL
NO_CHARGES


@<TRIPOS>ATOM
      1 PA         22.7170   15.4670    3.9930 P.3       1 FAD271      0.0000 
      2 O1A        23.1750   14.2460    4.7320 O.co2     1 FAD271      0.0000 
      3 O2A        23.2330   15.7930    2.6290 O.co2     1 FAD271      0.0000 
      4 O5B        21.1430   15.1750    3.8170 O.3       1 FAD271      0.0000 
      5 C5B        20.5200   14.6000    2.6150 C.3       1 FAD271      0.0000 
      6 C4B        20.6110   13.0830    2.3550 C.3       1 FAD271      0.0000 
      7 O4B        21.0470   12.1640    3.4110 O.3       1 FAD271      0.0000 
      8 C3B        19.2730   12.4970    2.0720 C.3       1 FAD271      0.0000 
      9 O3B        19.5580   11.2260    1.3780 O.3       1 FAD271      0.0000 
     10 C2B        18.7670   12.4260    3.5110 C.3       1 FAD271      0.0000 
     11 O2B        17.4750   11.8960    3.7170 O.3       1 FAD271      0.0000 
     12 C1B        19.8780   11.5520    3.9960 C.3       1 FAD271      0.0000 
     13 N9A        19.9440   11.3520    5.4560 N.pl3     1 FAD271      0.0000 
     14 C8A        21.0480   11.3920    6.2150 C.2       1 FAD271      0.0000 
     15 N7A        20.7800   10.9890    7.4620 N.2       1 FAD271      0.0000 
     16 C5A        19.5150   10.6680    7.4120 C.ar      1 FAD271      0.0000 
     17 C6A        18.8440   10.1740    8.4560 C.ar      1 FAD271      0.0000 
     18 N6A        19.4250    9.8370    9.5990 N.pl3     1 FAD271      0.0000 
     19 N1A        17.5320    9.9690    8.2580 N.ar      1 FAD271      0.0000 
     20 C2A        16.9590   10.1760    7.0640 C.ar      1 FAD271      0.0000 
     21 N3A        17.6790   10.6310    6.0330 N.ar      1 FAD271      0.0000 
     22 C4A        18.9740   10.8940    6.2160 C.ar      1 FAD271      0.0000 
     23 N1         14.9690   21.3050    6.0550 N.2       1 FAD271      0.0000 
     24 C2         14.6410   21.5980    7.3740 C.2       1 FAD271      0.0000 
     25 O2         14.8400   20.9880    8.3960 O.2       1 FAD271      0.0000 
     26 N3         13.9620   22.7240    7.4460 N.am      1 FAD271      0.0000 
     27 C4         13.5880   23.5500    6.4070 C.2       1 FAD271      0.0000 
     28 O4         12.9030   24.5020    6.7070 O.2       1 FAD271      0.0000 
     29 C4X        14.0390   23.1600    5.1110 C.2       1 FAD271      0.0000 
     30 N5         13.6720   23.9390    4.0840 N.2       1 FAD271      0.0000 
     31 C5X        13.9930   23.5950    2.8590 C.ar      1 FAD271      0.0000 
     32 C6         13.4650   24.3040    1.8710 C.ar      1 FAD271      0.0000 
     33 C7         13.8030   24.0660    0.5680 C.ar      1 FAD271      0.0000 
     34 C7M        13.1730   24.8810   -0.5770 C.3       1 FAD271      0.0000 
     35 C8         14.7000   23.0700    0.2650 C.ar      1 FAD271      0.0000 
     36 C8M        15.1690   22.8370   -1.1550 C.3       1 FAD271      0.0000 
     37 C9         15.1930   22.3470    1.2800 C.ar      1 FAD271      0.0000 
     38 C9A        14.8680   22.5810    2.5930 C.ar      1 FAD271      0.0000 
     39 N10        15.2750   21.8480    3.6500 N.pl3     1 FAD271      0.0000 
     40 C10        14.7910   22.0420    4.8960 C.2       1 FAD271      0.0000 
     41 C1'        16.2100   20.8880    3.4960 C.3       1 FAD271      0.0000 
     42 C2'        17.7770   21.0300    3.1090 C.3       1 FAD271      0.0000 
     43 O2'        18.1150   21.3110    1.6880 O.3       1 FAD271      0.0000 
     44 C3'        18.7440   19.7570    3.5150 C.3       1 FAD271      0.0000 
     45 O3'        19.1820   18.8100    2.4520 O.3       1 FAD271      0.0000 
     46 C4'        18.5100   19.1630    4.9100 C.3       1 FAD271      0.0000 
     47 O4'        18.2060   20.1970    5.8190 O.3       1 FAD271      0.0000 
     48 C5'        19.6710   18.6420    5.6250 C.3       1 FAD271      0.0000 
     49 O5'        20.5190   17.8510    4.8560 O.3       1 FAD271      0.0000 
     50 P          21.9590   17.8750    5.6020 P.3       1 FAD271      0.0000 
     51 O1P        21.8670   17.6750    7.0910 O.co2     1 FAD271      0.0000 
     52 O2P        22.3990   19.1610    5.1180 O.co2     1 FAD271      0.0000 
     53 O3P        22.9240   16.7910    4.8490 O.3       1 FAD271      0.0000 
     54 H          20.9271   15.1172    1.6913 H         1 FAD271      0.0000 
     55 H          19.4194   14.8728    2.5897 H         1 FAD271      0.0000 
     56 H          21.2118   12.8968    1.4577 H         1 FAD271      0.0000 
     57 H          18.7248   13.1788    1.5234 H         1 FAD271      0.0000 
     58 H          18.9431   13.4002    3.9353 H         1 FAD271      0.0000 
     59 H          19.7349   10.5700    3.4912 H         1 FAD271      0.0000 
     60 H          21.9343   11.6790    5.8968 H         1 FAD271      0.0000 
     61 H          20.4121    9.9882    9.6522 H         1 FAD271      0.0000 
     62 H          18.8236    9.4621   10.3045 H         1 FAD271      0.0000 
     63 H          15.9358    9.9787    6.9385 H         1 FAD271      0.0000 
     64 H          13.6463   23.0646    8.4384 H         1 FAD271      0.0000 
     65 H          12.7714   25.0679    2.0747 H         1 FAD271      0.0000 
     66 H          15.8667   21.5541    1.0734 H         1 FAD271      0.0000 
     67 H          15.8490   20.0504    2.7309 H         1 FAD271      0.0000 
     68 H          16.2620   20.1769    4.4494 H         1 FAD271      0.0000 
     69 H          18.1951   21.8679    3.7271 H         1 FAD271      0.0000 
     70 H          19.7935   20.3969    3.7293 H         1 FAD271      0.0000 
     71 H          17.7303   18.4498    4.9009 H         1 FAD271      0.0000 
     72 H          19.3026   18.0756    6.5284 H         1 FAD271      0.0000 
     73 H          20.2300   19.5145    6.0710 H         1 FAD271      0.0000 
     74 H          13.3666   25.8580   -0.4876 H         1 FAD271      0.0000 
     75 H          13.5183   24.5943   -1.4706 H         1 FAD271      0.0000 
     76 H          12.1784   24.7802   -0.6010 H         1 FAD271      0.0000 
     77 H          15.6279   23.6419   -1.5314 H         1 FAD271      0.0000 
     78 H          15.8164   22.0770   -1.2123 H         1 FAD271      0.0000 
     79 H          14.4080   22.6206   -1.7667 H         1 FAD271      0.0000 
     80 H          20.5212   11.2848    1.1157 H         1 FAD271      0.0000 
     81 H          17.5284   11.4175    4.5935 H         1 FAD271      0.0000 
     82 H          18.7847   20.6116    1.4382 H         1 FAD271      0.0000 
     83 H          19.9167   18.2749    2.8690 H         1 FAD271      0.0000 
     84 H          19.0688   20.6840    5.9549 H         1 FAD271      0.0000 
@<TRIPOS>BOND
     1    2    1 ar   
     2    3    1 ar   
     3    4    1 1    
     4   53    1 1    
     5    5    4 1    
     6    6    5 1    
     7   54    5 1    
     8   55    5 1    
     9    7    6 1    
    10    8    6 1    
    11   56    6 1    
    12   12    7 1    
    13    9    8 1    
    14   10    8 1    
    15   57    8 1    
    16   80    9 1    
    17   11   10 1    
    18   12   10 1    
    19   58   10 1    
    20   81   11 1    
    21   13   12 1    
    22   59   12 1    
    23   14   13 1    
    24   22   13 1    
    25   15   14 2    
    26   60   14 1    
    27   16   15 1    
    28   17   16 ar   
    29   22   16 ar   
    30   18   17 1    
    31   19   17 ar   
    32   61   18 1    
    33   62   18 1    
    34   20   19 ar   
    35   21   20 ar   
    36   63   20 1    
    37   22   21 ar   
    38   24   23 1    
    39   40   23 2    
    40   25   24 2    
    41   26   24 am   
    42   27   26 am   
    43   64   26 1    
    44   28   27 2    
    45   29   27 1    
    46   30   29 2    
    47   40   29 1    
    48   31   30 1    
    49   32   31 ar   
    50   38   31 ar   
    51   33   32 ar   
    52   65   32 1    
    53   34   33 1    
    54   35   33 ar   
    55   74   34 1    
    56   75   34 1    
    57   76   34 1    
    58   36   35 1    
    59   37   35 ar   
    60   77   36 1    
    61   78   36 1    
    62   79   36 1    
    63   38   37 ar   
    64   66   37 1    
    65   39   38 1    
    66   40   39 1    
    67   41   39 1    
    68   42   41 1    
    69   67   41 1    
    70   68   41 1    
    71   43   42 1    
    72   44   42 1    
    73   69   42 1    
    74   82   43 1    
    75   45   44 1    
    76   46   44 1    
    77   70   44 1    
    78   83   45 1    
    79   47   46 1    
    80   48   46 1    
    81   71   46 1    
    82   84   47 1    
    83   49   48 1    
    84   72   48 1    
    85   73   48 1    
    86   50   49 1    
    87   51   50 ar   
    88   52   50 ar   
    89   53   50 1    
@<TRIPOS>SUBSTRUCTURE
     1 FAD271      1 GROUP   
@<TRIPOS>SET

