#    Name: 3gqt_UFO_2_INTS_M
#    Modification time : Tue Mar 25 12:51:27 2014

@<TRIPOS>MOLECULE
3gqt_UFO_2_INTS_M
   41     0     9     0     0
SMALL
NO_CHARGES


@<TRIPOS>ATOM
      1 CA          5.9630   -3.3725  -37.0965 C.3       3 GLC5        0.0000 
      2 CA          6.9860   -3.5840  -39.0370 C.3       9 GLL5        0.0000 
      3 CA          4.9400   -3.1610  -35.1560 C.3       6 GLP5        0.0000 
      4 CA          9.2750   -5.8340  -41.3745 C.3       3 GLC5        0.0000 
      5 CA          7.3140   -4.9800  -40.9910 C.3       9 GLL5        0.0000 
      6 CA         11.2360   -6.6880  -41.7580 C.3       6 GLP5        0.0000 
      7 OD1         7.4235   -4.8455  -36.3925 O.co2     2 ASC3        0.0000 
      8 OD1         7.6230   -5.9020  -37.3830 O.co2     8 ASL3        0.0000 
      9 OD1         7.2240   -3.7890  -35.4020 O.co2     5 ASP3        0.0000 
     10 O           7.4235   -4.8455  -36.3925 O.2       1 ALC1        0.0000 
     11 O           7.6230   -5.9020  -37.3830 O.2       7 ALL1        0.0000 
     12 O           7.2240   -3.7890  -35.4020 O.2       4 ALP1        0.0000 
     13 CA          5.5510   -5.6540  -37.5000 C.3       3 GLC5        0.0000 
     14 CA          7.2660   -6.1380  -38.7750 C.3       9 GLL5        0.0000 
     15 CA          3.8360   -5.1700  -36.2250 C.3       6 GLP5        0.0000 
     16 CA          8.3695   -0.3700  -43.7585 C.3       3 GLC5        0.0000 
     17 CA          6.8230   -1.4880  -43.5370 C.3       9 GLL5        0.0000 
     18 CA          9.9160    0.7480  -43.9800 C.3       6 GLP5        0.0000 
     19 CA          8.4660    0.3355  -42.7325 C.3       3 GLC5        0.0000 
     20 CA          7.0160   -0.0770  -41.4850 C.3       9 GLL5        0.0000 
     21 CA          6.1540    1.5670  -39.2575 C.3       3 GLC5        0.0000 
     22 CA          6.2040   -0.0800  -40.2000 C.3       9 GLL5        0.0000 
     23 CA          6.1040    3.2140  -38.3150 C.3       6 GLP5        0.0000 
     24 CA          4.6125    0.3775  -39.5190 C.3       3 GLC5        0.0000 
     25 CA          3.0210    0.8350  -38.8380 C.3       6 GLP5        0.0000 
     26 CA          8.0905   -0.1745  -36.3150 C.3       3 GLC5        0.0000 
     27 CA          6.9850   -0.8290  -37.9490 C.3       9 GLL5        0.0000 
     28 CA          9.1960    0.4800  -34.6810 C.3       6 GLP5        0.0000 
     29 CA          6.5445    1.1925  -38.1320 C.3       3 GLC5        0.0000 
     30 CA          4.8860   -1.2135  -38.1405 C.3       3 GLC5        0.0000 
     31 CA          2.7870   -1.5980  -38.3320 C.3       6 GLP5        0.0000 
     32 CA          5.9625   -1.9950  -36.5525 C.3       3 GLC5        0.0000 
     33 CA          4.8575   -2.0210  -39.0985 C.3       3 GLC5        0.0000 
     34 CA          6.9280   -2.4440  -39.8650 C.3       9 GLL5        0.0000 
     35 CA          9.0880   -5.0687  -38.8302 C.3       3 GLC5        0.0000 
     36 CA          7.1860   -4.8610  -39.6020 C.3       9 GLL5        0.0000 
     37 CA         10.9500   -4.6380  -38.4720 C.3       6 GLP5        0.0000 
     38 CA          8.8235   -2.8160  -39.6985 C.3       3 GLC5        0.0000 
     39 CA         10.6900   -2.6180  -39.9460 C.3       6 GLP5        0.0000 
     40 CA          8.9605   -3.3566  -40.6049 C.3       3 GLC5        0.0000 
     41 CA          7.0510   -2.5750  -41.2600 C.3       9 GLL5        0.0000 
@<TRIPOS>BOND
@<TRIPOS>SUBSTRUCTURE
     1 ALC1       10 GROUP        1 X    ALC  0     ROOT ALC X 1
     2 ASC3        7 GROUP        1 X    ASC  0     **** ASC X 3
     3 GLC5        1 GROUP        1 X    GLC  0     **** GLC X 6
     4 ALP1       12 GROUP        1 Y    ALP  0     ROOT ALP Y 8
     5 ASP3        9 GROUP        1 Y    ASP  0     **** ASP Y 10
     6 GLP5        3 GROUP        1 Y    GLP  0     **** GLP Y 13
     7 ALL1       11 GROUP        1 Z    ALL  0     ROOT ALL Z 15
     8 ASL3        8 GROUP        1 Z    ASL  0     **** ASL Z 17
     9 GLL5        2 GROUP        1 Z    GLL  0     **** GLL Z 20
@<TRIPOS>SET

