#    Name: 3gqt_UFO_2_ligand
#    Modification time : Tue Mar 25 12:51:27 2014

@<TRIPOS>MOLECULE
3gqt_UFO_2_ligand
   32    33     1     0     0
SMALL
NO_CHARGES


@<TRIPOS>ATOM
      1 C2          7.1860   -4.8610  -39.6020 C.ar      1 UFO1001     0.0000 
      2 C1          6.9860   -3.5840  -39.0370 C.ar      1 UFO1001     0.0000 
      3 C5          7.0510   -2.5750  -41.2600 C.ar      1 UFO1001     0.0000 
      4 C4          7.2450   -3.8460  -41.8130 C.ar      1 UFO1001     0.0000 
      5 C3          7.3140   -4.9800  -40.9910 C.ar      1 UFO1001     0.0000 
      6 N14         7.6230   -5.9020  -37.3830 N.4       1 UFO1001     0.0000 
      7 C13         7.2660   -6.1380  -38.7750 C.3       1 UFO1001     0.0000 
      8 N7          6.9680   -1.4180  -42.0770 N.3       1 UFO1001     0.0000 
      9 C12         6.8230   -1.4880  -43.5370 C.3       1 UFO1001     0.0000 
     10 C8          7.0160   -0.0770  -41.4850 C.3       1 UFO1001     0.0000 
     11 C9          6.2040   -0.0800  -40.2000 C.3       1 UFO1001     0.0000 
     12 N10         6.7260   -1.1440  -39.3400 N.3       1 UFO1001     0.0000 
     13 C11         6.9850   -0.8290  -37.9490 C.3       1 UFO1001     0.0000 
     14 C6          6.9280   -2.4440  -39.8650 C.ar      1 UFO1001     0.0000 
     15 H           6.8828   -3.4849  -38.0242 H         1 UFO1001     0.0000 
     16 H           7.3381   -3.9506  -42.8328 H         1 UFO1001     0.0000 
     17 H           7.4599   -5.9066  -41.4132 H         1 UFO1001     0.0000 
     18 H           8.0022   -6.8113  -39.2574 H         1 UFO1001     0.0000 
     19 H           6.2864   -6.6514  -38.8445 H         1 UFO1001     0.0000 
     20 H           6.5919    0.6607  -42.1632 H         1 UFO1001     0.0000 
     21 H           8.0400    0.2053  -41.2492 H         1 UFO1001     0.0000 
     22 H           5.1625   -0.2564  -40.4470 H         1 UFO1001     0.0000 
     23 H           6.3042    0.8891  -39.7228 H         1 UFO1001     0.0000 
     24 H           7.3070   -5.0081  -37.0649 H         1 UFO1001     0.0000 
     25 H           7.2223   -6.5878  -36.7754 H         1 UFO1001     0.0000 
     26 H           8.6129   -5.9296  -37.2436 H         1 UFO1001     0.0000 
     27 H           7.5885   -1.9697  -43.9636 H         1 UFO1001     0.0000 
     28 H           5.9882   -1.9691  -43.8047 H         1 UFO1001     0.0000 
     29 H           6.7823   -0.5783  -43.9502 H         1 UFO1001     0.0000 
     30 H           7.3387   -1.6194  -37.4489 H         1 UFO1001     0.0000 
     31 H           7.6587   -0.0962  -37.8534 H         1 UFO1001     0.0000 
     32 H           6.1567   -0.5293  -37.4756 H         1 UFO1001     0.0000 
@<TRIPOS>BOND
     1    2    1 ar   
     2    5    1 ar   
     3    7    1 1    
     4   14    2 ar   
     5   15    2 1    
     6    4    3 ar   
     7    8    3 1    
     8   14    3 ar   
     9    5    4 ar   
    10   16    4 1    
    11   17    5 1    
    12    7    6 1    
    13   24    6 1    
    14   25    6 1    
    15   26    6 1    
    16   18    7 1    
    17   19    7 1    
    18    9    8 1    
    19   10    8 1    
    20   27    9 1    
    21   28    9 1    
    22   29    9 1    
    23   11   10 1    
    24   20   10 1    
    25   21   10 1    
    26   12   11 1    
    27   22   11 1    
    28   23   11 1    
    29   13   12 1    
    30   14   12 1    
    31   30   13 1    
    32   31   13 1    
    33   32   13 1    
@<TRIPOS>SUBSTRUCTURE
     1 UFO1001     1 GROUP   
@<TRIPOS>SET

