#    Name: 1veb_I05_1_INTS_M
#    Modification time : Tue Mar 25 07:45:13 2014

@<TRIPOS>MOLECULE
1veb_I05_1_INTS_M
  101     0    12     0     0
SMALL
NO_CHARGES


@<TRIPOS>ATOM
      1 CA         18.4800   12.7075   -2.4770 C.3       4 GLC5        0.0000 
      2 CA         16.8240   11.9770   -3.3020 C.3      12 GLL5        0.0000 
      3 CA         20.1360   13.4380   -1.6520 C.3       8 GLP5        0.0000 
      4 CA         17.1625   13.1070   -4.4210 C.3       4 GLC5        0.0000 
      5 CA         17.5010   14.2370   -5.5400 C.3       8 GLP5        0.0000 
      6 CA         18.4300   12.3415   -6.3125 C.3       4 GLC5        0.0000 
      7 CA         18.0560   10.6450   -6.7560 C.3      12 GLL5        0.0000 
      8 CA         18.8040   14.0380   -5.8690 C.3       8 GLP5        0.0000 
      9 CA         19.4390   11.6735   -7.8095 C.3       4 GLC5        0.0000 
     10 CA         20.8220   12.7020   -8.8630 C.3       8 GLP5        0.0000 
     11 CA         18.4350    8.6495   -7.0930 C.3       4 GLC5        0.0000 
     12 CA         18.8140    6.6540   -7.4300 C.3       8 GLP5        0.0000 
     13 CA         13.1015   13.7445   -5.3220 C.3       4 GLC5        0.0000 
     14 CA         13.5570   11.8930   -4.7480 C.3      12 GLL5        0.0000 
     15 CA         12.6460   15.5960   -5.8960 C.3       8 GLP5        0.0000 
     16 O          11.4240   12.0015   -5.4980 O.2       1 ALC1        0.0000 
     17 O          12.3110   12.2920   -4.4700 O.2       9 ALL1        0.0000 
     18 O          10.5370   11.7110   -6.5260 O.2       5 ALP1        0.0000 
     19 O          10.9950   11.2585   -4.8260 O.2       1 ALC1        0.0000 
     20 O           9.6790   10.2250   -5.1820 O.2       5 ALP1        0.0000 
     21 CA         13.6080   13.9595   -3.6300 C.3       4 GLC5        0.0000 
     22 CA         14.5960   12.1430   -3.8540 C.3      12 GLL5        0.0000 
     23 CA         12.6200   15.7760   -3.4060 C.3       8 GLP5        0.0000 
     24 N          16.5415   14.7860   -2.0825 N.am      2 SEC2        0.0000 
     25 N          15.2520   13.8790   -2.4840 N.am     10 SEL2        0.0000 
     26 N          17.8310   15.6930   -1.6810 N.am      6 SEP2        0.0000 
     27 CA         13.9530   15.6215   -0.1485 C.3       4 GLC5        0.0000 
     28 CA         13.4680   13.4670   -0.4180 C.3      12 GLL5        0.0000 
     29 CA         14.4380   17.7760    0.1210 C.3       8 GLP5        0.0000 
     30 CA         12.4065   14.7980    1.7095 C.3       4 GLC5        0.0000 
     31 CA         12.8010   13.1110    0.7520 C.3      12 GLL5        0.0000 
     32 CA         12.0120   16.4850    2.6670 C.3       8 GLP5        0.0000 
     33 CA         11.6550   11.8240    4.4740 C.3       4 GLC5        0.0000 
     34 CA         11.7440   11.4020    2.3160 C.3      12 GLL5        0.0000 
     35 CA         11.5660   12.2460    6.6320 C.3       8 GLP5        0.0000 
     36 CA          9.5325   11.3910    2.4740 C.3       4 GLC5        0.0000 
     37 CA         10.4810    9.6310    3.3640 C.3      12 GLL5        0.0000 
     38 CA          8.5840   13.1510    1.5840 C.3       8 GLP5        0.0000 
     39 CA         13.2110    5.0265    4.2460 C.3       4 GLC5        0.0000 
     40 CA         12.3730    6.9230    3.6020 C.3      12 GLL5        0.0000 
     41 CA         14.0490    3.1300    4.8900 C.3       8 GLP5        0.0000 
     42 OD1        11.6285    7.1560    1.1990 O.co2     3 ASC3        0.0000 
     43 OD1        11.2480    6.7470    2.7220 O.co2    11 ASL3        0.0000 
     44 OD1        12.0090    7.5650   -0.3240 O.co2     7 ASP3        0.0000 
     45 OD1        10.6835    6.6940    1.4650 O.co2     3 ASC3        0.0000 
     46 OD1        10.1190    6.6410    0.2080 O.co2     7 ASP3        0.0000 
     47 CA         10.1965    5.0155    2.6490 C.3       4 GLC5        0.0000 
     48 CA          9.9620    7.0790    3.2880 C.3      12 GLL5        0.0000 
     49 CA         10.4310    2.9520    2.0100 C.3       8 GLP5        0.0000 
     50 CA          8.4125    5.7095    3.8220 C.3       4 GLC5        0.0000 
     51 CA          6.8630    4.3400    4.3560 C.3       8 GLP5        0.0000 
     52 CA          6.2295   11.1605    3.1845 C.3       4 GLC5        0.0000 
     53 CA          5.7400    9.0830    3.1800 C.3      12 GLL5        0.0000 
     54 CA          6.7190   13.2380    3.1890 C.3       8 GLP5        0.0000 
     55 CA          5.0945   10.3550    0.8020 C.3       4 GLC5        0.0000 
     56 CA          4.6720    9.2630    2.3010 C.3      12 GLL5        0.0000 
     57 CA          5.5170   11.4470   -0.6970 C.3       8 GLP5        0.0000 
     58 CA          2.5155    8.3325    1.0945 C.3       4 GLC5        0.0000 
     59 CA          3.3770    9.3330    2.7790 C.3      12 GLL5        0.0000 
     60 CA          1.6540    7.3320   -0.5900 C.3       8 GLP5        0.0000 
     61 CA          1.4050    9.9010    3.4590 C.3       4 GLC5        0.0000 
     62 CA         -0.5670   10.4690    4.1390 C.3       8 GLP5        0.0000 
     63 CA          2.1915    7.7740    3.0005 C.3       4 GLC5        0.0000 
     64 CA          1.0060    6.2150    3.2220 C.3       8 GLP5        0.0000 
     65 N           1.6815    8.7690    4.5190 N.am      2 SEC2        0.0000 
     66 N           3.1440    9.2170    4.0740 N.am     10 SEL2        0.0000 
     67 N           0.2190    8.3210    4.9640 N.am      6 SEP2        0.0000 
     68 CA          4.3325   10.7610    6.0860 C.3       4 GLC5        0.0000 
     69 CA          4.1200    9.0440    4.9540 C.3      12 GLL5        0.0000 
     70 CA          4.5450   12.4780    7.2180 C.3       8 GLP5        0.0000 
     71 CA          3.5160   10.9240    4.1210 C.3       4 GLC5        0.0000 
     72 CA          2.9120   12.8040    3.2880 C.3       8 GLP5        0.0000 
     73 CA          2.5965    7.5050    4.8350 C.3       4 GLC5        0.0000 
     74 CA          1.0730    5.9660    4.7160 C.3       8 GLP5        0.0000 
     75 CA         14.7183   12.5850   -7.5273 C.3       4 GLC5        0.0000 
     76 CA         13.8390   11.2110   -5.9470 C.3      12 GLL5        0.0000 
     77 CA         14.9490   14.1690   -8.9660 C.3       8 GLP5        0.0000 
     78 CA         13.6857    9.5225   -6.5617 C.3       4 GLC5        0.0000 
     79 CA         15.1360   10.7910   -6.2300 C.3      12 GLL5        0.0000 
     80 CA         12.8840    8.0440   -7.0350 C.3       8 GLP5        0.0000 
     81 CA         12.2892   12.0115   -3.2310 C.3       4 GLC5        0.0000 
     82 CA         10.5020   12.0050   -2.1610 C.3       8 GLP5        0.0000 
     83 CA         15.0610   12.3850    0.1147 C.3       4 GLC5        0.0000 
     84 CA         13.8030   12.5010   -1.3470 C.3      12 GLL5        0.0000 
     85 CA         16.4700   12.9250    1.4540 C.3       8 GLP5        0.0000 
     86 CA         12.0770   11.9250   -1.6927 C.3       4 GLC5        0.0000 
     87 CA         13.1278   14.3800   -2.1442 C.3       4 GLC5        0.0000 
     88 CA         14.5597   12.1160    1.0040 C.3       4 GLC5        0.0000 
     89 CA         12.4680   11.7820    1.0270 C.3      12 GLL5        0.0000 
     90 CA         11.5757   11.6560   -0.8035 C.3       4 GLC5        0.0000 
     91 CA         14.8023   13.1070    0.8105 C.3       4 GLC5        0.0000 
     92 CA         11.8182   12.6470   -0.9970 C.3       4 GLC5        0.0000 
     93 CA         13.2306   12.7851    3.0294 C.3       4 GLC5        0.0000 
     94 CA         14.2720   13.6460    4.4560 C.3       8 GLP5        0.0000 
     95 CA         10.3866   12.5376    1.5934 C.3       4 GLC5        0.0000 
     96 CA         11.2812   10.8188    5.2472 C.3       4 GLC5        0.0000 
     97 CA          5.4855    7.4660    1.8458 C.3       4 GLC5        0.0000 
     98 CA          5.7650    5.7590    0.9510 C.3       8 GLP5        0.0000 
     99 CA          3.4682   11.0510    2.9140 C.3       4 GLC5        0.0000 
    100 CA          5.0860    7.3561    5.1005 C.3       4 GLC5        0.0000 
    101 CA          5.3160    5.6750    5.7950 C.3       8 GLP5        0.0000 
@<TRIPOS>BOND
@<TRIPOS>SUBSTRUCTURE
     1 ALC1       16 GROUP        1 X    ALC  0     ROOT ALC X 1
     2 SEC2       24 GROUP        1 X    SEC  0     **** SEC X 2
     3 ASC3       42 GROUP        1 X    ASC  0     **** ASC X 3
     4 GLC5        1 GROUP        1 X    GLC  0     **** GLC X 6
     5 ALP1       18 GROUP        1 Y    ALP  0     ROOT ALP Y 8
     6 SEP2       26 GROUP        1 Y    SEP  0     **** SEP Y 9
     7 ASP3       44 GROUP        1 Y    ASP  0     **** ASP Y 10
     8 GLP5        3 GROUP        1 Y    GLP  0     **** GLP Y 13
     9 ALL1       17 GROUP        1 Z    ALL  0     ROOT ALL Z 15
    10 SEL2       25 GROUP        1 Z    SEL  0     **** SEL Z 16
    11 ASL3       43 GROUP        1 Z    ASL  0     **** ASL Z 17
    12 GLL5        2 GROUP        1 Z    GLL  0     **** GLL Z 20
@<TRIPOS>SET

