#    Name: 1veb_I05_1_ligand
#    Modification time : Tue Mar 25 07:45:13 2014

@<TRIPOS>MOLECULE
1veb_I05_1_ligand
   63    66     1     0     0
SMALL
NO_CHARGES


@<TRIPOS>ATOM
      1 F96        16.8240   11.9770   -3.3020 F         1 I05351      0.0000 
      2 C76        15.8530   11.7290   -4.1690 C.ar      1 I05351      0.0000 
      3 C75        16.1500   11.0570   -5.3140 C.ar      1 I05351      0.0000 
      4 O95        17.4690   10.7100   -5.4620 O.3       1 I05351      0.0000 
      5 C97        18.0560   10.6450   -6.7560 C.3       1 I05351      0.0000 
      6 C74        15.1360   10.7910   -6.2300 C.ar      1 I05351      0.0000 
      7 C73        13.8390   11.2110   -5.9470 C.ar      1 I05351      0.0000 
      8 C72        13.5570   11.8930   -4.7480 C.ar      1 I05351      0.0000 
      9 O92        12.3110   12.2920   -4.4700 O.3       1 I05351      0.0000 
     10 C71        14.5960   12.1430   -3.8540 C.ar      1 I05351      0.0000 
     11 C61        14.5430   12.8900   -2.5590 C.2       1 I05351      0.0000 
     12 O62        15.2520   13.8790   -2.4840 O.2       1 I05351      0.0000 
     13 C54        13.8030   12.5010   -1.3470 C.ar      1 I05351      0.0000 
     14 C55        13.5010   11.1890   -1.1020 C.ar      1 I05351      0.0000 
     15 C56        12.8310   10.8320    0.0810 C.ar      1 I05351      0.0000 
     16 C53        13.4680   13.4670   -0.4180 C.ar      1 I05351      0.0000 
     17 C52        12.8010   13.1110    0.7520 C.ar      1 I05351      0.0000 
     18 C51        12.4680   11.7820    1.0270 C.ar      1 I05351      0.0000 
     19 C42        11.7440   11.4020    2.3160 C.3       1 I05351      0.0000 
     20 O41        11.1540   10.1240    2.2150 O.3       1 I05351      0.0000 
     21 C37        10.4810    9.6310    3.3640 C.3       1 I05351      0.0000 
     22 C36        11.5120    9.1520    4.3610 C.3       1 I05351      0.0000 
     23 C35        12.6820    8.3870    3.7700 C.3       1 I05351      0.0000 
     24 C34        12.3730    6.9230    3.6020 C.3       1 I05351      0.0000 
     25 N33        11.2480    6.7470    2.7220 N.4       1 I05351      0.0000 
     26 C32         9.9620    7.0790    3.2880 C.3       1 I05351      0.0000 
     27 C31         9.5220    8.5090    2.9420 C.3       1 I05351      0.0000 
     28 N23         8.1780    8.7210    3.4780 N.am      1 I05351      0.0000 
     29 C21         7.1590    8.9870    2.6590 C.2       1 I05351      0.0000 
     30 O22         7.3670    9.1610    1.4620 O.2       1 I05351      0.0000 
     31 C14         5.7400    9.0830    3.1800 C.ar      1 I05351      0.0000 
     32 C13         4.6720    9.2630    2.3010 C.ar      1 I05351      0.0000 
     33 C12         3.3770    9.3330    2.7790 C.ar      1 I05351      0.0000 
     34 N11         3.1440    9.2170    4.0740 N.ar      1 I05351      0.0000 
     35 C16         4.1200    9.0440    4.9540 C.ar      1 I05351      0.0000 
     36 C15         5.4440    8.9780    4.5360 C.ar      1 I05351      0.0000 
     37 H          15.3408   10.2939   -7.0989 H         1 I05351      0.0000 
     38 H          13.0783   11.0254   -6.6128 H         1 I05351      0.0000 
     39 H          13.7571   10.4517   -1.7730 H         1 I05351      0.0000 
     40 H          12.6054    9.8328    0.2449 H         1 I05351      0.0000 
     41 H          13.7098   14.4545   -0.5861 H         1 I05351      0.0000 
     42 H          12.5449   13.8477    1.4358 H         1 I05351      0.0000 
     43 H          10.9945   12.1885    2.5171 H         1 I05351      0.0000 
     44 H          12.4828   11.4525    3.1361 H         1 I05351      0.0000 
     45 H           9.8931   10.4145    3.8272 H         1 I05351      0.0000 
     46 H          11.0113    8.5096    5.1173 H         1 I05351      0.0000 
     47 H          11.9050   10.0272    4.9222 H         1 I05351      0.0000 
     48 H          13.5540    8.5044    4.4260 H         1 I05351      0.0000 
     49 H          12.9377    8.8216    2.7952 H         1 I05351      0.0000 
     50 H          12.1699    6.4949    4.5941 H         1 I05351      0.0000 
     51 H          13.2678    6.4226    3.2050 H         1 I05351      0.0000 
     52 H           9.9756    6.9920    4.3890 H         1 I05351      0.0000 
     53 H           9.1766    6.3921    2.9256 H         1 I05351      0.0000 
     54 H           9.4413    8.5494    1.8261 H         1 I05351      0.0000 
     55 H           8.0761    8.6527    4.5007 H         1 I05351      0.0000 
     56 H           4.8556    9.3438    1.2889 H         1 I05351      0.0000 
     57 H           2.6041    9.4778    2.0959 H         1 I05351      0.0000 
     58 H           3.9227    8.9536    5.9744 H         1 I05351      0.0000 
     59 H           6.1965    8.8531    5.2198 H         1 I05351      0.0000 
     60 H          19.0199   10.3820   -6.7138 H         1 I05351      0.0000 
     61 H          17.5951    9.9766   -7.3398 H         1 I05351      0.0000 
     62 H          18.0128   11.5255   -7.2281 H         1 I05351      0.0000 
     63 H          11.7639   11.9964   -5.2531 H         1 I05351      0.0000 
@<TRIPOS>BOND
     1    2    1 1    
     2    3    2 ar   
     3   10    2 ar   
     4    4    3 1    
     5    6    3 ar   
     6    5    4 1    
     7   60    5 1    
     8   61    5 1    
     9   62    5 1    
    10    7    6 ar   
    11   37    6 1    
    12    8    7 ar   
    13   38    7 1    
    14    9    8 1    
    15   10    8 ar   
    16   63    9 1    
    17   11   10 1    
    18   12   11 2    
    19   13   11 1    
    20   14   13 ar   
    21   16   13 ar   
    22   15   14 ar   
    23   39   14 1    
    24   18   15 ar   
    25   40   15 1    
    26   17   16 ar   
    27   41   16 1    
    28   18   17 ar   
    29   42   17 1    
    30   19   18 1    
    31   20   19 1    
    32   43   19 1    
    33   44   19 1    
    34   21   20 1    
    35   22   21 1    
    36   27   21 1    
    37   45   21 1    
    38   23   22 1    
    39   46   22 1    
    40   47   22 1    
    41   24   23 1    
    42   48   23 1    
    43   49   23 1    
    44   25   24 1    
    45   50   24 1    
    46   51   24 1    
    47   26   25 1    
    48   27   26 1    
    49   52   26 1    
    50   53   26 1    
    51   28   27 1    
    52   54   27 1    
    53   29   28 am   
    54   55   28 1    
    55   30   29 2    
    56   31   29 1    
    57   32   31 ar   
    58   36   31 ar   
    59   33   32 ar   
    60   56   32 1    
    61   34   33 ar   
    62   57   33 1    
    63   35   34 ar   
    64   36   35 ar   
    65   58   35 1    
    66   59   36 1    
@<TRIPOS>SUBSTRUCTURE
     1 I05351      1 GROUP   
@<TRIPOS>SET

