#    Name: 3ffu_GTP_2_INTS_M
#    Modification time : Tue Mar 25 04:04:20 2014

@<TRIPOS>MOLECULE
3ffu_GTP_2_INTS_M
   53     0    15     0     0
SMALL
NO_CHARGES


@<TRIPOS>ATOM
      1 NZ         10.5200   10.2675   -6.5235 N.4       3 LYC4        0.0000 
      2 NZ          9.7330   10.3000   -5.1240 N.4      13 LYL4        0.0000 
      3 NZ         11.3070   10.2350   -7.9230 N.4       8 LYP4        0.0000 
      4 N          10.5200   10.2675   -6.5235 N.am      2 SEC2        0.0000 
      5 N           9.7330   10.3000   -5.1240 N.am     12 SEL2        0.0000 
      6 N          11.3070   10.2350   -7.9230 N.am      7 SEP2        0.0000 
      7 Zn          9.0400    7.5935   -2.7265 Zn        4 ZIC7        0.0000 
      8 Zn          8.7810    7.6840   -3.7800 Zn       14 ZIL7        0.0000 
      9 Zn          9.2990    7.5030   -1.6730 Zn        9 ZIP7        0.0000 
     10 N           9.1425    6.2820   -4.5295 N.am      2 SEC2        0.0000 
     11 N           8.7810    7.6840   -3.7800 N.am     12 SEL2        0.0000 
     12 N           9.5040    4.8800   -5.2790 N.am      7 SEP2        0.0000 
     13 Zn          6.2745    7.7675   -3.1915 Zn        4 ZIC7        0.0000 
     14 Zn          6.2950    7.4290   -4.2200 Zn       14 ZIL7        0.0000 
     15 Zn          6.2540    8.1060   -2.1630 Zn        9 ZIP7        0.0000 
     16 Zn          5.2645    7.5255   -4.5500 Zn        4 ZIC7        0.0000 
     17 Zn          4.2340    7.6220   -4.8800 Zn        9 ZIP7        0.0000 
     18 Zn          4.8100    7.7970   -5.7800 Zn        4 ZIC7        0.0000 
     19 Zn          5.3860    7.9720   -6.6800 Zn       14 ZIL7        0.0000 
     20 NZ          5.9840    9.6970   -8.4640 N.4       3 LYC4        0.0000 
     21 NZ          6.9700    9.5490   -7.7910 N.4      13 LYL4        0.0000 
     22 NZ          4.3830   10.8030   -9.8170 N.4       8 LYP4        0.0000 
     23 N           5.9840    9.6970   -8.4640 N.am      2 SEC2        0.0000 
     24 N           6.9700    9.5490   -7.7910 N.am     12 SEL2        0.0000 
     25 N           4.9980    9.8450   -9.1370 N.am      7 SEP2        0.0000 
     26 CA          9.7480    7.8855   -8.5305 C.3       5 GLC5        0.0000 
     27 CA          8.1890    7.0380   -9.1270 C.3      15 GLL5        0.0000 
     28 CA         11.3070    8.7330   -7.9340 C.3      10 GLP5        0.0000 
     29 CA          7.3990    5.6640  -13.4585 C.3       5 GLC5        0.0000 
     30 CA          6.3980    6.5940  -12.2440 C.3      15 GLL5        0.0000 
     31 CA          8.4000    4.7340  -14.6730 C.3      10 GLP5        0.0000 
     32 CA          1.5040    5.8235  -11.4145 C.3       5 GLC5        0.0000 
     33 CA          3.2100    4.8070  -12.1400 C.3      15 GLL5        0.0000 
     34 CA         -0.2020    6.8400  -10.6890 C.3      10 GLP5        0.0000 
     35 CA          2.2840    6.1030  -13.4560 C.3       5 GLC5        0.0000 
     36 CA          1.3580    7.3990  -14.7720 C.3      10 GLP5        0.0000 
     37 N          -0.0370    3.9315  -10.8900 N.am      2 SEC2        0.0000 
     38 N           1.2060    3.7080  -11.8070 N.am     12 SEL2        0.0000 
     39 N          -1.2800    4.1550   -9.9730 N.am      7 SEP2        0.0000 
     40 N           0.6980    3.6210  -13.1150 N.am      2 SEC2        0.0000 
     41 N           0.1900    3.5340  -14.4230 N.am      7 SEP2        0.0000 
     42 O           1.4725    4.2390   -9.0090 O.2       1 ALC1        0.0000 
     43 O           2.2300    4.5160   -9.9760 O.2      11 ALL1        0.0000 
     44 O           0.7150    3.9620   -8.0420 O.2       6 ALP1        0.0000 
     45 O           2.9520    6.2180   -6.9435 O.2       1 ALC1        0.0000 
     46 O           3.3750    5.3960   -8.0960 O.2      11 ALL1        0.0000 
     47 O           2.5290    7.0400   -5.7910 O.2       6 ALP1        0.0000 
     48 CA          8.8475    5.5215   -9.9715 C.3       5 GLC5        0.0000 
     49 CA          7.9790    7.1260  -10.6410 C.3      15 GLL5        0.0000 
     50 CA          9.6110    3.9610  -10.0590 C.3      10 GLP5        0.0000 
     51 CA          4.4635    3.6543  -12.1633 C.3       5 GLC5        0.0000 
     52 CA          4.2600    5.4760  -11.5350 C.3      15 GLL5        0.0000 
     53 CA          5.1920    2.1670  -12.4890 C.3      10 GLP5        0.0000 
@<TRIPOS>BOND
@<TRIPOS>SUBSTRUCTURE
     1 ALC1       42 GROUP        1 X    ALC  0     ROOT ALC X 1
     2 SEC2        4 GROUP        1 X    SEC  0     **** SEC X 2
     3 LYC4        1 GROUP        1 X    LYC  0     **** LYC X 4
     4 ZIC7        7 GROUP        1 X    ZIC  0     **** ZIC X 5
     5 GLC5       26 GROUP        1 X    GLC  0     **** GLC X 6
     6 ALP1       44 GROUP        1 Y    ALP  0     ROOT ALP Y 8
     7 SEP2        6 GROUP        1 Y    SEP  0     **** SEP Y 9
     8 LYP4        3 GROUP        1 Y    LYP  0     **** LYP Y 11
     9 ZIP7        9 GROUP        1 Y    ZIP  0     **** ZIP Y 12
    10 GLP5       28 GROUP        1 Y    GLP  0     **** GLP Y 13
    11 ALL1       43 GROUP        1 Z    ALL  0     ROOT ALL Z 15
    12 SEL2        5 GROUP        1 Z    SEL  0     **** SEL Z 16
    13 LYL4        2 GROUP        1 Z    LYL  0     **** LYL Z 18
    14 ZIL7        8 GROUP        1 Z    ZIL  0     **** ZIL Z 19
    15 GLL5       27 GROUP        1 Z    GLL  0     **** GLL Z 20
@<TRIPOS>SET

