#    Name: 3ffu_GTP_2_ligand
#    Modification time : Tue Mar 25 04:04:20 2014

@<TRIPOS>MOLECULE
3ffu_GTP_2_ligand
   44    46     1     0     0
SMALL
NO_CHARGES


@<TRIPOS>ATOM
      1 PG          8.3700   10.9060   -4.7820 P.3       1 GTP4032     0.0000 
      2 O1G         8.5090   11.8280   -3.5770 O.co2     1 GTP4032     0.0000 
      3 O2G         9.7330   10.3000   -5.1240 O.co2     1 GTP4032     0.0000 
      4 O3G         7.8570   11.7130   -5.9740 O.co2     1 GTP4032     0.0000 
      5 O3B         7.3020    9.7370   -4.3830 O.3       1 GTP4032     0.0000 
      6 PB          7.5740    8.1520   -4.5690 P.3       1 GTP4032     0.0000 
      7 O1B         8.7810    7.6840   -3.7800 O.co2     1 GTP4032     0.0000 
      8 O2B         6.2950    7.4290   -4.2200 O.co2     1 GTP4032     0.0000 
      9 O3A         7.8840    7.8800   -6.1370 O.3       1 GTP4032     0.0000 
     10 PA          6.7580    8.1570   -7.2560 P.3       1 GTP4032     0.0000 
     11 O1A         5.3860    7.9720   -6.6800 O.co2     1 GTP4032     0.0000 
     12 O2A         6.9700    9.5490   -7.7910 O.co2     1 GTP4032     0.0000 
     13 O5'         6.9800    7.0750   -8.4190 O.3       1 GTP4032     0.0000 
     14 C5'         8.1890    7.0380   -9.1270 C.3       1 GTP4032     0.0000 
     15 C4'         7.9790    7.1260  -10.6410 C.3       1 GTP4032     0.0000 
     16 O4'         7.1930    6.0710  -11.1970 O.3       1 GTP4032     0.0000 
     17 C3'         7.3250    8.4340  -11.0420 C.3       1 GTP4032     0.0000 
     18 O3'         8.1770    9.1120  -11.9500 O.3       1 GTP4032     0.0000 
     19 C2'         6.0540    7.9700  -11.7200 C.3       1 GTP4032     0.0000 
     20 O2'         5.7010    8.7800  -12.8030 O.3       1 GTP4032     0.0000 
     21 C1'         6.3980    6.5940  -12.2440 C.3       1 GTP4032     0.0000 
     22 N9          5.1460    5.8480  -12.5090 N.pl3     1 GTP4032     0.0000 
     23 C8          4.6440    5.4250  -13.7190 C.2       1 GTP4032     0.0000 
     24 N7          3.4690    4.7950  -13.4710 N.2       1 GTP4032     0.0000 
     25 C5          3.2100    4.8070  -12.1400 C.2       1 GTP4032     0.0000 
     26 C6          2.1770    4.3130  -11.3380 C.2       1 GTP4032     0.0000 
     27 O6          1.2060    3.7080  -11.8070 O.2       1 GTP4032     0.0000 
     28 N1          2.2300    4.5160   -9.9760 N.am      1 GTP4032     0.0000 
     29 C2          3.2980    5.1880   -9.4040 C.2       1 GTP4032     0.0000 
     30 N2          3.3750    5.3960   -8.0960 N.pl3     1 GTP4032     0.0000 
     31 N3          4.3140    5.6520  -10.1940 N.2       1 GTP4032     0.0000 
     32 C4          4.2600    5.4760  -11.5350 C.2       1 GTP4032     0.0000 
     33 H           8.7591    6.1056   -8.9327 H         1 GTP4032     0.0000 
     34 H           8.8647    7.8722   -8.8447 H         1 GTP4032     0.0000 
     35 H           8.9807    7.1274  -11.1154 H         1 GTP4032     0.0000 
     36 H           7.0854    8.9703  -10.1775 H         1 GTP4032     0.0000 
     37 H           5.2934    7.8617  -10.9893 H         1 GTP4032     0.0000 
     38 H           6.9659    6.7329  -13.1379 H         1 GTP4032     0.0000 
     39 H           5.0554    5.5566  -14.5676 H         1 GTP4032     0.0000 
     40 H           1.4662    4.1643   -9.3718 H         1 GTP4032     0.0000 
     41 H           2.9415    6.2310   -7.7569 H         1 GTP4032     0.0000 
     42 H           3.8596    4.6990   -7.5674 H         1 GTP4032     0.0000 
     43 H           8.8833    8.4456  -12.1888 H         1 GTP4032     0.0000 
     44 H           6.5363    9.2776  -13.0369 H         1 GTP4032     0.0000 
@<TRIPOS>BOND
     1    2    1 ar   
     2    3    1 ar   
     3    4    1 ar   
     4    5    1 1    
     5    6    5 1    
     6    7    6 ar   
     7    8    6 ar   
     8    9    6 1    
     9   10    9 1    
    10   11   10 ar   
    11   12   10 ar   
    12   13   10 1    
    13   14   13 1    
    14   15   14 1    
    15   33   14 1    
    16   34   14 1    
    17   16   15 1    
    18   17   15 1    
    19   35   15 1    
    20   21   16 1    
    21   18   17 1    
    22   19   17 1    
    23   36   17 1    
    24   43   18 1    
    25   20   19 1    
    26   21   19 1    
    27   37   19 1    
    28   44   20 1    
    29   22   21 1    
    30   38   21 1    
    31   23   22 1    
    32   32   22 1    
    33   24   23 2    
    34   39   23 1    
    35   25   24 1    
    36   26   25 1    
    37   32   25 2    
    38   27   26 2    
    39   28   26 am   
    40   29   28 1    
    41   40   28 1    
    42   30   29 1    
    43   31   29 2    
    44   41   30 1    
    45   42   30 1    
    46   32   31 1    
@<TRIPOS>SUBSTRUCTURE
     1 GTP4032     1 GROUP   
@<TRIPOS>SET

