#    Name: 4BUV_2_CAVITY_N1_6.mol2
#    Modification time : Tue Mar 11 20:31:23 2014

@<TRIPOS>MOLECULE
4BUV_2_CAVITY_N1_6.mol2
   77     0     7     0     0
SMALL
NO_CHARGES


@<TRIPOS>ATOM
      1 O          -8.7972  -41.1979   14.8882 O.2       2 ALA2        0.0000 
      2 N          -7.9796  -42.4519   14.9832 N.2       2 ALA2        0.0000 
      3 CZ         -9.8466  -41.9407   14.1155 C.ar      5 PHE5        0.0000 
      4 N          -9.0290  -43.1947   14.2105 N.2       2 ALA2        0.0000 
      5 CA        -10.0783  -43.9375   13.4378 C.3       6 GLY6        0.0000 
      6 CA         -7.6038  -41.6423   22.4299 C.3       6 GLY6        0.0000 
      7 N          -6.7862  -42.8963   22.5250 N.2       2 ALA2        0.0000 
      8 CA         -9.4708  -41.1311   21.5622 C.3       6 GLY6        0.0000 
      9 DU         -8.6531  -42.3851   21.6572 H         7 CUB7        0.0000 
     10 N          -7.8355  -43.6391   21.7523 N.2       2 ALA2        0.0000 
     11 CZ        -10.5201  -41.8739   20.7894 C.ar      5 PHE5        0.0000 
     12 CA         -9.7025  -43.1279   20.8845 C.3       6 GLY6        0.0000 
     13 CA         -8.8849  -44.3819   20.9795 C.3       6 GLY6        0.0000 
     14 OG        -15.7669  -45.5879   16.9258 O.2       1 SER1        0.0000 
     15 CZ        -14.9493  -46.8418   17.0209 C.ar      5 PHE5        0.0000 
     16 CZ        -14.1317  -48.0958   17.1159 C.ar      5 PHE5        0.0000 
     17 OG        -16.8163  -46.3306   16.1531 O.2       1 SER1        0.0000 
     18 CA        -15.9987  -47.5846   16.2481 C.3       6 GLY6        0.0000 
     19 CA        -15.1811  -48.8386   16.3432 C.3       6 GLY6        0.0000 
     20 OG         -6.9107  -41.2876   21.1478 O.2       1 SER1        0.0000 
     21 N          -6.0931  -42.5416   21.2429 N.2       2 ALA2        0.0000 
     22 N          -7.9601  -42.0304   20.3751 N.2       2 ALA2        0.0000 
     23 N          -7.1425  -43.2844   20.4701 N.2       2 ALA2        0.0000 
     24 CZ         -9.0094  -42.7732   19.6024 C.ar      5 PHE5        0.0000 
     25 CA         -8.1918  -44.0272   19.6974 C.3       6 GLY6        0.0000 
     26 CA         -7.3742  -45.2812   19.7925 C.3       6 GLY6        0.0000 
     27 CZ        -10.0588  -43.5160   18.8296 C.ar      5 PHE5        0.0000 
     28 CA         -9.2412  -44.7700   18.9247 C.3       6 GLY6        0.0000 
     29 OG        -13.2069  -45.7443   16.5114 O.2       1 SER1        0.0000 
     30 CZ        -12.3893  -46.9983   16.6065 C.ar      5 PHE5        0.0000 
     31 OG        -14.2563  -46.4871   15.7387 O.2       1 SER1        0.0000 
     32 CZ        -13.4386  -47.7411   15.8338 C.ar      5 PHE5        0.0000 
     33 OD1       -16.9409  -44.7220   14.7759 O.3       3 ASP3        0.0000 
     34 OG        -16.1232  -45.9759   14.8709 O.2       1 SER1        0.0000 
     35 NZ        -15.3056  -47.2299   14.9660 N.2       4 LYS4        0.0000 
     36 CA        -14.4880  -48.4839   15.0611 C.3       6 GLY6        0.0000 
     37 CA        -17.1726  -46.7187   14.0982 C.3       6 GLY6        0.0000 
     38 CA        -16.3550  -47.9727   14.1933 C.3       6 GLY6        0.0000 
     39 N          -7.2670  -41.6757   19.0930 N.2       2 ALA2        0.0000 
     40 N          -6.4494  -42.9297   19.1880 N.2       2 ALA2        0.0000 
     41 N          -8.3164  -42.4185   18.3202 N.2       2 ALA2        0.0000 
     42 DU         -7.4988  -43.6725   18.4153 H         7 CUB7        0.0000 
     43 N          -6.6811  -44.9265   18.5103 N.2       2 ALA2        0.0000 
     44 CZ         -9.3657  -43.1613   17.5475 C.ar      5 PHE5        0.0000 
     45 CA         -8.5481  -44.4153   17.6426 C.3       6 GLY6        0.0000 
     46 CZ        -10.4151  -43.9041   16.7748 C.ar      5 PHE5        0.0000 
     47 OG        -12.5138  -45.3896   15.2293 O.2       1 SER1        0.0000 
     48 OG        -14.3808  -44.8785   14.3615 O.2       1 SER1        0.0000 
     49 NZ        -13.5632  -46.1324   14.4566 N.2       4 LYS4        0.0000 
     50 CZ        -12.7456  -47.3864   14.5517 C.ar      5 PHE5        0.0000 
     51 NZ        -15.4302  -45.6212   13.5888 N.2       4 LYS4        0.0000 
     52 N          -7.6233  -42.0638   17.0381 N.2       2 ALA2        0.0000 
     53 CZ         -9.4903  -41.5526   16.1703 C.ar      5 PHE5        0.0000 
     54 N          -8.6727  -42.8066   16.2654 N.2       2 ALA2        0.0000 
     55 N          -7.8551  -44.0606   16.3604 N.2       2 ALA2        0.0000 
     56 CA         -9.7220  -43.5494   15.4926 C.3       6 GLY6        0.0000 
     57 CA        -10.7714  -44.2922   14.7199 C.3       6 GLY6        0.0000 
     58 O          -7.8160  -43.2176   27.1441 O.2       2 ALA2        0.0000 
     59 O          -6.9984  -44.4716   27.2392 O.2       2 ALA2        0.0000 
     60 CA         -9.6830  -42.7064   26.2763 C.3       6 GLY6        0.0000 
     61 DU         -8.8653  -43.9604   26.3714 H         7 CUB7        0.0000 
     62 CA         -9.9147  -44.7032   25.5987 C.3       6 GLY6        0.0000 
     63 N          -9.0971  -45.9572   25.6937 N.2       2 ALA2        0.0000 
     64 CA         -8.7582  -40.3550   25.6719 C.3       6 GLY6        0.0000 
     65 CZ         -7.9405  -41.6089   25.7669 C.ar      5 PHE5        0.0000 
     66 CA        -10.6251  -39.8438   24.8041 C.3       6 GLY6        0.0000 
     67 CA         -9.8075  -41.0977   24.8991 C.3       6 GLY6        0.0000 
     68 CA         -8.9899  -42.3517   24.9942 C.3       6 GLY6        0.0000 
     69 N          -8.1723  -43.6057   25.0893 N.2       2 ALA2        0.0000 
     70 N          -7.3547  -44.8597   25.1843 N.2       2 ALA2        0.0000 
     71 CA         -9.2216  -44.3485   24.3165 C.3       6 GLY6        0.0000 
     72 CA         -9.1145  -40.7430   23.6170 C.3       6 GLY6        0.0000 
     73 CZ         -8.2968  -41.9970   23.7121 C.ar      5 PHE5        0.0000 
     74 N          -7.4792  -43.2510   23.8071 N.2       2 ALA2        0.0000 
     75 CA        -10.1638  -41.4858   22.8443 C.3       6 GLY6        0.0000 
     76 CA         -9.3462  -42.7398   22.9393 C.3       6 GLY6        0.0000 
     77 N          -8.5286  -43.9938   23.0344 N.2       2 ALA2        0.0000 
@<TRIPOS>BOND
@<TRIPOS>SUBSTRUCTURE
     1 SER1       14 GROUP   
     2 ALA2        1 GROUP   
     3 ASP3       33 GROUP   
     4 LYS4       35 GROUP   
     5 PHE5        3 GROUP   
     6 GLY6        5 GROUP   
     7 CUB7        9 GROUP   
@<TRIPOS>SET

