#    Name: 4buv_16I_2_INTS_M
#    Modification time : Tue Mar 25 08:26:13 2014

@<TRIPOS>MOLECULE
4buv_16I_2_INTS_M
   49     0     9     0     0
SMALL
NO_CHARGES


@<TRIPOS>ATOM
      1 CA        -10.2590  -42.9990   24.5815 C.3       3 GLC5        0.0000 
      2 CA         -8.2820  -42.2780   25.2870 C.3       9 GLL5        0.0000 
      3 CA        -12.2360  -43.7200   23.8760 C.3       6 GLP5        0.0000 
      4 O          -7.8180  -40.7825   16.9875 O.2       1 ALC1        0.0000 
      5 O          -8.4350  -41.9630   16.5380 O.2       7 ALL1        0.0000 
      6 O          -7.2010  -39.6020   17.4370 O.2       4 ALP1        0.0000 
      7 N          -7.2710  -40.0350   14.6665 N.am      2 SEC2        0.0000 
      8 N          -8.0530  -41.2110   14.4290 N.am      8 SEL2        0.0000 
      9 N          -6.4890  -38.8590   14.9040 N.am      5 SEP2        0.0000 
     10 N          -8.1620  -40.5540   13.1255 N.am      2 SEC2        0.0000 
     11 N          -8.2710  -39.8970   11.8220 N.am      5 SEP2        0.0000 
     12 CA        -12.8415  -43.5260   12.9945 C.3       3 GLC5        0.0000 
     13 CA        -11.5090  -44.8830   13.7680 C.3       9 GLL5        0.0000 
     14 CA        -14.1740  -42.1690   12.2210 C.3       6 GLP5        0.0000 
     15 CA         -8.1105  -43.8765   12.4465 C.3       3 GLC5        0.0000 
     16 CA         -9.8790  -43.1200   13.2600 C.3       9 GLL5        0.0000 
     17 CA         -6.3420  -44.6330   11.6330 C.3       6 GLP5        0.0000 
     18 CA         -9.9990  -40.9110   13.0140 C.3       3 GLC5        0.0000 
     19 CA        -10.1190  -38.7020   12.7680 C.3       6 GLP5        0.0000 
     20 CA         -8.2645  -39.4420   25.0125 C.3       3 GLC5        0.0000 
     21 CA         -8.5930  -41.0000   26.4250 C.3       9 GLL5        0.0000 
     22 CA         -7.9360  -37.8840   23.6000 C.3       6 GLP5        0.0000 
     23 CA         -7.6437  -40.4010   21.6870 C.3       3 GLC5        0.0000 
     24 CA         -8.2640  -42.7280   21.5710 C.3       9 GLL5        0.0000 
     25 CA         -7.4790  -38.3510   22.2530 C.3       6 GLP5        0.0000 
     26 CA         -6.2860  -40.6645   19.7817 C.3       3 GLC5        0.0000 
     27 CA         -7.3530  -42.1740   20.6710 C.3       9 GLL5        0.0000 
     28 CA         -5.0700  -39.1540   19.5720 C.3       6 GLP5        0.0000 
     29 CA         -9.4488  -40.9005   18.4380 C.3       3 GLC5        0.0000 
     30 CA         -7.6510  -42.1760   19.3120 C.3       9 GLL5        0.0000 
     31 CA        -10.6450  -39.3510   17.7980 C.3       6 GLP5        0.0000 
     32 CA        -11.1205  -43.0840   21.5475 C.3       3 GLC5        0.0000 
     33 CA         -9.7420  -43.3210   19.7290 C.3       9 GLL5        0.0000 
     34 CA        -12.6480  -42.8600   22.6800 C.3       6 GLP5        0.0000 
     35 CA         -9.3137  -44.9715   19.9138 C.3       3 GLC5        0.0000 
     36 CA         -9.4040  -46.9270   20.1980 C.3       6 GLP5        0.0000 
     37 CA         -9.1620  -44.9495   15.1855 C.3       3 GLC5        0.0000 
     38 CA        -10.3270  -43.8520   15.6030 C.3       9 GLL5        0.0000 
     39 CA         -8.3510  -46.4790   15.2460 C.3       6 GLP5        0.0000 
     40 CA         -9.8697  -45.6580   14.8510 C.3       3 GLC5        0.0000 
     41 CA        -11.2680  -44.7910   15.1440 C.3       9 GLL5        0.0000 
     42 CA        -11.7853  -45.2632   11.4848 C.3       3 GLC5        0.0000 
     43 CA        -12.4070  -46.0460    9.6690 C.3       6 GLP5        0.0000 
     44 CA         -9.3498  -45.0390   14.1463 C.3       3 GLC5        0.0000 
     45 CA        -10.8180  -44.0780   12.8330 C.3       9 GLL5        0.0000 
     46 CA        -10.0352  -42.9195   11.3252 C.3       3 GLC5        0.0000 
     47 CA         -9.7220  -42.2400    9.6040 C.3       6 GLP5        0.0000 
     48 CA        -11.6867  -42.7975   12.1288 C.3       3 GLC5        0.0000 
     49 CA        -13.0250  -41.9960   11.2110 C.3       6 GLP5        0.0000 
@<TRIPOS>BOND
@<TRIPOS>SUBSTRUCTURE
     1 ALC1        4 GROUP        1 X    ALC  0     ROOT ALC X 1
     2 SEC2        7 GROUP        1 X    SEC  0     **** SEC X 2
     3 GLC5        1 GROUP        1 X    GLC  0     **** GLC X 6
     4 ALP1        6 GROUP        1 Y    ALP  0     ROOT ALP Y 8
     5 SEP2        9 GROUP        1 Y    SEP  0     **** SEP Y 9
     6 GLP5        3 GROUP        1 Y    GLP  0     **** GLP Y 13
     7 ALL1        5 GROUP        1 Z    ALL  0     ROOT ALL Z 15
     8 SEL2        8 GROUP        1 Z    SEL  0     **** SEL Z 16
     9 GLL5        2 GROUP        1 Z    GLL  0     **** GLL Z 20
@<TRIPOS>SET

