#    Name: 4buv_16I_2_ligand
#    Modification time : Tue Mar 25 08:26:13 2014

@<TRIPOS>MOLECULE
4buv_16I_2_ligand
   38    41     1     0     0
SMALL
NO_CHARGES


@<TRIPOS>ATOM
      1 O          -9.3970  -41.1430   23.5550 O.2       1 16I2165     0.0000 
      2 C4         -8.6050  -42.0160   23.8370 C.2       1 16I2165     0.0000 
      3 C3         -8.2820  -42.2780   25.2870 C.2       1 16I2165     0.0000 
      4 C1         -7.7310  -43.3700   25.9560 C.2       1 16I2165     0.0000 
      5 C          -7.6000  -43.1420   27.3350 C.2       1 16I2165     0.0000 
      6 N          -7.9760  -42.7420   22.9090 N.am      1 16I2165     0.0000 
      7 C5         -8.2640  -42.7280   21.5710 C.ar      1 16I2165     0.0000 
      8 C6         -7.3530  -42.1740   20.6710 C.ar      1 16I2165     0.0000 
      9 C7         -7.6510  -42.1760   19.3120 C.ar      1 16I2165     0.0000 
     10 C10        -9.4440  -43.2950   21.1010 C.ar      1 16I2165     0.0000 
     11 C9         -9.7420  -43.3210   19.7290 C.ar      1 16I2165     0.0000 
     12 C8         -8.8540  -42.7240   18.8440 C.ar      1 16I2165     0.0000 
     13 C11        -9.1280  -42.7620   17.3720 C.2       1 16I2165     0.0000 
     14 N2         -8.4350  -41.9630   16.5380 N.am      1 16I2165     0.0000 
     15 C18        -8.6590  -41.9910   15.2000 C.2       1 16I2165     0.0000 
     16 O1         -8.0530  -41.2110   14.4290 O.2       1 16I2165     0.0000 
     17 C19        -8.0190  -41.8940   27.8000 C.2       1 16I2165     0.0000 
     18 N1        -10.0300  -43.6880   16.9330 N.2       1 16I2165     0.0000 
     19 C12       -10.3270  -43.8520   15.6030 C.ar      1 16I2165     0.0000 
     20 C17        -9.6190  -42.9880   14.6470 C.ar      1 16I2165     0.0000 
     21 C13       -11.2680  -44.7910   15.1440 C.ar      1 16I2165     0.0000 
     22 C14       -11.5090  -44.8830   13.7680 C.ar      1 16I2165     0.0000 
     23 C15       -10.8180  -44.0780   12.8330 C.ar      1 16I2165     0.0000 
     24 C16        -9.8790  -43.1200   13.2600 C.ar      1 16I2165     0.0000 
     25 S          -8.5930  -41.0000   26.4250 S.3       1 16I2165     0.0000 
     26 H          -7.4655  -44.1988   25.5209 H         1 16I2165     0.0000 
     27 H          -7.2264  -43.8381   27.9479 H         1 16I2165     0.0000 
     28 H          -7.1790  -43.3926   23.2245 H         1 16I2165     0.0000 
     29 H          -6.4758  -41.7711   21.0086 H         1 16I2165     0.0000 
     30 H          -6.9837  -41.7716   18.6381 H         1 16I2165     0.0000 
     31 H         -10.1177  -43.7063   21.7694 H         1 16I2165     0.0000 
     32 H         -10.5922  -43.7694   19.3977 H         1 16I2165     0.0000 
     33 H          -7.7126  -41.3098   16.9230 H         1 16I2165     0.0000 
     34 H          -8.0631  -41.4681   28.5757 H         1 16I2165     0.0000 
     35 H         -11.7609  -45.3886   15.7995 H         1 16I2165     0.0000 
     36 H         -12.2128  -45.5586   13.4186 H         1 16I2165     0.0000 
     37 H         -11.0056  -44.1959   11.8296 H         1 16I2165     0.0000 
     38 H          -9.3953  -42.5332   12.5910 H         1 16I2165     0.0000 
@<TRIPOS>BOND
     1    2    1 2    
     2    3    2 1    
     3    6    2 am   
     4    4    3 2    
     5   25    3 1    
     6    5    4 1    
     7   26    4 1    
     8   17    5 2    
     9   27    5 1    
    10    7    6 1    
    11   28    6 1    
    12    8    7 ar   
    13   10    7 ar   
    14    9    8 ar   
    15   29    8 1    
    16   12    9 ar   
    17   30    9 1    
    18   11   10 ar   
    19   31   10 1    
    20   12   11 ar   
    21   32   11 1    
    22   13   12 1    
    23   14   13 1    
    24   18   13 2    
    25   15   14 am   
    26   33   14 1    
    27   16   15 2    
    28   20   15 1    
    29   25   17 1    
    30   34   17 1    
    31   19   18 1    
    32   20   19 ar   
    33   21   19 ar   
    34   24   20 ar   
    35   22   21 ar   
    36   35   21 1    
    37   23   22 ar   
    38   36   22 1    
    39   24   23 ar   
    40   37   23 1    
    41   38   24 1    
@<TRIPOS>SUBSTRUCTURE
     1 16I2165     1 GROUP   
@<TRIPOS>SET

