#    Name: 2YBU_9_CAVITY_N1_6.mol2
#    Modification time : Tue Mar 11 03:16:44 2014

@<TRIPOS>MOLECULE
2YBU_9_CAVITY_N1_6.mol2
  140     0     6     0     0
SMALL
NO_CHARGES


@<TRIPOS>ATOM
      1 NZ          0.8987  -32.3412 -124.9782 N.2       3 LYS4        0.0000 
      2 N           1.1554  -31.6670 -126.2933 N.2       2 ALA2        0.0000 
      3 NZ         -0.0859  -33.2586 -125.6406 N.2       3 LYS4        0.0000 
      4 N           0.1708  -32.5844 -126.9558 N.2       2 ALA2        0.0000 
      5 N           0.4275  -31.9103 -128.2709 N.2       2 ALA2        0.0000 
      6 NZ          1.5311  -25.7417 -121.4716 N.2       3 LYS4        0.0000 
      7 DU          1.7879  -25.0675 -122.7868 H         6 CUB7        0.0000 
      8 NZ          0.2898  -27.3332 -120.8190 N.2       3 LYS4        0.0000 
      9 NZ          0.5465  -26.6590 -122.1341 N.2       3 LYS4        0.0000 
     10 NZ          0.8032  -25.9849 -123.4492 N.2       3 LYS4        0.0000 
     11 CA          1.0599  -25.3107 -124.7644 C.3       5 GLY6        0.0000 
     12 O          -4.7728  -34.4883 -123.7642 O.2       2 ALA2        0.0000 
     13 O          -4.5161  -33.8142 -125.0793 O.2       2 ALA2        0.0000 
     14 NZ         -1.2099  -36.7442 -125.9360 N.2       3 LYS4        0.0000 
     15 N          -2.4512  -38.3358 -125.2833 N.2       2 ALA2        0.0000 
     16 CA         -2.1945  -37.6616 -126.5985 C.3       5 GLY6        0.0000 
     17 NZ         -0.4163  -23.1141 -122.2157 N.2       3 LYS4        0.0000 
     18 OG         -0.1596  -22.4399 -123.5308 O.2       1 SER1        0.0000 
     19 NZ         -1.1442  -23.3573 -124.1933 N.2       3 LYS4        0.0000 
     20 NZ         -0.3645  -38.3951 -124.9064 N.2       3 LYS4        0.0000 
     21 N          -1.3492  -39.3124 -125.5689 N.2       2 ALA2        0.0000 
     22 CA         -1.0925  -38.6383 -126.8840 C.3       5 GLY6        0.0000 
     23 NZ         -0.6949  -28.2506 -121.4814 N.2       3 LYS4        0.0000 
     24 NZ         -0.4382  -27.5764 -122.7966 N.2       3 LYS4        0.0000 
     25 NZ         -0.1815  -26.9022 -124.1117 N.2       3 LYS4        0.0000 
     26 CA          0.0753  -26.2281 -125.4269 C.3       5 GLY6        0.0000 
     27 CA         -1.6795  -29.1680 -122.1439 C.3       5 GLY6        0.0000 
     28 DU         -1.4228  -28.4938 -123.4590 H         6 CUB7        0.0000 
     29 DU         -1.1661  -27.8196 -124.7742 H         6 CUB7        0.0000 
     30 CA         -0.9094  -27.1455 -126.0893 C.3       5 GLY6        0.0000 
     31 O          -0.6527  -26.4713 -127.4045 O.2       2 ALA2        0.0000 
     32 CA         -2.9209  -30.7595 -121.4912 C.3       5 GLY6        0.0000 
     33 CA         -2.6642  -30.0853 -122.8064 C.3       5 GLY6        0.0000 
     34 O          -2.4075  -29.4112 -124.1215 O.2       2 ALA2        0.0000 
     35 CZ         -2.1508  -28.7370 -125.4367 C.ar      4 PHE5        0.0000 
     36 CZ         -1.8941  -28.0628 -126.7518 C.ar      4 PHE5        0.0000 
     37 O          -1.6373  -27.3887 -128.0669 O.2       2 ALA2        0.0000 
     38 CA         -3.9055  -31.6769 -122.1537 C.3       5 GLY6        0.0000 
     39 O          -3.6488  -31.0027 -123.4689 O.2       2 ALA2        0.0000 
     40 O          -3.3921  -30.3286 -124.7840 O.2       2 ALA2        0.0000 
     41 CZ         -3.1354  -29.6544 -126.0991 C.ar      4 PHE5        0.0000 
     42 CZ         -2.6220  -28.3060 -128.7294 C.ar      4 PHE5        0.0000 
     43 CA         -4.8902  -32.5943 -122.8162 C.3       5 GLY6        0.0000 
     44 O          -4.6335  -31.9201 -124.1313 O.2       2 ALA2        0.0000 
     45 O          -4.3768  -31.2459 -125.4465 O.2       2 ALA2        0.0000 
     46 O          -5.6182  -32.8375 -124.7938 O.2       2 ALA2        0.0000 
     47 O          -3.4359  -39.2531 -125.9458 O.2       2 ALA2        0.0000 
     48 CA         -3.1792  -38.5790 -127.2609 C.3       5 GLY6        0.0000 
     49 O          -1.0706  -34.1760 -126.3031 O.2       2 ALA2        0.0000 
     50 CZ         -0.8139  -33.5018 -127.6183 C.ar      4 PHE5        0.0000 
     51 O          -2.3119  -35.7675 -125.6504 O.2       2 ALA2        0.0000 
     52 O          -3.5533  -37.3591 -124.9978 O.2       2 ALA2        0.0000 
     53 NZ          0.6858  -24.0908 -122.5012 N.2       3 LYS4        0.0000 
     54 NZ          0.9425  -23.4166 -123.8164 N.2       3 LYS4        0.0000 
     55 NZ         -0.2989  -25.0082 -123.1637 N.2       3 LYS4        0.0000 
     56 NZ         -0.0422  -24.3340 -124.4788 N.2       3 LYS4        0.0000 
     57 NZ         -1.2835  -25.9256 -123.8262 N.2       3 LYS4        0.0000 
     58 NZ         -1.0268  -25.2514 -125.1413 N.2       3 LYS4        0.0000 
     59 OG         -2.7816  -28.1913 -121.8584 O.2       1 SER1        0.0000 
     60 NZ         -2.5249  -27.5171 -123.1735 N.2       3 LYS4        0.0000 
     61 NZ         -2.2682  -26.8429 -124.4886 N.2       3 LYS4        0.0000 
     62 DU         -2.0115  -26.1688 -125.8038 H         6 CUB7        0.0000 
     63 NZ         -1.7548  -25.4946 -127.1189 N.2       3 LYS4        0.0000 
     64 CZ         -4.0230  -29.7828 -121.2057 C.ar      4 PHE5        0.0000 
     65 O          -3.7663  -29.1087 -122.5208 O.2       2 ALA2        0.0000 
     66 O          -3.5095  -28.4345 -123.8360 O.2       2 ALA2        0.0000 
     67 CZ         -3.2528  -27.7603 -125.1511 C.ar      4 PHE5        0.0000 
     68 CZ         -2.9961  -27.0861 -126.4663 C.ar      4 PHE5        0.0000 
     69 CZ         -2.7394  -26.4120 -127.7814 C.ar      4 PHE5        0.0000 
     70 CZ         -5.0076  -30.7002 -121.8682 C.ar      4 PHE5        0.0000 
     71 DU          2.7506  -28.6124 -122.7052 H         6 CUB7        0.0000 
     72 CA          3.0073  -27.9382 -124.0203 C.3       5 GLY6        0.0000 
     73 DU          1.7660  -29.5298 -123.3677 H         6 CUB7        0.0000 
     74 CA          2.0227  -28.8556 -124.6828 C.3       5 GLY6        0.0000 
     75 DU          0.7813  -30.4472 -124.0302 H         6 CUB7        0.0000 
     76 DU          1.0380  -29.7730 -125.3453 H         6 CUB7        0.0000 
     77 O           1.2947  -29.0988 -126.6604 O.2       2 ALA2        0.0000 
     78 CA         -0.4600  -32.0387 -123.3775 C.3       5 GLY6        0.0000 
     79 DU         -0.2033  -31.3645 -124.6926 H         6 CUB7        0.0000 
     80 DU          0.0534  -30.6904 -126.0078 H         6 CUB7        0.0000 
     81 O           0.3101  -30.0162 -127.3229 O.2       2 ALA2        0.0000 
     82 O           0.5668  -29.3420 -128.6380 O.2       2 ALA2        0.0000 
     83 NZ         -2.3856  -24.9489 -123.5406 N.2       3 LYS4        0.0000 
     84 NZ         -2.1289  -24.2747 -124.8558 N.2       3 LYS4        0.0000 
     85 NZ         -3.6270  -26.5404 -122.8879 N.2       3 LYS4        0.0000 
     86 CZ         -3.3702  -25.8663 -124.2031 C.ar      4 PHE5        0.0000 
     87 NZ         -3.1135  -25.1921 -125.5182 N.2       3 LYS4        0.0000 
     88 NZ         -2.8568  -24.5179 -126.8334 N.2       3 LYS4        0.0000 
     89 O          -4.6116  -27.4578 -123.5504 O.2       2 ALA2        0.0000 
     90 CZ         -4.3549  -26.7836 -124.8656 C.ar      4 PHE5        0.0000 
     91 CZ         -4.0982  -26.1095 -126.1807 C.ar      4 PHE5        0.0000 
     92 CZ         -3.8415  -25.4353 -127.4958 C.ar      4 PHE5        0.0000 
     93 CA         -1.7014  -33.6303 -122.7248 C.3       5 GLY6        0.0000 
     94 NZ         -1.4447  -32.9561 -124.0400 N.2       3 LYS4        0.0000 
     95 DU         -1.1880  -32.2819 -125.3551 H         6 CUB7        0.0000 
     96 CZ         -0.9313  -31.6077 -126.6702 C.ar      4 PHE5        0.0000 
     97 CZ         -0.6746  -30.9336 -127.9854 C.ar      4 PHE5        0.0000 
     98 N          -0.4179  -30.2594 -129.3005 N.2       2 ALA2        0.0000 
     99 CA         -2.9428  -35.2218 -122.0721 C.3       5 GLY6        0.0000 
    100 NZ         -2.6861  -34.5476 -123.3873 N.2       3 LYS4        0.0000 
    101 NZ         -2.4294  -33.8735 -124.7024 N.2       3 LYS4        0.0000 
    102 O          -2.1727  -33.1993 -126.0176 O.2       2 ALA2        0.0000 
    103 CA         -3.9274  -36.1392 -122.7346 C.3       5 GLY6        0.0000 
    104 O          -3.6707  -35.4650 -124.0498 O.2       2 ALA2        0.0000 
    105 DU          2.6332  -26.7183 -121.7572 H         6 CUB7        0.0000 
    106 CZ          2.8899  -26.0442 -123.0723 C.ar      4 PHE5        0.0000 
    107 DU          1.3919  -28.3099 -121.1045 H         6 CUB7        0.0000 
    108 DU          1.6486  -27.6357 -122.4197 H         6 CUB7        0.0000 
    109 CA          1.9053  -26.9615 -123.7348 C.3       5 GLY6        0.0000 
    110 CA          0.4072  -29.2273 -121.7670 C.3       5 GLY6        0.0000 
    111 DU          0.6639  -28.5531 -123.0821 H         6 CUB7        0.0000 
    112 CA          0.9206  -27.8789 -124.3973 C.3       5 GLY6        0.0000 
    113 CA         -0.5775  -30.1446 -122.4295 C.3       5 GLY6        0.0000 
    114 DU         -0.3208  -29.4705 -123.7446 H         6 CUB7        0.0000 
    115 DU         -0.0640  -28.7963 -125.0597 H         6 CUB7        0.0000 
    116 CA          0.1927  -28.1221 -126.3749 C.3       5 GLY6        0.0000 
    117 CA         -1.5621  -31.0620 -123.0919 C.3       5 GLY6        0.0000 
    118 DU         -1.3054  -30.3879 -124.4071 H         6 CUB7        0.0000 
    119 DU         -1.0487  -29.7137 -125.7222 H         6 CUB7        0.0000 
    120 DU         -0.7920  -29.0395 -127.0374 H         6 CUB7        0.0000 
    121 O          -0.5353  -28.3653 -128.3525 O.2       2 ALA2        0.0000 
    122 CA         -2.8035  -32.6536 -122.4393 C.3       5 GLY6        0.0000 
    123 DU         -2.5468  -31.9794 -123.7544 H         6 CUB7        0.0000 
    124 CZ         -2.2901  -31.3052 -125.0695 C.ar      4 PHE5        0.0000 
    125 CZ         -2.0334  -30.6311 -126.3847 C.ar      4 PHE5        0.0000 
    126 CZ         -1.7766  -29.9569 -127.6998 C.ar      4 PHE5        0.0000 
    127 CZ         -1.5199  -29.2827 -129.0150 C.ar      4 PHE5        0.0000 
    128 CA         -4.0448  -34.2451 -121.7866 C.3       5 GLY6        0.0000 
    129 DU         -3.7881  -33.5710 -123.1017 H         6 CUB7        0.0000 
    130 O          -3.5314  -32.8968 -124.4169 O.2       2 ALA2        0.0000 
    131 CZ         -3.2747  -32.2226 -125.7320 C.ar      4 PHE5        0.0000 
    132 CA         -2.3637  -20.4866 -122.9597 C.3       5 GLY6        0.0000 
    133 NZ         -1.5183  -22.1374 -121.9301 N.2       3 LYS4        0.0000 
    134 OG         -1.2616  -21.4633 -123.2453 O.2       1 SER1        0.0000 
    135 NZ         -2.5030  -23.0548 -122.5926 N.2       3 LYS4        0.0000 
    136 CA         -2.2463  -22.3806 -123.9077 C.3       5 GLY6        0.0000 
    137 CA         -3.2309  -23.2980 -124.5702 C.3       5 GLY6        0.0000 
    138 CZ         -4.2156  -24.2154 -125.2327 C.ar      4 PHE5        0.0000 
    139 OG         -5.2003  -25.1328 -125.8951 O.2       1 SER1        0.0000 
    140 CZ         -4.9435  -24.4586 -127.2103 C.ar      4 PHE5        0.0000 
@<TRIPOS>BOND
@<TRIPOS>SUBSTRUCTURE
     1 SER1       18 GROUP   
     2 ALA2        2 GROUP   
     3 LYS4        1 GROUP   
     4 PHE5       35 GROUP   
     5 GLY6       11 GROUP   
     6 CUB7        7 GROUP   
@<TRIPOS>SET

