#    Name: 2ybu_CX9_9_INTS_M
#    Modification time : Tue Mar 25 08:39:48 2014

@<TRIPOS>MOLECULE
2ybu_CX9_9_INTS_M
   37     0     9     0     0
SMALL
NO_CHARGES


@<TRIPOS>ATOM
      1 CA         -2.1725  -35.7040 -130.0575 C.3       3 GLC5        0.0000 
      2 CA         -0.5530  -34.3560 -129.3340 C.3       9 GLL5        0.0000 
      3 CA         -3.7920  -37.0520 -130.7810 C.3       6 GLP5        0.0000 
      4 CA         -2.2870  -32.4075 -131.6315 C.3       3 GLC5        0.0000 
      5 CA         -0.6070  -32.4440 -132.4180 C.3       9 GLL5        0.0000 
      6 CA         -3.9670  -32.3710 -130.8450 C.3       6 GLP5        0.0000 
      7 CA         -1.8865  -30.6815 -132.4510 C.3       3 GLC5        0.0000 
      8 CA         -3.1660  -28.9190 -132.4840 C.3       6 GLP5        0.0000 
      9 CA         -1.3900  -32.3410 -134.3430 C.3       3 GLC5        0.0000 
     10 CA         -2.1730  -32.2380 -136.2680 C.3       6 GLP5        0.0000 
     11 CA         -2.1865  -35.9850 -127.7845 C.3       3 GLC5        0.0000 
     12 CA         -0.5000  -35.7500 -127.2230 C.3       9 GLL5        0.0000 
     13 CA         -3.8730  -36.2200 -128.3460 C.3       6 GLP5        0.0000 
     14 CA         -3.4195  -29.4825 -127.0980 C.3       3 GLC5        0.0000 
     15 CA         -1.3820  -29.7930 -127.2200 C.3       9 GLL5        0.0000 
     16 CA         -5.4570  -29.1720 -126.9760 C.3       6 GLP5        0.0000 
     17 CA          0.6255  -27.2570 -127.0570 C.3       3 GLC5        0.0000 
     18 CA         -0.8840  -28.4730 -126.5650 C.3       9 GLL5        0.0000 
     19 CA          2.1350  -26.0410 -127.5490 C.3       6 GLP5        0.0000 
     20 N          -0.4605  -26.1275 -128.9500 N.am      2 SEC2        0.0000 
     21 N          -1.7490  -26.5670 -128.3240 N.am      8 SEL2        0.0000 
     22 N           0.8280  -25.6880 -129.5760 N.am      5 SEP2        0.0000 
     23 N          -3.8500  -24.2815 -129.0835 N.am      2 SEC2        0.0000 
     24 N          -3.8820  -24.7270 -127.8220 N.am      8 SEL2        0.0000 
     25 N          -3.8180  -23.8360 -130.3450 N.am      5 SEP2        0.0000 
     26 O          -6.0645  -24.2010 -125.1850 O.2       1 ALC1        0.0000 
     27 O          -5.0200  -24.8110 -125.9620 O.2       7 ALL1        0.0000 
     28 O          -7.1090  -23.5910 -124.4080 O.2       4 ALP1        0.0000 
     29 CA         -5.0945  -25.2035 -123.0955 C.3       3 GLC5        0.0000 
     30 CA         -4.6340  -26.7110 -123.6090 C.3       9 GLL5        0.0000 
     31 CA         -5.5550  -23.6960 -122.5820 C.3       6 GLP5        0.0000 
     32 CA         -5.0035  -27.3140 -121.6410 C.3       3 GLC5        0.0000 
     33 CA         -5.3730  -27.9170 -119.6730 C.3       6 GLP5        0.0000 
     34 CA         -5.9515  -27.7700 -123.7310 C.3       3 GLC5        0.0000 
     35 CA         -7.2690  -28.8290 -123.8530 C.3       6 GLP5        0.0000 
     36 CA         -2.3755  -31.4240 -127.8470 C.3       3 GLC5        0.0000 
     37 CA         -3.9950  -32.6190 -128.4300 C.3       6 GLP5        0.0000 
@<TRIPOS>BOND
@<TRIPOS>SUBSTRUCTURE
     1 ALC1       26 GROUP        1 X    ALC  0     ROOT ALC X 1
     2 SEC2       20 GROUP        1 X    SEC  0     **** SEC X 2
     3 GLC5        1 GROUP        1 X    GLC  0     **** GLC X 6
     4 ALP1       28 GROUP        1 Y    ALP  0     ROOT ALP Y 8
     5 SEP2       22 GROUP        1 Y    SEP  0     **** SEP Y 9
     6 GLP5        3 GROUP        1 Y    GLP  0     **** GLP Y 13
     7 ALL1       27 GROUP        1 Z    ALL  0     ROOT ALL Z 15
     8 SEL2       21 GROUP        1 Z    SEL  0     **** SEL Z 16
     9 GLL5        2 GROUP        1 Z    GLL  0     **** GLL Z 20
@<TRIPOS>SET

