#    Name: 2ybu_CX9_9_ligand
#    Modification time : Tue Mar 25 08:39:49 2014

@<TRIPOS>MOLECULE
2ybu_CX9_9_ligand
   46    49     1     0     0
SMALL
NO_CHARGES


@<TRIPOS>ATOM
      1 O6         -0.3680  -30.9200 -130.1020 O.2       1 CX91398     0.0000 
      2 C6         -0.3730  -31.9390 -129.4150 C.2       1 CX91398     0.0000 
      3 C5         -0.5040  -33.1520 -130.0340 C.2       1 CX91398     0.0000 
      4 N1         -0.2840  -31.9340 -128.0370 N.am      1 CX91398     0.0000 
      5 N7         -0.6010  -33.4410 -131.3070 N.pl3     1 CX91398     0.0000 
      6 C4         -0.5530  -34.3560 -129.3340 C.2       1 CX91398     0.0000 
      7 CAA        -0.6070  -32.4440 -132.4180 C.3       1 CX91398     0.0000 
      8 C8         -0.7090  -34.7660 -131.4260 C.2       1 CX91398     0.0000 
      9 N9         -0.6540  -35.3180 -130.2010 N.2       1 CX91398     0.0000 
     10 N3         -0.4840  -34.3960 -127.9660 N.am      1 CX91398     0.0000 
     11 CAC        -0.5000  -35.7500 -127.2230 C.3       1 CX91398     0.0000 
     12 C2         -0.3400  -33.1140 -127.3160 C.2       1 CX91398     0.0000 
     13 O2         -0.2280  -33.0440 -126.0960 O.2       1 CX91398     0.0000 
     14 CAK        -0.1300  -30.6650 -127.3080 C.3       1 CX91398     0.0000 
     15 CAL        -1.3820  -29.7930 -127.2200 C.3       1 CX91398     0.0000 
     16 CA0        -0.8840  -28.4730 -126.5650 C.3       1 CX91398     0.0000 
     17 N10        -2.0010  -27.5510 -126.3130 N.am      1 CX91398     0.0000 
     18 CAP        -2.3390  -26.6080 -127.2610 C.2       1 CX91398     0.0000 
     19 CAR        -2.7620  -27.5720 -125.1050 C.2       1 CX91398     0.0000 
     20 OAF        -1.7490  -26.5670 -128.3240 O.2       1 CX91398     0.0000 
     21 CAV        -3.3810  -25.7150 -127.0500 C.2       1 CX91398     0.0000 
     22 NAX        -3.8820  -24.7270 -127.8220 N.2       1 CX91398     0.0000 
     23 CAT        -4.1170  -25.7780 -125.8890 C.2       1 CX91398     0.0000 
     24 CAJ        -4.9250  -24.1780 -127.1610 C.2       1 CX91398     0.0000 
     25 NAN        -5.0200  -24.8110 -125.9620 N.pl3     1 CX91398     0.0000 
     26 NAZ        -3.8110  -26.6760 -124.9010 N.am      1 CX91398     0.0000 
     27 CAD        -4.6340  -26.7110 -123.6090 C.3       1 CX91398     0.0000 
     28 OAH        -2.5240  -28.3940 -124.2300 O.2       1 CX91398     0.0000 
     29 H          -0.8109  -35.2570 -132.2588 H         1 CX91398     0.0000 
     30 H           0.6794  -30.0529 -127.7742 H         1 CX91398     0.0000 
     31 H           0.2209  -30.8633 -126.2665 H         1 CX91398     0.0000 
     32 H          -2.0989  -30.2455 -126.5854 H         1 CX91398     0.0000 
     33 H          -1.7490  -29.5811 -128.1905 H         1 CX91398     0.0000 
     34 H          -0.1491  -28.0246 -127.2402 H         1 CX91398     0.0000 
     35 H          -0.3745  -28.7369 -125.6334 H         1 CX91398     0.0000 
     36 H          -5.4927  -23.4756 -127.4741 H         1 CX91398     0.0000 
     37 H          -5.6667  -24.5731 -125.2676 H         1 CX91398     0.0000 
     38 H           0.2351  -31.9051 -132.4380 H         1 CX91398     0.0000 
     39 H          -0.6945  -32.8842 -133.3116 H         1 CX91398     0.0000 
     40 H          -1.3661  -31.7985 -132.3336 H         1 CX91398     0.0000 
     41 H           0.2672  -36.3314 -127.4939 H         1 CX91398     0.0000 
     42 H          -0.4415  -35.6305 -126.2319 H         1 CX91398     0.0000 
     43 H          -1.3372  -36.2649 -127.4072 H         1 CX91398     0.0000 
     44 H          -4.0658  -26.5491 -122.8022 H         1 CX91398     0.0000 
     45 H          -5.3515  -26.0145 -123.6068 H         1 CX91398     0.0000 
     46 H          -5.0831  -27.5949 -123.4786 H         1 CX91398     0.0000 
@<TRIPOS>BOND
     1    2    1 2    
     2    3    2 1    
     3    4    2 am   
     4    5    3 1    
     5    6    3 2    
     6   12    4 am   
     7   14    4 1    
     8    7    5 1    
     9    8    5 1    
    10    9    6 1    
    11   10    6 1    
    12   38    7 1    
    13   39    7 1    
    14   40    7 1    
    15    9    8 2    
    16   29    8 1    
    17   11   10 1    
    18   12   10 am   
    19   41   11 1    
    20   42   11 1    
    21   43   11 1    
    22   13   12 2    
    23   15   14 1    
    24   30   14 1    
    25   31   14 1    
    26   16   15 1    
    27   32   15 1    
    28   33   15 1    
    29   17   16 1    
    30   34   16 1    
    31   35   16 1    
    32   18   17 am   
    33   19   17 am   
    34   20   18 2    
    35   21   18 1    
    36   26   19 am   
    37   28   19 2    
    38   22   21 1    
    39   23   21 2    
    40   24   22 2    
    41   25   23 1    
    42   26   23 1    
    43   25   24 1    
    44   36   24 1    
    45   37   25 1    
    46   27   26 1    
    47   44   27 1    
    48   45   27 1    
    49   46   27 1    
@<TRIPOS>SUBSTRUCTURE
     1 CX91398     1 GROUP   
@<TRIPOS>SET

