#    Name: 1ua2_ATP_1_INTS_M
#    Modification time : Tue Mar 25 06:24:32 2014

@<TRIPOS>MOLECULE
1ua2_ATP_1_INTS_M
   58     0    12     0     0
SMALL
NO_CHARGES


@<TRIPOS>ATOM
      1 N          38.9165   -5.6950   30.2645 N.am      2 SEC2        0.0000 
      2 N          37.8730   -5.8540   29.0670 N.am     10 SEL2        0.0000 
      3 N          39.9600   -5.5360   31.4620 N.am      6 SEP2        0.0000 
      4 N          36.3550   -6.3845   28.9595 N.am      2 SEC2        0.0000 
      5 N          34.8370   -6.9150   28.8520 N.am      6 SEP2        0.0000 
      6 NZ         38.0660   -7.0630   25.3335 N.4       3 LYC4        0.0000 
      7 NZ         38.1100   -6.1320   26.4680 N.4      11 LYL4        0.0000 
      8 NZ         38.0220   -7.9940   24.1990 N.4       7 LYP4        0.0000 
      9 N          38.0660   -7.0630   25.3335 N.am      2 SEC2        0.0000 
     10 N          38.1100   -6.1320   26.4680 N.am     10 SEL2        0.0000 
     11 N          38.0220   -7.9940   24.1990 N.am      6 SEP2        0.0000 
     12 NZ         37.4360   -0.8790   27.0000 N.4       3 LYC4        0.0000 
     13 NZ         38.8180   -1.8970   27.5420 N.4      11 LYL4        0.0000 
     14 NZ         36.0540    0.1390   26.4580 N.4       7 LYP4        0.0000 
     15 N          39.7025   -2.4525   28.8855 N.am      2 SEC2        0.0000 
     16 N          38.8180   -1.8970   27.5420 N.am     10 SEL2        0.0000 
     17 N          40.5870   -3.0080   30.2290 N.am      6 SEP2        0.0000 
     18 NZ         39.3745   -6.7535   24.8065 N.4       3 LYC4        0.0000 
     19 NZ         40.7270   -5.5130   25.4140 N.4      11 LYL4        0.0000 
     20 NZ         38.5525   -6.1815   23.9935 N.4       3 LYC4        0.0000 
     21 NZ         39.0830   -4.3690   23.7880 N.4      11 LYL4        0.0000 
     22 CA         42.4435   -3.2740   26.4890 C.3       4 GLC5        0.0000 
     23 CA         42.6390   -2.9600   24.4090 C.3      12 GLL5        0.0000 
     24 CA         42.2480   -3.5880   28.5690 C.3       8 GLP5        0.0000 
     25 CA         45.5640   -3.1985   23.9895 C.3       4 GLC5        0.0000 
     26 CA         43.7070   -3.1360   23.3350 C.3      12 GLL5        0.0000 
     27 CA         47.4210   -3.2610   24.6440 C.3       8 GLP5        0.0000 
     28 CA         45.4650   -4.8930   21.0330 C.3       4 GLC5        0.0000 
     29 CA         43.4320   -4.1920   21.2710 C.3      12 GLL5        0.0000 
     30 CA         47.4980   -5.5940   20.7950 C.3       8 GLP5        0.0000 
     31 CA         43.6320   -6.0990   21.9740 C.3       4 GLC5        0.0000 
     32 CA         43.8320   -8.0060   22.6770 C.3       8 GLP5        0.0000 
     33 CA         41.8020   -8.2315   16.1855 C.3       4 GLC5        0.0000 
     34 CA         41.1540   -7.1770   18.0210 C.3      12 GLL5        0.0000 
     35 CA         42.4500   -9.2860   14.3500 C.3       8 GLP5        0.0000 
     36 CA         39.9985   -6.8000   16.3415 C.3       4 GLC5        0.0000 
     37 CA         38.8430   -6.4230   14.6620 C.3       8 GLP5        0.0000 
     38 O          40.0965   -9.1455   16.6140 O.2       1 ALC1        0.0000 
     39 O          40.1710   -8.0960   17.8360 O.2       9 ALL1        0.0000 
     40 O          40.0220  -10.1950   15.3920 O.2       5 ALP1        0.0000 
     41 N          41.8175   -6.8985   15.6245 N.am      2 SEC2        0.0000 
     42 N          41.9650   -6.8110   16.9990 N.am     10 SEL2        0.0000 
     43 N          41.6700   -6.9860   14.2500 N.am      6 SEP2        0.0000 
     44 CA         44.7205   -6.3220   18.0190 C.3       4 GLC5        0.0000 
     45 CA         42.9470   -5.8990   17.1850 C.3      12 GLL5        0.0000 
     46 CA         46.4940   -6.7450   18.8530 C.3       8 GLP5        0.0000 
     47 CA         43.2210   -7.8495   18.0065 C.3       4 GLC5        0.0000 
     48 CA         43.4950   -9.8000   18.8280 C.3       8 GLP5        0.0000 
     49 CA         42.6985   -7.5925   15.7675 C.3       4 GLC5        0.0000 
     50 CA         42.0350   -5.8355   15.4090 C.3       4 GLC5        0.0000 
     51 CA         41.1230   -5.7720   13.6330 C.3       8 GLP5        0.0000 
     52 CA         44.4855   -6.1575   19.1540 C.3       4 GLC5        0.0000 
     53 CA         42.4770   -5.5700   19.4550 C.3      12 GLL5        0.0000 
     54 CA         43.3685   -5.0695   24.4165 C.3       4 GLC5        0.0000 
     55 CA         43.5640   -7.0910   24.9610 C.3       8 GLP5        0.0000 
     56 CA         42.8820   -7.0323   21.0392 C.3       4 GLC5        0.0000 
     57 CA         42.6844   -8.0080   18.9489 C.3       4 GLC5        0.0000 
     58 CA         41.3870   -6.5470   19.3480 C.3      12 GLL5        0.0000 
@<TRIPOS>BOND
@<TRIPOS>SUBSTRUCTURE
     1 ALC1       38 GROUP        1 X    ALC  0     ROOT ALC X 1
     2 SEC2        1 GROUP        1 X    SEC  0     **** SEC X 2
     3 LYC4        6 GROUP        1 X    LYC  0     **** LYC X 4
     4 GLC5       22 GROUP        1 X    GLC  0     **** GLC X 6
     5 ALP1       40 GROUP        1 Y    ALP  0     ROOT ALP Y 8
     6 SEP2        3 GROUP        1 Y    SEP  0     **** SEP Y 9
     7 LYP4        8 GROUP        1 Y    LYP  0     **** LYP Y 11
     8 GLP5       24 GROUP        1 Y    GLP  0     **** GLP Y 13
     9 ALL1       39 GROUP        1 Z    ALL  0     ROOT ALL Z 15
    10 SEL2        2 GROUP        1 Z    SEL  0     **** SEL Z 16
    11 LYL4        7 GROUP        1 Z    LYL  0     **** LYL Z 18
    12 GLL5       23 GROUP        1 Z    GLL  0     **** GLL Z 20
@<TRIPOS>SET

