#    Name: 1ua2_ATP_1_ligand
#    Modification time : Tue Mar 25 06:24:32 2014

@<TRIPOS>MOLECULE
1ua2_ATP_1_ligand
   43    45     1     0     0
SMALL
NO_CHARGES


@<TRIPOS>ATOM
      1 PG         38.7450   -5.8490   27.8140 P.3       1 ATP381      0.0000 
      2 O1G        37.8730   -5.8540   29.0670 O.co2     1 ATP381      0.0000 
      3 O2G        38.1100   -6.1320   26.4680 O.co2     1 ATP381      0.0000 
      4 O3G        40.0170   -6.6310   28.0080 O.co2     1 ATP381      0.0000 
      5 PB         38.7760   -3.1500   26.7030 P.3       1 ATP381      0.0000 
      6 O1B        37.5790   -3.5170   25.8190 O.co2     1 ATP381      0.0000 
      7 O2B        38.8180   -1.8970   27.5420 O.co2     1 ATP381      0.0000 
      8 O3B        39.2280   -4.3030   27.7340 O.3       1 ATP381      0.0000 
      9 PA         40.2950   -4.2520   24.7010 P.3       1 ATP381      0.0000 
     10 O1A        40.7270   -5.5130   25.4140 O.co2     1 ATP381      0.0000 
     11 O2A        39.0830   -4.3690   23.7880 O.co2     1 ATP381      0.0000 
     12 O3A        40.0460   -3.0660   25.7470 O.3       1 ATP381      0.0000 
     13 O5'        41.4870   -3.5800   23.8550 O.3       1 ATP381      0.0000 
     14 C5'        42.6390   -2.9600   24.4090 C.3       1 ATP381      0.0000 
     15 C4'        43.7070   -3.1360   23.3350 C.3       1 ATP381      0.0000 
     16 O4'        43.4550   -4.3780   22.6770 O.3       1 ATP381      0.0000 
     17 C3'        43.6820   -2.0720   22.2500 C.3       1 ATP381      0.0000 
     18 O3'        45.0280   -1.6870   21.9650 O.3       1 ATP381      0.0000 
     19 C2'        43.0910   -2.7400   21.0230 C.3       1 ATP381      0.0000 
     20 O2'        43.7690   -2.2740   19.8480 O.3       1 ATP381      0.0000 
     21 C1'        43.4320   -4.1920   21.2710 C.3       1 ATP381      0.0000 
     22 N9         42.4830   -5.1540   20.7100 N.pl3     1 ATP381      0.0000 
     23 C8         41.5180   -5.7850   21.3910 C.2       1 ATP381      0.0000 
     24 N7         40.8340   -6.6290   20.5760 N.2       1 ATP381      0.0000 
     25 C5         41.3870   -6.5470   19.3480 C.ar      1 ATP381      0.0000 
     26 C6         41.1540   -7.1770   18.0210 C.ar      1 ATP381      0.0000 
     27 N6         40.1710   -8.0960   17.8360 N.pl3     1 ATP381      0.0000 
     28 N1         41.9650   -6.8110   16.9990 N.ar      1 ATP381      0.0000 
     29 C2         42.9470   -5.8990   17.1850 C.ar      1 ATP381      0.0000 
     30 N3         43.2100   -5.2860   18.3600 N.ar      1 ATP381      0.0000 
     31 C4         42.4770   -5.5700   19.4550 C.ar      1 ATP381      0.0000 
     32 H          42.9789   -3.4493   25.3036 H         1 ATP381      0.0000 
     33 H          42.4996   -1.9071   24.5743 H         1 ATP381      0.0000 
     34 H          44.6746   -3.1483   23.7937 H         1 ATP381      0.0000 
     35 H          43.0725   -1.2779   22.5507 H         1 ATP381      0.0000 
     36 H          42.0639   -2.6145   21.0180 H         1 ATP381      0.0000 
     37 H          44.4272   -4.3783   20.8706 H         1 ATP381      0.0000 
     38 H          41.3241   -5.6624   22.3433 H         1 ATP381      0.0000 
     39 H          39.3742   -8.0145   18.4346 H         1 ATP381      0.0000 
     40 H          40.3311   -8.7729   17.1175 H         1 ATP381      0.0000 
     41 H          43.5583   -5.6458   16.3413 H         1 ATP381      0.0000 
     42 H          45.0448   -1.5148   20.9801 H         1 ATP381      0.0000 
     43 H          43.7570   -3.0501   19.2175 H         1 ATP381      0.0000 
@<TRIPOS>BOND
     1    2    1 ar   
     2    3    1 ar   
     3    4    1 ar   
     4    8    1 1    
     5    6    5 ar   
     6    7    5 ar   
     7    8    5 1    
     8   12    5 1    
     9   10    9 ar   
    10   11    9 ar   
    11   12    9 1    
    12   13    9 1    
    13   14   13 1    
    14   15   14 1    
    15   32   14 1    
    16   33   14 1    
    17   16   15 1    
    18   17   15 1    
    19   34   15 1    
    20   21   16 1    
    21   18   17 1    
    22   19   17 1    
    23   35   17 1    
    24   42   18 1    
    25   20   19 1    
    26   21   19 1    
    27   36   19 1    
    28   43   20 1    
    29   22   21 1    
    30   37   21 1    
    31   23   22 1    
    32   31   22 1    
    33   24   23 2    
    34   38   23 1    
    35   25   24 1    
    36   26   25 ar   
    37   31   25 ar   
    38   27   26 1    
    39   28   26 ar   
    40   39   27 1    
    41   40   27 1    
    42   29   28 ar   
    43   30   29 ar   
    44   41   29 1    
    45   31   30 ar   
@<TRIPOS>SUBSTRUCTURE
     1 ATP381      1 GROUP   
@<TRIPOS>SET

