#    Name: 3p8x_ZYD_1_INTS_M
#    Modification time : Tue Mar 25 06:04:53 2014

@<TRIPOS>MOLECULE
3p8x_ZYD_1_INTS_M
  113     0     9     0     0
SMALL
NO_CHARGES


@<TRIPOS>ATOM
      1 CA         14.2260   17.3990   37.0705 C.3       3 GLC5        0.0000 
      2 CA         13.9920   17.6170   35.1990 C.3       9 GLL5        0.0000 
      3 CA         14.4600   17.1810   38.9420 C.3       6 GLP5        0.0000 
      4 CA         15.4795   18.7690   35.9675 C.3       3 GLC5        0.0000 
      5 CA         16.9670   19.9210   36.7360 C.3       6 GLP5        0.0000 
      6 N          13.0395   15.7465   36.6895 N.am      2 SEC2        0.0000 
      7 N          13.0000   17.0580   36.0760 N.am      8 SEL2        0.0000 
      8 N          13.0790   14.4350   37.3030 N.am      5 SEP2        0.0000 
      9 O          11.7675   16.6585   35.4910 O.2       1 ALC1        0.0000 
     10 O          13.0000   17.0580   36.0760 O.2       7 ALL1        0.0000 
     11 O          10.5350   16.2590   34.9060 O.2       4 ALP1        0.0000 
     12 N          17.6960   16.7285   34.5565 N.am      2 SEC2        0.0000 
     13 N          16.7730   17.7120   34.1540 N.am      8 SEL2        0.0000 
     14 N          18.6190   15.7450   34.9590 N.am      5 SEP2        0.0000 
     15 O          17.6440   18.5800   33.4980 O.2       1 ALC1        0.0000 
     16 O          16.7730   17.7120   34.1540 O.2       7 ALL1        0.0000 
     17 O          18.5150   19.4480   32.8420 O.2       4 ALP1        0.0000 
     18 CA         16.9655   15.9175   34.5245 C.3       3 GLC5        0.0000 
     19 CA         15.7110   17.1730   33.3430 C.3       9 GLL5        0.0000 
     20 CA         18.2200   14.6620   35.7060 C.3       6 GLP5        0.0000 
     21 CA         16.8720   15.8570   32.6385 C.3       3 GLC5        0.0000 
     22 CA         18.0330   14.5410   31.9340 C.3       6 GLP5        0.0000 
     23 N           5.0680   27.4200   34.1105 N.am      2 SEC2        0.0000 
     24 N           4.3580   26.3260   34.5510 N.am      8 SEL2        0.0000 
     25 N           5.7780   28.5140   33.6700 N.am      5 SEP2        0.0000 
     26 N           4.8680   26.4410   35.8495 N.am      2 SEC2        0.0000 
     27 N           5.3780   26.5560   37.1480 N.am      5 SEP2        0.0000 
     28 CA         14.4940   16.6570   31.3845 C.3       3 GLC5        0.0000 
     29 CA         15.1090   18.3240   32.4430 C.3       9 GLL5        0.0000 
     30 CA         13.8790   14.9900   30.3260 C.3       6 GLP5        0.0000 
     31 CA         15.3920   23.8840   33.6565 C.3       3 GLC5        0.0000 
     32 CA         13.6400   23.0180   33.4180 C.3       9 GLL5        0.0000 
     33 CA         17.1440   24.7500   33.8950 C.3       6 GLP5        0.0000 
     34 CA         15.6960   23.9955   32.2480 C.3       3 GLC5        0.0000 
     35 CA         14.1230   23.4110   32.0000 C.3       9 GLL5        0.0000 
     36 CA         17.2690   24.5800   32.4960 C.3       6 GLP5        0.0000 
     37 CA         12.3415   17.8670   32.7800 C.3       3 GLC5        0.0000 
     38 CA         13.3770   18.7030   34.3380 C.3       9 GLL5        0.0000 
     39 CA         11.3060   17.0310   31.2220 C.3       6 GLP5        0.0000 
     40 CA         11.7250   23.2865   29.7745 C.3       3 GLC5        0.0000 
     41 CA         12.9760   24.1620   31.2290 C.3       9 GLL5        0.0000 
     42 CA         10.4740   22.4110   28.3200 C.3       6 GLP5        0.0000 
     43 CA         14.9785   24.9125   31.4410 C.3       3 GLC5        0.0000 
     44 CA         16.9810   25.6630   31.6530 C.3       6 GLP5        0.0000 
     45 CA         14.8480   25.0490   34.3535 C.3       3 GLC5        0.0000 
     46 CA         12.9550   24.1390   34.2340 C.3       9 GLL5        0.0000 
     47 CA         16.7410   25.9590   34.4730 C.3       6 GLP5        0.0000 
     48 CA         11.9520   24.9610   37.9265 C.3       3 GLC5        0.0000 
     49 CA         11.3560   24.8860   35.8890 C.3       9 GLL5        0.0000 
     50 CA         12.5480   25.0360   39.9640 C.3       6 GLP5        0.0000 
     51 CA         11.3600   18.7215   32.7825 C.3       3 GLC5        0.0000 
     52 CA         12.0730   19.0410   34.4410 C.3       9 GLL5        0.0000 
     53 CA         10.6470   18.4020   31.1240 C.3       6 GLP5        0.0000 
     54 CA         10.9070   17.6690   35.2600 C.3       3 GLC5        0.0000 
     55 CA          9.7410   16.2970   36.0790 C.3       6 GLP5        0.0000 
     56 CA          7.0040   26.0535   29.9805 C.3       3 GLC5        0.0000 
     57 CA          7.2130   24.7470   31.7440 C.3       9 GLL5        0.0000 
     58 CA          6.7950   27.3600   28.2170 C.3       6 GLP5        0.0000 
     59 CA          4.5430   25.3760   30.7655 C.3       3 GLC5        0.0000 
     60 CA          5.9890   25.4320   32.3830 C.3       9 GLL5        0.0000 
     61 CA          3.0970   25.3200   29.1480 C.3       6 GLP5        0.0000 
     62 CA          6.3840   22.8650   33.5950 C.3       3 GLC5        0.0000 
     63 CA          5.2360   24.4210   33.2820 C.3       9 GLL5        0.0000 
     64 CA          7.5320   21.3090   33.9080 C.3       6 GLP5        0.0000 
     65 CA          2.9805   25.2925   31.0475 C.3       3 GLC5        0.0000 
     66 CA          2.8640   25.2650   32.9470 C.3       9 GLL5        0.0000 
     67 CA          2.1985   26.8345   32.1795 C.3       3 GLC5        0.0000 
     68 CA          1.5330   28.4040   31.4120 C.3       6 GLP5        0.0000 
     69 CA          1.4880   24.4805   32.0215 C.3       3 GLC5        0.0000 
     70 CA          0.1120   23.6960   31.0960 C.3       6 GLP5        0.0000 
     71 CA          4.7545   22.2615   35.3515 C.3       3 GLC5        0.0000 
     72 CA          3.5320   24.1180   35.0770 C.3       9 GLL5        0.0000 
     73 CA          5.9770   20.4050   35.6260 C.3       6 GLP5        0.0000 
     74 CA          2.1070   22.8880   34.9050 C.3       3 GLC5        0.0000 
     75 CA          0.6820   21.6580   34.7330 C.3       6 GLP5        0.0000 
     76 CA          3.3550   23.1785   36.6585 C.3       3 GLC5        0.0000 
     77 CA          3.1780   22.2390   38.2400 C.3       6 GLP5        0.0000 
     78 CA         15.7417   15.9315   35.6755 C.3       3 GLC5        0.0000 
     79 CA         17.1780   14.7910   36.6110 C.3       6 GLP5        0.0000 
     80 CA         14.5220   15.9200   32.0690 C.3       3 GLC5        0.0000 
     81 CA         14.6190   16.5270   34.2810 C.3       9 GLL5        0.0000 
     82 CA         17.4310   18.1122   32.6600 C.3       3 GLC5        0.0000 
     83 CA         19.4520   18.4760   32.4270 C.3       6 GLP5        0.0000 
     84 CA         16.3025   17.8338   31.2535 C.3       3 GLC5        0.0000 
     85 CA         17.1950   17.9190   29.6140 C.3       6 GLP5        0.0000 
     86 CA         13.1120   19.5845   31.7719 C.3       3 GLC5        0.0000 
     87 CA         14.4980   20.6640   33.1200 C.3       9 GLL5        0.0000 
     88 CA         11.6200   19.4230   30.5450 C.3       6 GLP5        0.0000 
     89 CA         15.9782   21.9352   33.5105 C.3       3 GLC5        0.0000 
     90 CA         17.8040   22.6530   33.5060 C.3       6 GLP5        0.0000 
     91 CA         14.8813   21.7237   34.9745 C.3       3 GLC5        0.0000 
     92 CA         13.8070   21.7710   33.9100 C.3       9 GLL5        0.0000 
     93 CA         16.0390   21.0530   36.2850 C.3       6 GLP5        0.0000 
     94 CA         14.3758   23.7523   29.7557 C.3       3 GLC5        0.0000 
     95 CA         15.2020   23.7180   27.8970 C.3       6 GLP5        0.0000 
     96 CA         11.8630   19.8270   35.9313 C.3       3 GLC5        0.0000 
     97 CA         11.0010   20.7820   37.4730 C.3       6 GLP5        0.0000 
     98 CA         14.9649   20.2018   35.0310 C.3       3 GLC5        0.0000 
     99 CA         12.6742   26.4385   30.8460 C.3       3 GLC5        0.0000 
    100 CA         12.7380   28.1620   30.0280 C.3       6 GLP5        0.0000 
    101 CA         11.4510   22.5553   36.6200 C.3       3 GLC5        0.0000 
    102 CA          8.8140   22.5605   33.3192 C.3       3 GLC5        0.0000 
    103 CA         10.6100   23.6280   33.2880 C.3       9 GLL5        0.0000 
    104 CA          7.6565   23.0102   33.0867 C.3       3 GLC5        0.0000 
    105 CA          8.0671   23.7527   30.4155 C.3       3 GLC5        0.0000 
    106 CA          8.0450   22.9640   28.7190 C.3       6 GLP5        0.0000 
    107 CA          6.6080   27.0262   32.3708 C.3       3 GLC5        0.0000 
    108 CA          6.6150   28.9630   32.6780 C.3       6 GLP5        0.0000 
    109 CA          1.9813   25.6186   35.0974 C.3       3 GLC5        0.0000 
    110 CA          4.0060   25.0640   33.9660 C.3       9 GLL5        0.0000 
    111 CA          0.4790   26.5960   35.9280 C.3       6 GLP5        0.0000 
    112 CA         12.9484   26.2919   35.5875 C.3       3 GLC5        0.0000 
    113 CA         13.8840   27.9490   36.0940 C.3       6 GLP5        0.0000 
@<TRIPOS>BOND
@<TRIPOS>SUBSTRUCTURE
     1 ALC1        9 GROUP        1 X    ALC  0     ROOT ALC X 1
     2 SEC2        6 GROUP        1 X    SEC  0     **** SEC X 2
     3 GLC5        1 GROUP        1 X    GLC  0     **** GLC X 6
     4 ALP1       11 GROUP        1 Y    ALP  0     ROOT ALP Y 8
     5 SEP2        8 GROUP        1 Y    SEP  0     **** SEP Y 9
     6 GLP5        3 GROUP        1 Y    GLP  0     **** GLP Y 13
     7 ALL1       10 GROUP        1 Z    ALL  0     ROOT ALL Z 15
     8 SEL2        7 GROUP        1 Z    SEL  0     **** SEL Z 16
     9 GLL5        2 GROUP        1 Z    GLL  0     **** GLL Z 20
@<TRIPOS>SET

