#    Name: 3p8x_ZYD_1_ligand
#    Modification time : Tue Mar 25 06:04:53 2014

@<TRIPOS>MOLECULE
3p8x_ZYD_1_ligand
   72    74     1     0     0
SMALL
NO_CHARGES


@<TRIPOS>ATOM
      1 C1         13.9920   17.6170   35.1990 C.3       1 ZYD1        0.0000 
      2 O1         13.0000   17.0580   36.0760 O.3       1 ZYD1        0.0000 
      3 C2         14.6190   16.5270   34.2810 C.3       1 ZYD1        0.0000 
      4 O2         16.7730   17.7120   34.1540 O.3       1 ZYD1        0.0000 
      5 C3         15.7110   17.1730   33.3430 C.3       1 ZYD1        0.0000 
      6 O3          4.3580   26.3260   34.5510 O.3       1 ZYD1        0.0000 
      7 C4         15.1090   18.3240   32.4430 C.3       1 ZYD1        0.0000 
      8 C5         14.3110   19.3320   33.3120 C.2       1 ZYD1        0.0000 
      9 C6         14.4980   20.6640   33.1200 C.2       1 ZYD1        0.0000 
     10 C7         13.8070   21.7710   33.9100 C.2       1 ZYD1        0.0000 
     11 C8         13.6400   23.0180   33.4180 C.2       1 ZYD1        0.0000 
     12 C9         14.1230   23.4110   32.0000 C.3       1 ZYD1        0.0000 
     13 C10        13.3770   18.7030   34.3380 C.2       1 ZYD1        0.0000 
     14 C11        12.9760   24.1620   31.2290 C.3       1 ZYD1        0.0000 
     15 C12        12.2450   25.2680   32.0990 C.3       1 ZYD1        0.0000 
     16 C13        11.7530   24.7250   33.5040 C.3       1 ZYD1        0.0000 
     17 C14        12.9550   24.1390   34.2340 C.3       1 ZYD1        0.0000 
     18 C15        12.4460   23.7710   35.6450 C.3       1 ZYD1        0.0000 
     19 C16        11.3560   24.8860   35.8890 C.3       1 ZYD1        0.0000 
     20 C17        11.2940   25.7430   34.5560 C.3       1 ZYD1        0.0000 
     21 C18        10.6100   23.6280   33.2880 C.3       1 ZYD1        0.0000 
     22 C19        12.0730   19.0410   34.4410 C.2       1 ZYD1        0.0000 
     23 C20         9.5820   23.9960   32.1730 C.3       1 ZYD1        0.0000 
     24 C21         8.3490   24.6760   32.7870 C.3       1 ZYD1        0.0000 
     25 C22         7.2130   24.7470   31.7440 C.3       1 ZYD1        0.0000 
     26 C23         5.9890   25.4320   32.3830 C.3       1 ZYD1        0.0000 
     27 C24         5.2360   24.4210   33.2820 C.3       1 ZYD1        0.0000 
     28 C25         4.0060   25.0640   33.9660 C.3       1 ZYD1        0.0000 
     29 C26         2.8640   25.2650   32.9470 C.3       1 ZYD1        0.0000 
     30 C27         3.5320   24.1180   35.0770 C.3       1 ZYD1        0.0000 
     31 H          14.8065   18.0615   35.7654 H         1 ZYD1        0.0000 
     32 H          13.8505   16.0924   33.6646 H         1 ZYD1        0.0000 
     33 H          15.0908   15.7743   34.8895 H         1 ZYD1        0.0000 
     34 H          16.0748   16.4024   32.6860 H         1 ZYD1        0.0000 
     35 H          14.4520   17.8774   31.7128 H         1 ZYD1        0.0000 
     36 H          15.9234   18.8351   31.9532 H         1 ZYD1        0.0000 
     37 H          15.1573   21.0261   32.3852 H         1 ZYD1        0.0000 
     38 H          13.4806   21.4842   34.8477 H         1 ZYD1        0.0000 
     39 H          14.3831   22.5220   31.4481 H         1 ZYD1        0.0000 
     40 H          14.9730   24.0697   32.0780 H         1 ZYD1        0.0000 
     41 H          12.2330   23.4331   30.9064 H         1 ZYD1        0.0000 
     42 H          13.4006   24.6437   30.3486 H         1 ZYD1        0.0000 
     43 H          11.3835   25.6297   31.5460 H         1 ZYD1        0.0000 
     44 H          12.9358   26.0886   32.2669 H         1 ZYD1        0.0000 
     45 H          13.6724   24.9707   34.3597 H         1 ZYD1        0.0000 
     46 H          13.2108   23.8872   36.3467 H         1 ZYD1        0.0000 
     47 H          11.9767   22.8381   35.6280 H         1 ZYD1        0.0000 
     48 H          11.6660   25.5097   36.6849 H         1 ZYD1        0.0000 
     49 H          10.4162   24.4274   36.0473 H         1 ZYD1        0.0000 
     50 H          10.3004   26.0237   34.3879 H         1 ZYD1        0.0000 
     51 H          11.9814   26.5277   34.6337 H         1 ZYD1        0.0000 
     52 H          10.0844   23.5027   34.2361 H         1 ZYD1        0.0000 
     53 H          11.0965   22.6851   33.0331 H         1 ZYD1        0.0000 
     54 H           9.2818   23.0884   31.6657 H         1 ZYD1        0.0000 
     55 H          10.0576   24.6698   31.4723 H         1 ZYD1        0.0000 
     56 H           8.6088   25.6801   33.0964 H         1 ZYD1        0.0000 
     57 H           8.0105   24.1035   33.6408 H         1 ZYD1        0.0000 
     58 H           6.9456   23.7481   31.4409 H         1 ZYD1        0.0000 
     59 H           7.5439   25.3247   30.8967 H         1 ZYD1        0.0000 
     60 H           5.3240   25.7761   31.6045 H         1 ZYD1        0.0000 
     61 H           6.3190   26.2644   32.9871 H         1 ZYD1        0.0000 
     62 H           5.9163   24.0533   34.0483 H         1 ZYD1        0.0000 
     63 H           4.9047   23.5826   32.6716 H         1 ZYD1        0.0000 
     64 H           3.1280   25.8891   32.2116 H         1 ZYD1        0.0000 
     65 H           2.5937   24.4034   32.5173 H         1 ZYD1        0.0000 
     66 H           2.0460   25.6475   33.3766 H         1 ZYD1        0.0000 
     67 H           4.2440   23.9634   35.7620 H         1 ZYD1        0.0000 
     68 H           2.7351   24.4816   35.5594 H         1 ZYD1        0.0000 
     69 H           3.2727   23.2220   34.7164 H         1 ZYD1        0.0000 
     70 H          12.2397   16.8041   35.4781 H         1 ZYD1        0.0000 
     71 H          17.2460   18.3637   33.5611 H         1 ZYD1        0.0000 
     72 H           4.1268   27.2314   34.9073 H         1 ZYD1        0.0000 
@<TRIPOS>BOND
     1    2    1 1    
     2    3    1 1    
     3   13    1 1    
     4   31    1 1    
     5   70    2 1    
     6    5    3 1    
     7   32    3 1    
     8   33    3 1    
     9    5    4 1    
    10   71    4 1    
    11    7    5 1    
    12   34    5 1    
    13   28    6 1    
    14   72    6 1    
    15    8    7 1    
    16   35    7 1    
    17   36    7 1    
    18    9    8 2    
    19   13    8 1    
    20   10    9 1    
    21   37    9 1    
    22   11   10 2    
    23   38   10 1    
    24   12   11 1    
    25   17   11 1    
    26   14   12 1    
    27   39   12 1    
    28   40   12 1    
    29   22   13 2    
    30   15   14 1    
    31   41   14 1    
    32   42   14 1    
    33   16   15 1    
    34   43   15 1    
    35   44   15 1    
    36   17   16 1    
    37   20   16 1    
    38   21   16 1    
    39   18   17 1    
    40   45   17 1    
    41   19   18 1    
    42   46   18 1    
    43   47   18 1    
    44   20   19 1    
    45   48   19 1    
    46   49   19 1    
    47   50   20 1    
    48   51   20 1    
    49   23   21 1    
    50   52   21 1    
    51   53   21 1    
    52   24   23 1    
    53   54   23 1    
    54   55   23 1    
    55   25   24 1    
    56   56   24 1    
    57   57   24 1    
    58   26   25 1    
    59   58   25 1    
    60   59   25 1    
    61   27   26 1    
    62   60   26 1    
    63   61   26 1    
    64   28   27 1    
    65   62   27 1    
    66   63   27 1    
    67   29   28 1    
    68   30   28 1    
    69   64   29 1    
    70   65   29 1    
    71   66   29 1    
    72   67   30 1    
    73   68   30 1    
    74   69   30 1    
@<TRIPOS>SUBSTRUCTURE
     1 ZYD1        1 GROUP   
@<TRIPOS>SET

