#    Name: 3U9W_3_CAVITY_N1_6.mol2
#    Modification time : Tue Mar 11 06:53:58 2014

@<TRIPOS>MOLECULE
3U9W_3_CAVITY_N1_6.mol2
   51     0     6     0     0
SMALL
NO_CHARGES


@<TRIPOS>ATOM
      1 CZ         29.9871    2.1266    1.1596 C.ar      4 PHE5        0.0000 
      2 N          30.4773    0.7182    0.9980 N.2       2 ALA2        0.0000 
      3 CZ         29.5580    2.1421   -0.2777 C.ar      4 PHE5        0.0000 
      4 N          30.0482    0.7337   -0.4392 N.2       2 ALA2        0.0000 
      5 OG         29.1289    2.1577   -1.7149 O.2       1 SER1        0.0000 
      6 N          29.6191    0.7493   -1.8765 N.2       2 ALA2        0.0000 
      7 CZ         31.3382    2.6425    0.7618 C.ar      4 PHE5        0.0000 
      8 CZ         30.9091    2.6580   -0.6754 C.ar      4 PHE5        0.0000 
      9 N          31.3993    1.2497   -0.8370 N.2       2 ALA2        0.0000 
     10 CZ         30.4800    2.6736   -2.1127 C.ar      4 PHE5        0.0000 
     11 N          30.9703    1.2652   -2.2743 N.2       2 ALA2        0.0000 
     12 CZ         31.5866    8.7609    3.8848 C.ar      4 PHE5        0.0000 
     13 OG         33.1184    3.1429    1.8012 O.2       1 SER1        0.0000 
     14 OG         32.6893    3.1584    0.3640 O.2       1 SER1        0.0000 
     15 CZ         32.2603    3.1740   -1.0732 C.ar      4 PHE5        0.0000 
     16 N          32.7505    1.7656   -1.2348 N.2       2 ALA2        0.0000 
     17 CZ         33.3668    9.2613    4.9243 C.ar      4 PHE5        0.0000 
     18 CZ         32.9377    9.2768    3.4871 C.ar      4 PHE5        0.0000 
     19 CZ         33.4279    7.8685    3.3255 C.ar      4 PHE5        0.0000 
     20 CZ         33.9182    6.4601    3.1639 C.ar      4 PHE5        0.0000 
     21 OG         34.4084    5.0517    3.0023 O.2       1 SER1        0.0000 
     22 OG         32.9989    7.8840    1.8882 O.2       1 SER1        0.0000 
     23 OG         33.4891    6.4756    1.7266 O.2       1 SER1        0.0000 
     24 OG         33.9793    5.0672    1.5650 O.2       1 SER1        0.0000 
     25 N          34.4695    3.6588    1.4035 N.2       2 ALA2        0.0000 
     26 OG         32.5698    7.8995    0.4510 O.2       1 SER1        0.0000 
     27 OG         33.5502    5.0828    0.1278 O.2       1 SER1        0.0000 
     28 N          34.0405    3.6744   -0.0338 N.2       2 ALA2        0.0000 
     29 OG         32.1407    7.9151   -0.9862 O.2       1 SER1        0.0000 
     30 CZ         31.7116    7.9306   -2.4235 C.ar      4 PHE5        0.0000 
     31 O          35.2081    8.3688    4.3649 O.2       2 ALA2        0.0000 
     32 CA         35.6984    6.9604    4.2033 C.3       5 GLY6        0.0000 
     33 DU         34.7791    8.3844    2.9277 H         6 CUB7        0.0000 
     34 NZ         35.2693    6.9760    2.7661 N.2       3 LYS4        0.0000 
     35 NZ         35.7595    5.5676    2.6045 N.2       3 LYS4        0.0000 
     36 DU         34.3500    8.3999    1.4904 H         6 CUB7        0.0000 
     37 DU         34.8402    6.9915    1.3288 H         6 CUB7        0.0000 
     38 N          35.3305    5.5832    1.1673 N.2       2 ALA2        0.0000 
     39 O          33.9209    8.4155    0.0532 O.2       2 ALA2        0.0000 
     40 O          34.4112    7.0071   -0.1084 O.2       2 ALA2        0.0000 
     41 O          33.4918    8.4310   -1.3840 O.2       2 ALA2        0.0000 
     42 CA         36.9884    8.8692    5.4044 C.3       5 GLY6        0.0000 
     43 CA         36.5593    8.8848    3.9671 C.3       5 GLY6        0.0000 
     44 CA         37.0495    7.4764    3.8055 C.3       5 GLY6        0.0000 
     45 CA         36.1302    8.9003    2.5299 C.3       5 GLY6        0.0000 
     46 NZ         36.6204    7.4919    2.3683 N.2       3 LYS4        0.0000 
     47 CA         35.7011    8.9159    1.0927 C.3       5 GLY6        0.0000 
     48 O          36.1914    7.5075    0.9311 O.2       2 ALA2        0.0000 
     49 CZ         29.1261    0.2022    1.3958 C.ar      4 PHE5        0.0000 
     50 CZ         28.2068    1.6262    0.1201 C.ar      4 PHE5        0.0000 
     51 CA         28.6971    0.2178   -0.0415 C.3       5 GLY6        0.0000 
@<TRIPOS>BOND
@<TRIPOS>SUBSTRUCTURE
     1 SER1        5 GROUP   
     2 ALA2        2 GROUP   
     3 LYS4       34 GROUP   
     4 PHE5        1 GROUP   
     5 GLY6       32 GROUP   
     6 CUB7       33 GROUP   
@<TRIPOS>SET

