#    Name: 3u9w_28P_3_INTS_M
#    Modification time : Mon Mar 24 22:03:06 2014

@<TRIPOS>MOLECULE
3u9w_28P_3_INTS_M
   73     0    12     0     0
SMALL
NO_CHARGES


@<TRIPOS>ATOM
      1 CA         21.4045    2.5400    6.0170 C.3       4 GLC5        0.0000 
      2 CA         23.2160    2.6960    5.0920 C.3      12 GLL5        0.0000 
      3 CA         19.5930    2.3840    6.9420 C.3       8 GLP5        0.0000 
      4 CA         21.4205    1.1290    5.9825 C.3       4 GLC5        0.0000 
      5 CA         23.4070    1.3590    5.4180 C.3      12 GLL5        0.0000 
      6 CA         19.4340    0.8990    6.5470 C.3       8 GLP5        0.0000 
      7 CA         24.3495   -2.2365    2.6125 C.3       4 GLC5        0.0000 
      8 CA         24.1640   -0.1490    1.9520 C.3      12 GLL5        0.0000 
      9 CA         24.5350   -4.3240    3.2730 C.3       8 GLP5        0.0000 
     10 CA         22.8100   -1.4405    2.4445 C.3       4 GLC5        0.0000 
     11 CA         21.4560   -2.7320    2.9370 C.3       8 GLP5        0.0000 
     12 CA         26.5840   -0.5580    4.1150 C.3       4 GLC5        0.0000 
     13 CA         26.6480   -0.4830    1.9810 C.3      12 GLL5        0.0000 
     14 CA         26.5200   -0.6330    6.2490 C.3       8 GLP5        0.0000 
     15 CA         28.5190    2.7240   -0.3535 C.3       4 GLC5        0.0000 
     16 CA         29.4970    1.3480   -1.4640 C.3      12 GLL5        0.0000 
     17 CA         27.5410    4.1000    0.7570 C.3       8 GLP5        0.0000 
     18 CA         31.1430    3.5945   -2.0505 C.3       4 GLC5        0.0000 
     19 CA         31.5260    2.4070   -0.4940 C.3      12 GLL5        0.0000 
     20 CA         30.7600    4.7820   -3.6070 C.3       8 GLP5        0.0000 
     21 CA         30.1805    3.4250    0.3365 C.3       4 GLC5        0.0000 
     22 CA         28.8350    4.4430    1.1670 C.3       8 GLP5        0.0000 
     23 O          32.8875    0.9690    0.1430 O.2       1 ALC1        0.0000 
     24 O          32.9700    2.2820   -0.2880 O.2       9 ALL1        0.0000 
     25 O          32.8050   -0.3440    0.5740 O.2       5 ALP1        0.0000 
     26 CA         33.4650    3.8515   -2.6315 C.3       4 GLC5        0.0000 
     27 CA         33.7960    2.7240   -1.4210 C.3      12 GLL5        0.0000 
     28 CA         33.1340    4.9790   -3.8420 C.3       8 GLP5        0.0000 
     29 CA         34.7185    1.2040   -1.1725 C.3       4 GLC5        0.0000 
     30 CA         35.6410   -0.3160   -0.9240 C.3       8 GLP5        0.0000 
     31 Zn         35.4145    3.4065    4.2985 Zn        3 ZIC7        0.0000 
     32 Zn         36.1420    3.4010    3.2170 Zn       11 ZIL7        0.0000 
     33 Zn         34.6870    3.4120    5.3800 Zn        7 ZIP7        0.0000 
     34 N          37.4430    3.2210    2.9110 N.am      2 SEC2        0.0000 
     35 N          36.1420    3.4010    3.2170 N.am     10 SEL2        0.0000 
     36 N          38.7440    3.0410    2.6050 N.am      6 SEP2        0.0000 
     37 Zn         34.3635    3.4935    4.4740 Zn        3 ZIC7        0.0000 
     38 Zn         34.0400    3.5750    3.5680 Zn       11 ZIL7        0.0000 
     39 N          32.8220    4.2025    3.4020 N.am      2 SEC2        0.0000 
     40 N          34.0400    3.5750    3.5680 N.am     10 SEL2        0.0000 
     41 N          31.6040    4.8300    3.2360 N.am      6 SEP2        0.0000 
     42 CA         21.9175    2.7195    2.0665 C.3       4 GLC5        0.0000 
     43 CA         23.6670    2.1500    2.7520 C.3      12 GLL5        0.0000 
     44 CA         20.3390    2.8220    0.8750 C.3       8 GLP5        0.0000 
     45 CA         23.9600    3.7505    1.8010 C.3       4 GLC5        0.0000 
     46 CA         24.4240    4.8840    0.3440 C.3       8 GLP5        0.0000 
     47 CA         24.6939    3.4192    5.5575 C.3       4 GLC5        0.0000 
     48 CA         26.0490    4.7140    6.1920 C.3       8 GLP5        0.0000 
     49 CA         22.6180   -1.0537    3.3468 C.3       4 GLC5        0.0000 
     50 CA         23.7150    0.4500    4.4180 C.3      12 GLL5        0.0000 
     51 CA         25.1115    0.1094    5.1277 C.3       4 GLC5        0.0000 
     52 CA         23.8450    0.7990    3.0950 C.3      12 GLL5        0.0000 
     53 CA         24.1670   -0.8315    0.0905 C.3       4 GLC5        0.0000 
     54 CA         23.4740   -1.6140   -1.4690 C.3       8 GLP5        0.0000 
     55 CA         26.4215   -1.3840   -0.1312 C.3       4 GLC5        0.0000 
     56 CA         25.5560    0.0510    1.3480 C.3      12 GLL5        0.0000 
     57 CA         27.2210   -3.1510   -1.0040 C.3       8 GLP5        0.0000 
     58 CA         24.8843   -0.4035   -0.8217 C.3       4 GLC5        0.0000 
     59 CA         25.6880    0.7150    0.1350 C.3      12 GLL5        0.0000 
     60 CA         25.8907    2.6620   -0.4253 C.3       4 GLC5        0.0000 
     61 CA         25.4870    4.5170   -0.6760 C.3       8 GLP5        0.0000 
     62 CA         27.3422   -1.2465   -0.5740 C.3       4 GLC5        0.0000 
     63 CA         26.9010    0.8990   -0.4840 C.3      12 GLL5        0.0000 
     64 CA         27.2462   -1.7677    0.3445 C.3       4 GLC5        0.0000 
     65 CA         27.8950   -0.2860    1.4050 C.3      12 GLL5        0.0000 
     66 CA         29.6852   -1.0662    0.3563 C.3       4 GLC5        0.0000 
     67 CA         31.4100   -2.1980   -0.0880 C.3       8 GLP5        0.0000 
     68 CA         30.8287   -0.3802   -0.8183 C.3       4 GLC5        0.0000 
     69 CA         30.5093    2.5838   -3.0133 C.3       4 GLC5        0.0000 
     70 CA         30.9980    1.5270   -1.6330 C.3      12 GLL5        0.0000 
     71 CA         30.7710    3.7300   -4.4780 C.3       8 GLP5        0.0000 
     72 CA         34.8215    1.2965    0.1255 C.3       4 GLC5        0.0000 
     73 CA         33.2710    3.0010    0.9670 C.3      12 GLL5        0.0000 
@<TRIPOS>BOND
@<TRIPOS>SUBSTRUCTURE
     1 ALC1       23 GROUP        1 X    ALC  0     ROOT ALC X 1
     2 SEC2       34 GROUP        1 X    SEC  0     **** SEC X 2
     3 ZIC7       31 GROUP        1 X    ZIC  0     **** ZIC X 5
     4 GLC5        1 GROUP        1 X    GLC  0     **** GLC X 6
     5 ALP1       25 GROUP        1 Y    ALP  0     ROOT ALP Y 8
     6 SEP2       36 GROUP        1 Y    SEP  0     **** SEP Y 9
     7 ZIP7       33 GROUP        1 Y    ZIP  0     **** ZIP Y 12
     8 GLP5        3 GROUP        1 Y    GLP  0     **** GLP Y 13
     9 ALL1       24 GROUP        1 Z    ALL  0     ROOT ALL Z 15
    10 SEL2       35 GROUP        1 Z    SEL  0     **** SEL Z 16
    11 ZIL7       32 GROUP        1 Z    ZIL  0     **** ZIL Z 19
    12 GLL5        2 GROUP        1 Z    GLL  0     **** GLL Z 20
@<TRIPOS>SET

