#    Name: 3u9w_28P_3_ligand
#    Modification time : Mon Mar 24 22:03:06 2014

@<TRIPOS>MOLECULE
3u9w_28P_3_ligand
   49    50     1     0     0
SMALL
NO_CHARGES


@<TRIPOS>ATOM
      1 CAQ        23.6670    2.1500    2.7520 C.ar      1 28P7001     0.0000 
      2 CAR        23.3250    3.0840    3.7640 C.ar      1 28P7001     0.0000 
      3 CAS        23.2160    2.6960    5.0920 C.ar      1 28P7001     0.0000 
      4 CAT        23.4070    1.3590    5.4180 C.ar      1 28P7001     0.0000 
      5 CAU        23.7150    0.4500    4.4180 C.ar      1 28P7001     0.0000 
      6 CAP        23.8450    0.7990    3.0950 C.ar      1 28P7001     0.0000 
      7 CAO        24.1640   -0.1490    1.9520 C.3       1 28P7001     0.0000 
      8 CAN        25.5560    0.0510    1.3480 C.ar      1 28P7001     0.0000 
      9 CAV        25.6880    0.7150    0.1350 C.ar      1 28P7001     0.0000 
     10 CAW        26.9010    0.8990   -0.4840 C.ar      1 28P7001     0.0000 
     11 CAM        26.6480   -0.4830    1.9810 C.ar      1 28P7001     0.0000 
     12 CAL        27.8950   -0.2860    1.4050 C.ar      1 28P7001     0.0000 
     13 CAK        28.0260    0.4170    0.1960 C.ar      1 28P7001     0.0000 
     14 OAJ        29.2610    0.5640   -0.3210 O.3       1 28P7001     0.0000 
     15 CAI        29.4970    1.3480   -1.4640 C.3       1 28P7001     0.0000 
     16 CAH        30.9980    1.5270   -1.6330 C.3       1 28P7001     0.0000 
     17 CAG        31.5260    2.4070   -0.4940 C.3       1 28P7001     0.0000 
     18 N1         32.9700    2.2820   -0.2880 N.4       1 28P7001     0.0000 
     19 CAX        33.7960    2.7240   -1.4210 C.3       1 28P7001     0.0000 
     20 CAB        33.2710    3.0010    0.9670 C.3       1 28P7001     0.0000 
     21 CAC        34.7330    2.8170    1.3830 C.3       1 28P7001     0.0000 
     22 CAD        34.9750    3.3070    2.7910 C.2       1 28P7001     0.0000 
     23 OAF        36.1420    3.4010    3.2170 O.co2     1 28P7001     0.0000 
     24 OAE        34.0400    3.5750    3.5680 O.co2     1 28P7001     0.0000 
     25 H          23.7806    2.4610    1.7913 H         1 28P7001     0.0000 
     26 H          23.1570    4.0661    3.4940 H         1 28P7001     0.0000 
     27 H          22.9992    3.3808    5.8176 H         1 28P7001     0.0000 
     28 H          23.3204    1.0485    6.3917 H         1 28P7001     0.0000 
     29 H          23.8558   -0.5592    4.6909 H         1 28P7001     0.0000 
     30 H          23.4112   -0.0224    1.1556 H         1 28P7001     0.0000 
     31 H          24.0797   -1.1891    2.3098 H         1 28P7001     0.0000 
     32 H          24.8202    1.0900   -0.3235 H         1 28P7001     0.0000 
     33 H          26.9891    1.3530   -1.3757 H         1 28P7001     0.0000 
     34 H          26.5556   -1.0094    2.8476 H         1 28P7001     0.0000 
     35 H          28.7411   -0.6576    1.8647 H         1 28P7001     0.0000 
     36 H          29.0503    2.3453   -1.3840 H         1 28P7001     0.0000 
     37 H          29.1134    0.8789   -2.3768 H         1 28P7001     0.0000 
     38 H          31.2032    2.0087   -2.5788 H         1 28P7001     0.0000 
     39 H          31.4865    0.5634   -1.5935 H         1 28P7001     0.0000 
     40 H          30.9770    2.1348    0.4268 H         1 28P7001     0.0000 
     41 H          31.2551    3.4549   -0.7220 H         1 28P7001     0.0000 
     42 H          33.1809    1.2036   -0.0897 H         1 28P7001     0.0000 
     43 H          32.6327    2.6351    1.7809 H         1 28P7001     0.0000 
     44 H          33.0790    4.0747    0.8490 H         1 28P7001     0.0000 
     45 H          35.3702    3.3691    0.6868 H         1 28P7001     0.0000 
     46 H          34.9888    1.7562    1.3137 H         1 28P7001     0.0000 
     47 H          34.7724    2.6209   -1.2313 H         1 28P7001     0.0000 
     48 H          33.6014    2.1991   -2.2496 H         1 28P7001     0.0000 
     49 H          33.6402    3.6870   -1.6408 H         1 28P7001     0.0000 
@<TRIPOS>BOND
     1    2    1 ar   
     2    6    1 ar   
     3   25    1 1    
     4    3    2 ar   
     5   26    2 1    
     6    4    3 ar   
     7   27    3 1    
     8    5    4 ar   
     9   28    4 1    
    10    6    5 ar   
    11   29    5 1    
    12    7    6 1    
    13    8    7 1    
    14   30    7 1    
    15   31    7 1    
    16    9    8 ar   
    17   11    8 ar   
    18   10    9 ar   
    19   32    9 1    
    20   13   10 ar   
    21   33   10 1    
    22   12   11 ar   
    23   34   11 1    
    24   13   12 ar   
    25   35   12 1    
    26   14   13 1    
    27   15   14 1    
    28   16   15 1    
    29   36   15 1    
    30   37   15 1    
    31   17   16 1    
    32   38   16 1    
    33   39   16 1    
    34   18   17 1    
    35   40   17 1    
    36   41   17 1    
    37   19   18 1    
    38   20   18 1    
    39   42   18 1    
    40   47   19 1    
    41   48   19 1    
    42   49   19 1    
    43   21   20 1    
    44   43   20 1    
    45   44   20 1    
    46   22   21 1    
    47   45   21 1    
    48   46   21 1    
    49   23   22 ar   
    50   24   22 ar   
@<TRIPOS>SUBSTRUCTURE
     1 28P7001     1 GROUP   
@<TRIPOS>SET

