#    Name: 1tvc_FDA_1_INTS_M
#    Modification time : Tue Mar 25 05:42:12 2014

@<TRIPOS>MOLECULE
1tvc_FDA_1_INTS_M
   75     0     9     0     0
SMALL
NO_CHARGES


@<TRIPOS>ATOM
      1 N          10.6905   13.4875    1.8645 N.am      2 SEC2        0.0000 
      2 N           9.1600   13.2460    2.0570 N.am      8 SEL2        0.0000 
      3 N          12.2210   13.7290    1.6720 N.am      5 SEP2        0.0000 
      4 CA          7.0470   12.4450   -1.2320 C.3       3 GLC5        0.0000 
      5 CA          5.9880   13.2710    0.4880 C.3       9 GLL5        0.0000 
      6 CA          8.1060   11.6190   -2.9520 C.3       6 GLP5        0.0000 
      7 CA          2.9860   13.1475    1.7850 C.3       3 GLC5        0.0000 
      8 CA          3.9870   14.9120    1.1960 C.3       9 GLL5        0.0000 
      9 CA          1.9850   11.3830    2.3740 C.3       6 GLP5        0.0000 
     10 CA          5.3265   15.9205   -1.7535 C.3       3 GLC5        0.0000 
     11 CA          3.7580   15.7250   -1.0690 C.3       9 GLL5        0.0000 
     12 CA          6.8950   16.1160   -2.4380 C.3       6 GLP5        0.0000 
     13 CA          1.7090   12.7140   -3.1325 C.3       3 GLC5        0.0000 
     14 CA          1.4810   14.4950   -3.6300 C.3       9 GLL5        0.0000 
     15 CA          1.9370   10.9330   -2.6350 C.3       6 GLP5        0.0000 
     16 O           1.1835   13.2265   -5.8185 O.2       1 ALC1        0.0000 
     17 O          -0.0290   13.8480   -5.4730 O.2       7 ALL1        0.0000 
     18 O           2.3960   12.6050   -6.1640 O.2       4 ALP1        0.0000 
     19 O          -1.3000   13.3035   -5.1700 O.2       1 ALC1        0.0000 
     20 O          -2.5710   12.7590   -4.8670 O.2       4 ALP1        0.0000 
     21 CA          3.3200   15.0525   -5.3620 C.3       3 GLC5        0.0000 
     22 CA          1.9740   16.8190   -5.0500 C.3       9 GLL5        0.0000 
     23 CA          4.6660   13.2860   -5.6740 C.3       6 GLP5        0.0000 
     24 O           4.1175    4.1270   -0.7775 O.2       1 ALC1        0.0000 
     25 O           3.4670    3.9240    0.6230 O.2       7 ALL1        0.0000 
     26 O           4.7680    4.3300   -2.1780 O.2       4 ALP1        0.0000 
     27 CA          4.7775    2.8025    1.5530 C.3       3 GLC5        0.0000 
     28 CA          3.4300    2.5720    2.6400 C.3       9 GLL5        0.0000 
     29 CA          6.1250    3.0330    0.4660 C.3       6 GLP5        0.0000 
     30 CA          3.8625   -1.9955    8.0990 C.3       3 GLC5        0.0000 
     31 CA          2.8260   -1.4070    7.2510 C.3       9 GLL5        0.0000 
     32 CA          4.8990   -2.5840    8.9470 C.3       6 GLP5        0.0000 
     33 CA          4.8840   -0.3550    8.7910 C.3       3 GLC5        0.0000 
     34 CA          4.0150    0.8400    8.9600 C.3       9 GLL5        0.0000 
     35 CA          5.7530   -1.5500    8.6220 C.3       6 GLP5        0.0000 
     36 CA          5.4265    3.2905    2.4825 C.3       3 GLC5        0.0000 
     37 CA          3.9860    3.7400    3.3500 C.3       9 GLL5        0.0000 
     38 CA          6.8670    2.8410    1.6150 C.3       6 GLP5        0.0000 
     39 CA          2.7215    5.5185    3.4200 C.3       3 GLC5        0.0000 
     40 CA          1.4570    7.2970    3.4900 C.3       6 GLP5        0.0000 
     41 CA          7.6560    5.1585    6.7910 C.3       3 GLC5        0.0000 
     42 CA          6.2990    4.7440    5.2130 C.3       9 GLL5        0.0000 
     43 CA          9.0130    5.5730    8.3690 C.3       6 GLP5        0.0000 
     44 O           6.9160    3.8015    6.4440 O.2       1 ALC1        0.0000 
     45 O           6.9730    5.3120    6.3280 O.2       7 ALL1        0.0000 
     46 O           6.8590    2.2910    6.5600 O.2       4 ALP1        0.0000 
     47 CA          7.5325    5.6955    2.1145 C.3       3 GLC5        0.0000 
     48 CA          6.6310    5.5230    3.9810 C.3       9 GLL5        0.0000 
     49 CA          8.4340    5.8680    0.2480 C.3       6 GLP5        0.0000 
     50 CA          7.6170    6.7865    1.6335 C.3       3 GLC5        0.0000 
     51 CA          6.8000    7.7050    3.0190 C.3       9 GLL5        0.0000 
     52 CA          6.2665   15.0430   -0.9930 C.3       3 GLC5        0.0000 
     53 CA         -0.5235   15.1058   -3.9280 C.3       3 GLC5        0.0000 
     54 CA         -2.1910   15.6120   -3.5740 C.3       6 GLP5        0.0000 
     55 CA          3.2073   14.1751   -4.7052 C.3       3 GLC5        0.0000 
     56 CA          2.2635    3.5735    2.6880 C.3       3 GLC5        0.0000 
     57 CA          0.8190    3.9910    2.3810 C.3       6 GLP5        0.0000 
     58 CA          5.2268    0.6362    4.6975 C.3       3 GLC5        0.0000 
     59 CA          3.3750    1.3190    4.6450 C.3       9 GLL5        0.0000 
     60 CA          7.2510    0.5650    4.4320 C.3       6 GLP5        0.0000 
     61 CA          3.5593   -1.0228    4.1555 C.3       3 GLC5        0.0000 
     62 CA          3.9160   -2.7530    3.3480 C.3       6 GLP5        0.0000 
     63 CA          3.4695   -1.7520    5.1480 C.3       3 GLC5        0.0000 
     64 CA          1.7302   -2.0366    5.9965 C.3       3 GLC5        0.0000 
     65 CA          3.0300    0.0960    5.2810 C.3       9 GLL5        0.0000 
     66 CA          0.4850   -3.3700    5.3860 C.3       6 GLP5        0.0000 
     67 CA          5.9325    0.7115    8.5815 C.3       3 GLC5        0.0000 
     68 CA          3.7910    0.9880    7.4760 C.3       9 GLL5        0.0000 
     69 CA          7.9620    0.5090    8.9450 C.3       6 GLP5        0.0000 
     70 CA          5.6427    1.4383    5.2942 C.3       3 GLC5        0.0000 
     71 CA          4.1380    2.2250    6.8640 C.3       9 GLL5        0.0000 
     72 CA          1.9184    2.2634    4.9110 C.3       3 GLC5        0.0000 
     73 CA          3.9310    2.3980    5.4490 C.3       9 GLL5        0.0000 
     74 CA          0.2700    2.9740    4.6160 C.3       6 GLP5        0.0000 
     75 CA          6.6660    3.9873    3.1060 C.3       3 GLC5        0.0000 
@<TRIPOS>BOND
@<TRIPOS>SUBSTRUCTURE
     1 ALC1       16 GROUP        1 X    ALC  0     ROOT ALC X 1
     2 SEC2        1 GROUP        1 X    SEC  0     **** SEC X 2
     3 GLC5        4 GROUP        1 X    GLC  0     **** GLC X 6
     4 ALP1       18 GROUP        1 Y    ALP  0     ROOT ALP Y 8
     5 SEP2        3 GROUP        1 Y    SEP  0     **** SEP Y 9
     6 GLP5        6 GROUP        1 Y    GLP  0     **** GLP Y 13
     7 ALL1       17 GROUP        1 Z    ALL  0     ROOT ALL Z 15
     8 SEL2        2 GROUP        1 Z    SEL  0     **** SEL Z 16
     9 GLL5        5 GROUP        1 Z    GLL  0     **** GLL Z 20
@<TRIPOS>SET

