#    Name: 1tvc_FDA_1_ligand
#    Modification time : Tue Mar 25 05:42:12 2014

@<TRIPOS>MOLECULE
1tvc_FDA_1_ligand
   86    91     1     0     0
SMALL
NO_CHARGES


@<TRIPOS>ATOM
      1 PA          8.1840   12.3020    1.4740 P.3       1 FDA252      0.0000 
      2 O1A         9.1600   13.2460    2.0570 O.co2     1 FDA252      0.0000 
      3 O2A         8.4720   11.8460    0.2380 O.co2     1 FDA252      0.0000 
      4 O5B         6.9690   13.1950    1.5790 O.3       1 FDA252      0.0000 
      5 C5B         5.9880   13.2710    0.4880 C.3       1 FDA252      0.0000 
      6 C4B         5.2880   14.6690    0.4160 C.3       1 FDA252      0.0000 
      7 O4B         4.8620   14.7670   -0.9850 O.3       1 FDA252      0.0000 
      8 C3B         3.9870   14.9120    1.1960 C.3       1 FDA252      0.0000 
      9 O3B         4.1190   15.2300    2.5370 O.3       1 FDA252      0.0000 
     10 C2B         3.2870   15.9590    0.3460 C.3       1 FDA252      0.0000 
     11 O2B         3.5810   17.2550    0.7740 O.3       1 FDA252      0.0000 
     12 C1B         3.7580   15.7250   -1.0690 C.3       1 FDA252      0.0000 
     13 N9A         2.8260   15.0570   -1.9640 N.pl3     1 FDA252      0.0000 
     14 C8A         2.2430   13.8420   -1.7560 C.2       1 FDA252      0.0000 
     15 N7A         1.4340   13.4810   -2.7390 N.2       1 FDA252      0.0000 
     16 C5A         1.4810   14.4950   -3.6300 C.ar      1 FDA252      0.0000 
     17 C6A         0.8070   14.7040   -4.9340 C.ar      1 FDA252      0.0000 
     18 N6A        -0.0290   13.8480   -5.4730 N.pl3     1 FDA252      0.0000 
     19 N1A         1.1130   15.8940   -5.5710 N.ar      1 FDA252      0.0000 
     20 C2A         1.9740   16.8190   -5.0500 C.ar      1 FDA252      0.0000 
     21 N3A         2.6280   16.7100   -3.8680 N.ar      1 FDA252      0.0000 
     22 C4A         2.3530   15.5290   -3.1910 C.ar      1 FDA252      0.0000 
     23 N1          4.2430    4.9140    2.6730 N.am      1 FDA252      0.0000 
     24 C2          3.9930    5.0230    1.3700 C.2       1 FDA252      0.0000 
     25 O2          4.1850    6.0280    0.7640 O.2       1 FDA252      0.0000 
     26 N3          3.4670    3.9240    0.6230 N.am      1 FDA252      0.0000 
     27 C4          3.1850    2.7030    1.2130 C.2       1 FDA252      0.0000 
     28 O4          2.7540    1.8040    0.5210 O.2       1 FDA252      0.0000 
     29 C4X         3.4300    2.5720    2.6400 C.2       1 FDA252      0.0000 
     30 N5          3.1470    1.4110    3.2730 N.pl3     1 FDA252      0.0000 
     31 C5X         3.3750    1.3190    4.6450 C.ar      1 FDA252      0.0000 
     32 C6          3.0300    0.0960    5.2810 C.ar      1 FDA252      0.0000 
     33 C7          3.2200   -0.0950    6.6450 C.ar      1 FDA252      0.0000 
     34 C7M         2.8260   -1.4070    7.2510 C.3       1 FDA252      0.0000 
     35 C8          3.7910    0.9880    7.4760 C.ar      1 FDA252      0.0000 
     36 C8M         4.0150    0.8400    8.9600 C.3       1 FDA252      0.0000 
     37 C9          4.1380    2.2250    6.8640 C.ar      1 FDA252      0.0000 
     38 C9A         3.9310    2.3980    5.4490 C.ar      1 FDA252      0.0000 
     39 N10         4.2350    3.6230    4.7220 N.pl3     1 FDA252      0.0000 
     40 C10         3.9860    3.7400    3.3500 C.2       1 FDA252      0.0000 
     41 C1'         4.8090    4.7380    5.4990 C.3       1 FDA252      0.0000 
     42 C2'         6.2990    4.7440    5.2130 C.3       1 FDA252      0.0000 
     43 O2'         6.9730    5.3120    6.3280 O.3       1 FDA252      0.0000 
     44 C3'         6.6310    5.5230    3.9810 C.3       1 FDA252      0.0000 
     45 O3'         7.9260    5.2250    3.5240 O.3       1 FDA252      0.0000 
     46 C4'         6.5560    6.9900    4.2750 C.3       1 FDA252      0.0000 
     47 O4'         5.2990    7.3890    4.8480 O.3       1 FDA252      0.0000 
     48 C5'         6.8000    7.7050    3.0190 C.3       1 FDA252      0.0000 
     49 O5'         7.0700    9.2300    3.3430 O.3       1 FDA252      0.0000 
     50 P           8.3230    9.7680    2.8060 P.3       1 FDA252      0.0000 
     51 O1P         9.3030    9.4500    3.9570 O.co2     1 FDA252      0.0000 
     52 O2P         8.6430    9.1960    1.5820 O.co2     1 FDA252      0.0000 
     53 O3P         8.0290   11.1800    2.5840 O.3       1 FDA252      0.0000 
     54 H           5.1992   12.5174    0.6126 H         1 FDA252      0.0000 
     55 H           6.4648   13.0945   -0.4852 H         1 FDA252      0.0000 
     56 H           5.9912   15.4358    0.6067 H         1 FDA252      0.0000 
     57 H           3.3904   13.9776    1.0351 H         1 FDA252      0.0000 
     58 H           2.2258   15.7379    0.3751 H         1 FDA252      0.0000 
     59 H           4.1281   16.6265   -1.4950 H         1 FDA252      0.0000 
     60 H           2.4219   13.2974   -0.9393 H         1 FDA252      0.0000 
     61 H          -0.9945   13.9727   -5.2447 H         1 FDA252      0.0000 
     62 H           0.3760   13.1493   -6.0627 H         1 FDA252      0.0000 
     63 H           2.1442   17.7090   -5.6320 H         1 FDA252      0.0000 
     64 H           4.6407    5.7195    3.2111 H         1 FDA252      0.0000 
     65 H           3.2977    4.0637   -0.3908 H         1 FDA252      0.0000 
     66 H           2.7700    0.6001    2.7687 H         1 FDA252      0.0000 
     67 H           2.6284   -0.6630    4.7035 H         1 FDA252      0.0000 
     68 H           4.5270    2.9807    7.4109 H         1 FDA252      0.0000 
     69 H           4.6537    4.5877    6.5557 H         1 FDA252      0.0000 
     70 H           4.3864    5.6797    5.1861 H         1 FDA252      0.0000 
     71 H           6.6147    3.7129    5.0700 H         1 FDA252      0.0000 
     72 H           5.8869    5.2995    3.2208 H         1 FDA252      0.0000 
     73 H           7.3781    7.2302    4.9623 H         1 FDA252      0.0000 
     74 H           5.9417    7.6661    2.3607 H         1 FDA252      0.0000 
     75 H           7.6752    7.3285    2.5052 H         1 FDA252      0.0000 
     76 H           3.3257   -2.1703    6.8414 H         1 FDA252      0.0000 
     77 H           3.0077   -1.4315    8.2340 H         1 FDA252      0.0000 
     78 H           1.8515   -1.5951    7.1283 H         1 FDA252      0.0000 
     79 H           4.6403    0.0879    9.1680 H         1 FDA252      0.0000 
     80 H           4.4083    1.6675    9.3606 H         1 FDA252      0.0000 
     81 H           3.1618    0.6552    9.4478 H         1 FDA252      0.0000 
     82 H           5.0702   15.0175    2.7608 H         1 FDA252      0.0000 
     83 H           3.8717   17.1535    1.7255 H         1 FDA252      0.0000 
     84 H           7.3084    4.5300    6.8533 H         1 FDA252      0.0000 
     85 H           8.5258    5.8551    4.0172 H         1 FDA252      0.0000 
     86 H           5.1983    8.3537    4.6046 H         1 FDA252      0.0000 
@<TRIPOS>BOND
     1    2    1 ar   
     2    3    1 ar   
     3    4    1 1    
     4   53    1 1    
     5    5    4 1    
     6    6    5 1    
     7   54    5 1    
     8   55    5 1    
     9    7    6 1    
    10    8    6 1    
    11   56    6 1    
    12   12    7 1    
    13    9    8 1    
    14   10    8 1    
    15   57    8 1    
    16   82    9 1    
    17   11   10 1    
    18   12   10 1    
    19   58   10 1    
    20   83   11 1    
    21   13   12 1    
    22   59   12 1    
    23   14   13 1    
    24   22   13 1    
    25   15   14 2    
    26   60   14 1    
    27   16   15 1    
    28   17   16 ar   
    29   22   16 ar   
    30   18   17 1    
    31   19   17 ar   
    32   61   18 1    
    33   62   18 1    
    34   20   19 ar   
    35   21   20 ar   
    36   63   20 1    
    37   22   21 ar   
    38   24   23 am   
    39   40   23 1    
    40   64   23 1    
    41   25   24 2    
    42   26   24 am   
    43   27   26 am   
    44   65   26 1    
    45   28   27 2    
    46   29   27 1    
    47   30   29 1    
    48   40   29 2    
    49   31   30 1    
    50   66   30 1    
    51   32   31 ar   
    52   38   31 ar   
    53   33   32 ar   
    54   67   32 1    
    55   34   33 1    
    56   35   33 ar   
    57   76   34 1    
    58   77   34 1    
    59   78   34 1    
    60   36   35 1    
    61   37   35 ar   
    62   79   36 1    
    63   80   36 1    
    64   81   36 1    
    65   38   37 ar   
    66   68   37 1    
    67   39   38 1    
    68   40   39 1    
    69   41   39 1    
    70   42   41 1    
    71   69   41 1    
    72   70   41 1    
    73   43   42 1    
    74   44   42 1    
    75   71   42 1    
    76   84   43 1    
    77   45   44 1    
    78   46   44 1    
    79   72   44 1    
    80   85   45 1    
    81   47   46 1    
    82   48   46 1    
    83   73   46 1    
    84   86   47 1    
    85   49   48 1    
    86   74   48 1    
    87   75   48 1    
    88   50   49 1    
    89   51   50 ar   
    90   52   50 ar   
    91   53   50 1    
@<TRIPOS>SUBSTRUCTURE
     1 FDA252      1 GROUP   
@<TRIPOS>SET

