#    Name: 1yds_IQS_1_INTS_M
#    Modification time : Mon Apr  7 15:41:52 2014

@<TRIPOS>MOLECULE
1yds_IQS_1_INTS_M
   51     0     9     0     0
SMALL
NO_CHARGES


@<TRIPOS>ATOM
      1 CA          8.1060   11.8190    1.6740 C.3       3 GLC5        0.0000 
      2 CA          7.1340   10.1760    1.5900 C.3       9 GLL5        0.0000 
      3 CA          9.0780   13.4620    1.7580 C.3       6 GLP5        0.0000 
      4 CA          5.7255   11.1895   -0.6335 C.3       3 GLC5        0.0000 
      5 CA          6.0160   10.0210    0.7520 C.3       9 GLL5        0.0000 
      6 CA          5.4350   12.3580   -2.0190 C.3       6 GLP5        0.0000 
      7 CA          3.5015    8.3770    0.3950 C.3       3 GLC5        0.0000 
      8 CA          4.7310    9.8660    1.2740 C.3       9 GLL5        0.0000 
      9 CA          2.2720    6.8880   -0.4840 C.3       6 GLP5        0.0000 
     10 CA          4.5820   10.4515   -0.6780 C.3       3 GLC5        0.0000 
     11 CA          4.4330   11.0370   -2.6300 C.3       6 GLP5        0.0000 
     12 CA          1.4180   10.4225    3.7170 C.3       3 GLC5        0.0000 
     13 CA          3.2910    9.7100    3.2190 C.3       9 GLL5        0.0000 
     14 CA         -0.4550   11.1350    4.2150 C.3       6 GLP5        0.0000 
     15 CA          2.0080    8.1875    3.1930 C.3       3 GLC5        0.0000 
     16 CA          0.7250    6.6650    3.1670 C.3       6 GLP5        0.0000 
     17 N           1.7255    9.3165    4.7665 N.am      1 SEC2        0.0000 
     18 N           3.1280    9.7070    4.5750 N.am      7 SEL2        0.0000 
     19 N           0.3230    8.9260    4.9580 N.am      4 SEP2        0.0000 
     20 CA          9.2010    6.4565    5.8375 C.3       3 GLC5        0.0000 
     21 CA          9.0040    7.7420    4.3380 C.3       9 GLL5        0.0000 
     22 CA          9.3980    5.1710    7.3370 C.3       6 GLP5        0.0000 
     23 CA          7.5800    6.6355    5.0010 C.3       3 GLC5        0.0000 
     24 CA          6.1560    5.5290    5.6640 C.3       6 GLP5        0.0000 
     25 OD1        11.0245    7.0470    5.2355 O.co2     2 ASC3        0.0000 
     26 OD1        11.1750    7.0990    3.3810 O.co2     8 ASL3        0.0000 
     27 OD1        10.8740    6.9950    7.0900 O.co2     5 ASP3        0.0000 
     28 OD1        11.2660    7.5995    1.4805 O.co2     2 ASC3        0.0000 
     29 OD1        11.3570    8.1000   -0.4200 O.co2     5 ASP3        0.0000 
     30 OD1        10.6415    6.7655    1.8235 O.co2     2 ASC3        0.0000 
     31 OD1        10.1080    6.4320    0.2660 O.co2     5 ASP3        0.0000 
     32 CA          6.6178   12.0008    3.1122 C.3       3 GLC5        0.0000 
     33 CA          6.9860   10.1780    2.9890 C.3       9 GLL5        0.0000 
     34 CA          6.8990   13.9030    2.9630 C.3       6 GLP5        0.0000 
     35 CA          5.6147    8.2982    3.5087 C.3       3 GLC5        0.0000 
     36 CA          4.8930    6.4980    3.7560 C.3       6 GLP5        0.0000 
     37 CA          6.6310    8.2278    0.5435 C.3       3 GLC5        0.0000 
     38 CA          6.6870    6.3570   -0.0840 C.3       6 GLP5        0.0000 
     39 CA          5.0177    8.0583    1.2992 C.3       3 GLC5        0.0000 
     40 CA          4.5640    9.8650    2.6710 C.3       9 GLL5        0.0000 
     41 CA          5.3880    6.2510    0.6260 C.3       6 GLP5        0.0000 
     42 CA          4.4311    8.1429    3.1759 C.3       3 GLC5        0.0000 
     43 CA          4.7317   11.7205    5.9493 C.3       3 GLC5        0.0000 
     44 CA          5.4830   10.0090    4.9180 C.3       9 GLL5        0.0000 
     45 CA          4.6300   13.5110    6.7400 C.3       6 GLP5        0.0000 
     46 CA          4.0427   11.5120    4.0147 C.3       3 GLC5        0.0000 
     47 CA          4.1840    9.8510    5.3990 C.3       9 GLL5        0.0000 
     48 CA          3.2520   13.0940    2.8710 C.3       6 GLP5        0.0000 
     49 CA          4.8632    8.2140    4.4573 C.3       3 GLC5        0.0000 
     50 CA          4.0401   11.4987    2.9679 C.3       3 GLC5        0.0000 
     51 CA          5.6870   10.0190    3.5340 C.3       9 GLL5        0.0000 
@<TRIPOS>BOND
@<TRIPOS>SUBSTRUCTURE
     1 SEC2       17 GROUP        1 X    SEC  0     ROOT SEC X 2
     2 ASC3       25 GROUP        1 X    ASC  0     **** ASC X 3
     3 GLC5        1 GROUP        1 X    GLC  0     **** GLC X 6
     4 SEP2       19 GROUP        1 Y    SEP  0     ROOT SEP Y 9
     5 ASP3       27 GROUP        1 Y    ASP  0     **** ASP Y 10
     6 GLP5        3 GROUP        1 Y    GLP  0     **** GLP Y 13
     7 SEL2       18 GROUP        1 Z    SEL  0     ROOT SEL Z 16
     8 ASL3       26 GROUP        1 Z    ASL  0     **** ASL Z 17
     9 GLL5        2 GROUP        1 Z    GLL  0     **** GLL Z 20
@<TRIPOS>SET

