#    Name: 1yds_IQS_1_ligand
#    Modification time : Mon Apr  7 15:41:52 2014

@<TRIPOS>MOLECULE
1yds_IQS_1_ligand
   32    33     1     0     0
SMALL
NO_CHARGES


@<TRIPOS>ATOM
      1 C1          6.9860   10.1780    2.9890 C.ar      1 IQS351      0.0000 
      2 C2          7.1340   10.1760    1.5900 C.ar      1 IQS351      0.0000 
      3 C3          6.0160   10.0210    0.7520 C.ar      1 IQS351      0.0000 
      4 C4          4.7310    9.8660    1.2740 C.ar      1 IQS351      0.0000 
      5 C5          4.5640    9.8650    2.6710 C.ar      1 IQS351      0.0000 
      6 C6          3.2910    9.7100    3.2190 C.ar      1 IQS351      0.0000 
      7 N7          3.1280    9.7070    4.5750 N.ar      1 IQS351      0.0000 
      8 C8          4.1840    9.8510    5.3990 C.ar      1 IQS351      0.0000 
      9 C9          5.4830   10.0090    4.9180 C.ar      1 IQS351      0.0000 
     10 C10         5.6870   10.0190    3.5340 C.ar      1 IQS351      0.0000 
     11 S           8.4470   10.3740    3.9930 S.o2      1 IQS351      0.0000 
     12 O1          8.1500   11.4220    4.9350 O.2       1 IQS351      0.0000 
     13 O2          9.5850   10.4810    3.1000 O.2       1 IQS351      0.0000 
     14 N1'         8.4810    9.0070    4.8510 N.pl3     1 IQS351      0.0000 
     15 C2'         9.0040    7.7420    4.3380 C.3       1 IQS351      0.0000 
     16 C3'         9.9790    7.9390    3.1780 C.3       1 IQS351      0.0000 
     17 N4'        11.1750    7.0990    3.3810 N.4       1 IQS351      0.0000 
     18 C5'        12.3100    7.9960    3.6460 C.3       1 IQS351      0.0000 
     19 H           8.0681   10.2889    1.1773 H         1 IQS351      0.0000 
     20 H           6.1534   10.0224   -0.2739 H         1 IQS351      0.0000 
     21 H           3.9282    9.7556    0.6614 H         1 IQS351      0.0000 
     22 H           2.4813    9.5986    2.5897 H         1 IQS351      0.0000 
     23 H           4.0453    9.8468    6.4395 H         1 IQS351      0.0000 
     24 H           6.2660   10.1148    5.5569 H         1 IQS351      0.0000 
     25 H           8.1074    9.0926    5.7850 H         1 IQS351      0.0000 
     26 H           8.1819    7.0951    3.9865 H         1 IQS351      0.0000 
     27 H           9.5289    7.1865    5.1342 H         1 IQS351      0.0000 
     28 H          10.2535    8.9934    3.1316 H         1 IQS351      0.0000 
     29 H           9.4728    7.6690    2.2505 H         1 IQS351      0.0000 
     30 H          13.1588    7.4878    3.7919 H         1 IQS351      0.0000 
     31 H          12.4719    8.6248    2.8854 H         1 IQS351      0.0000 
     32 H          12.1591    8.5549    4.4614 H         1 IQS351      0.0000 
@<TRIPOS>BOND
     1    2    1 ar   
     2   10    1 ar   
     3   11    1 1    
     4    3    2 ar   
     5   19    2 1    
     6    4    3 ar   
     7   20    3 1    
     8    5    4 ar   
     9   21    4 1    
    10    6    5 ar   
    11   10    5 ar   
    12    7    6 ar   
    13   22    6 1    
    14    8    7 ar   
    15    9    8 ar   
    16   23    8 1    
    17   10    9 ar   
    18   24    9 1    
    19   12   11 2    
    20   13   11 2    
    21   14   11 1    
    22   15   14 1    
    23   25   14 1    
    24   16   15 1    
    25   26   15 1    
    26   27   15 1    
    27   17   16 1    
    28   28   16 1    
    29   29   16 1    
    30   18   17 1    
    31   30   18 1    
    32   31   18 1    
    33   32   18 1    
@<TRIPOS>SUBSTRUCTURE
     1 IQS351      1 GROUP   
@<TRIPOS>SET

