#    Name: 3CHO_1_CAVITY_N1_6.mol2
#    Modification time : Tue Mar 11 14:09:07 2014

@<TRIPOS>MOLECULE
3CHO_1_CAVITY_N1_6.mol2
   42     0     7     0     0
SMALL
NO_CHARGES


@<TRIPOS>ATOM
      1 CZ         27.6753    1.3728   -0.6869 C.ar      5 PHE5        0.0000 
      2 CA         28.1630   -0.0297   -0.8994 C.3       6 GLY6        0.0000 
      3 NZ         27.4330    1.5118   -2.1607 N.2       4 LYS4        0.0000 
      4 NZ         27.9208    0.1093   -2.3732 N.2       4 LYS4        0.0000 
      5 CZ         29.3152    1.7474    0.6055 C.ar      5 PHE5        0.0000 
      6 CA         29.8029    0.3449    0.3931 C.3       6 GLY6        0.0000 
      7 CZ         29.0729    1.8864   -0.8682 C.ar      5 PHE5        0.0000 
      8 CA         29.5607    0.4839   -1.0807 C.3       6 GLY6        0.0000 
      9 OG         28.8306    2.0254   -2.3420 O.2       1 SER1        0.0000 
     10 N          29.3184    0.6229   -2.5545 N.2       2 ALA2        0.0000 
     11 CZ         30.7128    2.2609    0.4242 C.ar      5 PHE5        0.0000 
     12 CZ         30.4705    2.3999   -1.0495 C.ar      5 PHE5        0.0000 
     13 N          30.9583    0.9975   -1.2620 N.2       2 ALA2        0.0000 
     14 OG         30.7160    1.1365   -2.7358 O.2       1 SER1        0.0000 
     15 N          32.1104    2.7745    0.2429 N.2       2 ALA2        0.0000 
     16 CZ         31.8682    2.9135   -1.2309 C.ar      5 PHE5        0.0000 
     17 N          32.3559    1.5110   -1.4433 N.2       2 ALA2        0.0000 
     18 OG         33.7503    3.1490    1.5354 O.2       1 SER1        0.0000 
     19 OG         33.0203    4.6905    0.2741 O.2       1 SER1        0.0000 
     20 N          33.5081    3.2881    0.0616 N.2       2 ALA2        0.0000 
     21 N          33.9958    1.8856   -0.1509 N.2       2 ALA2        0.0000 
     22 CZ         33.2658    3.4271   -1.4122 C.ar      5 PHE5        0.0000 
     23 N          33.7536    2.0246   -1.6246 N.2       2 ALA2        0.0000 
     24 CZ         33.9269    7.7310    3.4652 C.ar      5 PHE5        0.0000 
     25 CZ         34.4147    6.3285    3.2527 C.ar      5 PHE5        0.0000 
     26 OD1        34.9024    4.9261    3.0403 O.3       3 ASP3        0.0000 
     27 OG         33.6846    7.8700    1.9915 O.2       1 SER1        0.0000 
     28 OG         34.1724    6.4676    1.7790 O.2       1 SER1        0.0000 
     29 OG         34.6602    5.0651    1.5665 O.2       1 SER1        0.0000 
     30 OG         33.4423    8.0090    0.5177 O.2       1 SER1        0.0000 
     31 OG         33.9301    6.6066    0.3052 O.2       1 SER1        0.0000 
     32 N          34.4179    5.2041    0.0928 N.2       2 ALA2        0.0000 
     33 CZ         33.2001    8.1480   -0.9561 C.ar      5 PHE5        0.0000 
     34 N          34.6634    3.9406   -1.5935 N.2       2 ALA2        0.0000 
     35 CA         35.8123    6.8421    3.0714 C.3       6 GLY6        0.0000 
     36 NZ         36.3001    5.4396    2.8590 N.2       4 LYS4        0.0000 
     37 DU         35.0822    8.3836    1.8101 H         7 CUB7        0.0000 
     38 NZ         35.5700    6.9811    1.5977 N.2       4 LYS4        0.0000 
     39 NZ         36.0578    5.5786    1.3852 N.2       4 LYS4        0.0000 
     40 O          35.3278    7.1201    0.1239 O.2       2 ALA2        0.0000 
     41 CA         26.7654   -0.5432   -0.7181 C.3       6 GLY6        0.0000 
     42 NZ         36.9677    7.4947    1.4164 N.2       4 LYS4        0.0000 
@<TRIPOS>BOND
@<TRIPOS>SUBSTRUCTURE
     1 SER1        9 GROUP   
     2 ALA2       10 GROUP   
     3 ASP3       26 GROUP   
     4 LYS4        3 GROUP   
     5 PHE5        1 GROUP   
     6 GLY6        2 GROUP   
     7 CUB7       37 GROUP   
@<TRIPOS>SET

