#    Name: 3CHO_1_CAVITY_N1_ALL.mol2
#    Modification time : Tue Mar 11 14:09:07 2014

@<TRIPOS>MOLECULE
3CHO_1_CAVITY_N1_ALL.mol2
  174     0     7     0     0
SMALL
NO_CHARGES


@<TRIPOS>ATOM
      1 CA         24.2608   11.1901    0.8003 C.3       6 GLY6        0.0000 
      2 CZ         27.6753    1.3728   -0.6869 C.ar      5 PHE5        0.0000 
      3 CA         28.1630   -0.0297   -0.8994 C.3       6 GLY6        0.0000 
      4 DU         24.0185   11.3291   -0.6734 H         7 CUB7        0.0000 
      5 N          24.5063    9.9266   -0.8859 N.2       2 ALA2        0.0000 
      6 NZ         27.4330    1.5118   -2.1607 N.2       4 LYS4        0.0000 
      7 NZ         27.9208    0.1093   -2.3732 N.2       4 LYS4        0.0000 
      8 DU         23.7763   11.4681   -2.1472 H         7 CUB7        0.0000 
      9 O          24.2640   10.0656   -2.3596 O.2       2 ALA2        0.0000 
     10 N          24.7518    8.6632   -2.5721 N.2       2 ALA2        0.0000 
     11 OD1        23.5340   11.6071   -3.6209 O.3       3 ASP3        0.0000 
     12 CZ         29.3152    1.7474    0.6055 C.ar      5 PHE5        0.0000 
     13 CA         29.8029    0.3449    0.3931 C.3       6 GLY6        0.0000 
     14 O          25.6584   11.7037    0.6190 O.2       2 ALA2        0.0000 
     15 CA         26.1462   10.3012    0.4066 C.3       6 GLY6        0.0000 
     16 CZ         29.0729    1.8864   -0.8682 C.ar      5 PHE5        0.0000 
     17 CA         29.5607    0.4839   -1.0807 C.3       6 GLY6        0.0000 
     18 DU         25.4162   11.8427   -0.8547 H         7 CUB7        0.0000 
     19 N          25.9039   10.4402   -1.0672 N.2       2 ALA2        0.0000 
     20 N          26.3917    9.0377   -1.2797 N.2       2 ALA2        0.0000 
     21 OG         28.8306    2.0254   -2.3420 O.2       1 SER1        0.0000 
     22 N          29.3184    0.6229   -2.5545 N.2       2 ALA2        0.0000 
     23 DU         25.1739   11.9817   -2.3285 H         7 CUB7        0.0000 
     24 O          25.6617   10.5792   -2.5410 O.2       2 ALA2        0.0000 
     25 O          26.1495    9.1767   -2.7534 O.2       2 ALA2        0.0000 
     26 CZ         26.6372    7.7743   -2.9659 C.ar      5 PHE5        0.0000 
     27 O          24.9316   12.1207   -3.8023 O.2       2 ALA2        0.0000 
     28 O          25.4194   10.7182   -4.0147 O.2       2 ALA2        0.0000 
     29 CZ         30.7128    2.2609    0.4242 C.ar      5 PHE5        0.0000 
     30 OG         27.0561   12.2172    0.4377 O.2       1 SER1        0.0000 
     31 OG         27.5438   10.8148    0.2253 O.2       1 SER1        0.0000 
     32 CZ         28.0316    9.4123    0.0128 C.ar      5 PHE5        0.0000 
     33 CZ         30.4705    2.3999   -1.0495 C.ar      5 PHE5        0.0000 
     34 N          30.9583    0.9975   -1.2620 N.2       2 ALA2        0.0000 
     35 DU         26.8138   12.3562   -1.0360 H         7 CUB7        0.0000 
     36 DU         27.3016   10.9538   -1.2485 H         7 CUB7        0.0000 
     37 CZ         27.7894    9.5513   -1.4610 C.ar      5 PHE5        0.0000 
     38 OG         30.7160    1.1365   -2.7358 O.2       1 SER1        0.0000 
     39 DU         26.5715   12.4952   -2.5098 H         7 CUB7        0.0000 
     40 DU         27.0593   11.0928   -2.7223 H         7 CUB7        0.0000 
     41 DU         27.5471    9.6903   -2.9347 H         7 CUB7        0.0000 
     42 CZ         28.0349    8.2878   -3.1472 C.ar      5 PHE5        0.0000 
     43 CA         26.3293   12.6343   -3.9836 C.3       6 GLY6        0.0000 
     44 N          26.8170   11.2318   -4.1960 N.2       2 ALA2        0.0000 
     45 CA         27.3048    9.8293   -4.4085 C.3       6 GLY6        0.0000 
     46 OG         30.1561    9.5088    4.2528 O.2       1 SER1        0.0000 
     47 OG         29.9138    9.6478    2.7790 O.2       1 SER1        0.0000 
     48 OG         30.4016    8.2454    2.5665 O.2       1 SER1        0.0000 
     49 OG         29.6715    9.7868    1.3052 O.2       1 SER1        0.0000 
     50 N          32.1104    2.7745    0.2429 N.2       2 ALA2        0.0000 
     51 OG         28.9415   11.3283    0.0439 O.2       1 SER1        0.0000 
     52 CZ         29.4293    9.9259   -0.1685 C.ar      5 PHE5        0.0000 
     53 CZ         31.8682    2.9135   -1.2309 C.ar      5 PHE5        0.0000 
     54 N          32.3559    1.5110   -1.4433 N.2       2 ALA2        0.0000 
     55 CA         28.2114   12.8698   -1.2174 C.3       6 GLY6        0.0000 
     56 CA         28.6992   11.4673   -1.4298 C.3       6 GLY6        0.0000 
     57 CZ         29.1870   10.0649   -1.6423 C.ar      5 PHE5        0.0000 
     58 CZ         29.6748    8.6624   -1.8548 C.ar      5 PHE5        0.0000 
     59 CA         27.9692   13.0088   -2.6911 C.3       6 GLY6        0.0000 
     60 CA         28.4569   11.6063   -2.9036 C.3       6 GLY6        0.0000 
     61 O          28.9447   10.2039   -3.1161 O.2       2 ALA2        0.0000 
     62 CA         29.4325    8.8014   -3.3285 C.3       6 GLY6        0.0000 
     63 CZ         31.7960    9.8834    5.5452 C.ar      5 PHE5        0.0000 
     64 OG         30.5781   12.8273    4.4964 O.2       1 SER1        0.0000 
     65 OG         31.0659   11.4249    4.2839 O.2       1 SER1        0.0000 
     66 CZ         31.5537   10.0224    4.0715 C.ar      5 PHE5        0.0000 
     67 CZ         32.0415    8.6199    3.8590 C.ar      5 PHE5        0.0000 
     68 OG         30.3359   12.9663    3.0226 O.2       1 SER1        0.0000 
     69 OG         30.8236   11.5639    2.8102 O.2       1 SER1        0.0000 
     70 OG         31.3114   10.1614    2.5977 O.2       1 SER1        0.0000 
     71 OG         31.7992    8.7589    2.3852 O.2       1 SER1        0.0000 
     72 OG         33.7503    3.1490    1.5354 O.2       1 SER1        0.0000 
     73 OG         30.0936   13.1054    1.5489 O.2       1 SER1        0.0000 
     74 OG         30.5814   11.7029    1.3364 O.2       1 SER1        0.0000 
     75 DU         31.0692   10.3004    1.1239 H         7 CUB7        0.0000 
     76 OG         31.5569    8.8979    0.9115 O.2       1 SER1        0.0000 
     77 OG         33.0203    4.6905    0.2741 O.2       1 SER1        0.0000 
     78 N          33.5081    3.2881    0.0616 N.2       2 ALA2        0.0000 
     79 N          33.9958    1.8856   -0.1509 N.2       2 ALA2        0.0000 
     80 CA         30.3391   11.8419   -0.1374 C.3       6 GLY6        0.0000 
     81 CA         30.8269   10.4394   -0.3498 C.3       6 GLY6        0.0000 
     82 OG         31.3147    9.0369   -0.5623 O.2       1 SER1        0.0000 
     83 CZ         33.2658    3.4271   -1.4122 C.ar      5 PHE5        0.0000 
     84 N          33.7536    2.0246   -1.6246 N.2       2 ALA2        0.0000 
     85 CA         30.5846   10.5784   -1.8236 C.3       6 GLY6        0.0000 
     86 O          31.0724    9.1760   -2.0361 O.2       2 ALA2        0.0000 
     87 O          30.8301    9.3150   -3.5098 O.2       2 ALA2        0.0000 
     88 NZ         33.4359   10.2579    6.8377 N.2       4 LYS4        0.0000 
     89 CZ         33.9236    8.8555    6.6252 C.ar      5 PHE5        0.0000 
     90 NZ         32.2180   13.2019    5.7889 N.2       4 LYS4        0.0000 
     91 NZ         32.7058   11.7994    5.5764 N.2       4 LYS4        0.0000 
     92 CZ         33.1936   10.3970    5.3639 C.ar      5 PHE5        0.0000 
     93 CZ         33.6814    8.9945    5.1514 C.ar      5 PHE5        0.0000 
     94 OD1        31.9758   13.3409    4.3151 O.3       3 ASP3        0.0000 
     95 DU         32.4635   11.9384    4.1026 H         7 CUB7        0.0000 
     96 DU         32.9513   10.5360    3.8902 H         7 CUB7        0.0000 
     97 CZ         33.4391    9.1335    3.6777 C.ar      5 PHE5        0.0000 
     98 CZ         33.9269    7.7310    3.4652 C.ar      5 PHE5        0.0000 
     99 CZ         34.4147    6.3285    3.2527 C.ar      5 PHE5        0.0000 
    100 OD1        34.9024    4.9261    3.0403 O.3       3 ASP3        0.0000 
    101 CA         31.7335   13.4799    2.8413 C.3       6 GLY6        0.0000 
    102 OD1        32.2213   12.0774    2.6289 O.3       3 ASP3        0.0000 
    103 DU         32.7090   10.6750    2.4164 H         7 CUB7        0.0000 
    104 OG         33.6846    7.8700    1.9915 O.2       1 SER1        0.0000 
    105 OG         34.1724    6.4676    1.7790 O.2       1 SER1        0.0000 
    106 OG         34.6602    5.0651    1.5665 O.2       1 SER1        0.0000 
    107 CA         31.9790   12.2164    1.1551 C.3       6 GLY6        0.0000 
    108 CA         32.4668   10.8140    0.9426 C.3       6 GLY6        0.0000 
    109 OG         32.9546    9.4115    0.7302 O.2       1 SER1        0.0000 
    110 OG         33.4423    8.0090    0.5177 O.2       1 SER1        0.0000 
    111 OG         33.9301    6.6066    0.3052 O.2       1 SER1        0.0000 
    112 N          34.4179    5.2041    0.0928 N.2       2 ALA2        0.0000 
    113 CA         32.2245   10.9530   -0.5311 C.3       6 GLY6        0.0000 
    114 CA         32.7123    9.5505   -0.7436 C.3       6 GLY6        0.0000 
    115 CZ         33.2001    8.1480   -0.9561 C.ar      5 PHE5        0.0000 
    116 N          34.6634    3.9406   -1.5935 N.2       2 ALA2        0.0000 
    117 CA         32.4700    9.6895   -2.2174 C.3       6 GLY6        0.0000 
    118 NZ         35.0757   10.6325    8.1301 N.2       4 LYS4        0.0000 
    119 O          33.8579   13.5765    7.0813 O.2       2 ALA2        0.0000 
    120 O          34.3457   12.1740    6.8688 O.2       2 ALA2        0.0000 
    121 NZ         34.8335   10.7715    6.6564 N.2       4 LYS4        0.0000 
    122 NZ         35.3213    9.3690    6.4439 N.2       4 LYS4        0.0000 
    123 DU         33.6157   13.7155    5.6075 H         7 CUB7        0.0000 
    124 DU         34.1034   12.3130    5.3951 H         7 CUB7        0.0000 
    125 DU         34.5912   10.9105    5.1826 H         7 CUB7        0.0000 
    126 O          35.0790    9.5080    4.9701 O.2       2 ALA2        0.0000 
    127 O          35.5668    8.1056    4.7577 O.2       2 ALA2        0.0000 
    128 OD1        33.3734   13.8545    4.1338 O.3       3 ASP3        0.0000 
    129 OD1        33.8612   12.4520    3.9213 O.3       3 ASP3        0.0000 
    130 DU         34.3489   11.0495    3.7088 H         7 CUB7        0.0000 
    131 DU         34.8367    9.6471    3.4964 H         7 CUB7        0.0000 
    132 DU         35.3245    8.2446    3.2839 H         7 CUB7        0.0000 
    133 CA         35.8123    6.8421    3.0714 C.3       6 GLY6        0.0000 
    134 NZ         36.3001    5.4396    2.8590 N.2       4 LYS4        0.0000 
    135 OD1        34.1067   11.1885    2.2351 O.3       3 ASP3        0.0000 
    136 DU         34.5945    9.7861    2.0226 H         7 CUB7        0.0000 
    137 DU         35.0822    8.3836    1.8101 H         7 CUB7        0.0000 
    138 NZ         35.5700    6.9811    1.5977 N.2       4 LYS4        0.0000 
    139 NZ         36.0578    5.5786    1.3852 N.2       4 LYS4        0.0000 
    140 CA         33.8644   11.3275    0.7613 C.3       6 GLY6        0.0000 
    141 O          34.3522    9.9251    0.5488 O.2       2 ALA2        0.0000 
    142 O          35.3278    7.1201    0.1239 O.2       2 ALA2        0.0000 
    143 O          34.1099   10.0641   -0.9249 O.2       2 ALA2        0.0000 
    144 CZ         20.0711    8.5249   -1.8157 C.ar      5 PHE5        0.0000 
    145 CZ         19.3411   10.0664   -3.0770 C.ar      5 PHE5        0.0000 
    146 N          19.8289    8.6640   -3.2895 N.2       2 ALA2        0.0000 
    147 CZ         20.9810   10.4410   -1.7846 C.ar      5 PHE5        0.0000 
    148 CZ         21.4688    9.0385   -1.9970 C.ar      5 PHE5        0.0000 
    149 O          20.7387   10.5800   -3.2583 O.2       2 ALA2        0.0000 
    150 O          21.2265    9.1775   -3.4708 O.2       2 ALA2        0.0000 
    151 CA         26.7654   -0.5432   -0.7181 C.3       6 GLY6        0.0000 
    152 CZ         22.6209   10.8155   -0.4921 C.ar      5 PHE5        0.0000 
    153 N          23.1087    9.4131   -0.7046 N.2       2 ALA2        0.0000 
    154 DU         22.3786   10.9545   -1.9659 H         7 CUB7        0.0000 
    155 N          22.8664    9.5521   -2.1783 N.2       2 ALA2        0.0000 
    156 O          22.1364   11.0936   -3.4396 O.2       2 ALA2        0.0000 
    157 O          35.7433   12.6876    6.6875 O.2       2 ALA2        0.0000 
    158 NZ         36.2311   11.2851    6.4751 N.2       4 LYS4        0.0000 
    159 NZ         36.7189    9.8826    6.2626 N.2       4 LYS4        0.0000 
    160 DU         35.0133   14.2290    5.4262 H         7 CUB7        0.0000 
    161 O          35.5011   12.8266    5.2138 O.2       2 ALA2        0.0000 
    162 O          35.9888   11.4241    5.0013 O.2       2 ALA2        0.0000 
    163 O          36.4766   10.0216    4.7888 O.2       2 ALA2        0.0000 
    164 CA         36.9644    8.6191    4.5764 C.3       6 GLY6        0.0000 
    165 OD1        35.2588   12.9656    3.7400 O.3       3 ASP3        0.0000 
    166 DU         35.7466   11.5631    3.5275 H         7 CUB7        0.0000 
    167 CA         36.2344   10.1606    3.3151 C.3       6 GLY6        0.0000 
    168 CA         36.7221    8.7582    3.1026 C.3       6 GLY6        0.0000 
    169 NZ         37.2099    7.3557    2.8901 N.2       4 LYS4        0.0000 
    170 O          35.5043   11.7021    2.0538 O.2       2 ALA2        0.0000 
    171 O          35.9921   10.2996    1.8413 O.2       2 ALA2        0.0000 
    172 CA         36.4799    8.8972    1.6288 C.3       6 GLY6        0.0000 
    173 NZ         36.9677    7.4947    1.4164 N.2       4 LYS4        0.0000 
    174 CA         36.2376    9.0362    0.1551 C.3       6 GLY6        0.0000 
@<TRIPOS>BOND
@<TRIPOS>SUBSTRUCTURE
     1 SER1       21 GROUP   
     2 ALA2        5 GROUP   
     3 ASP3       11 GROUP   
     4 LYS4        6 GROUP   
     5 PHE5        2 GROUP   
     6 GLY6        1 GROUP   
     7 CUB7        4 GROUP   
@<TRIPOS>SET

