#    Name: 3cho_4BG_1_INTS_M
#    Modification time : Mon Mar 24 21:27:31 2014

@<TRIPOS>MOLECULE
3cho_4BG_1_INTS_M
   49     0     6     0     0
SMALL
NO_CHARGES


@<TRIPOS>ATOM
      1 CA         24.5550   -2.2810    3.3075 C.3       2 GLC5        0.0000 
      2 CA         24.4390   -0.1590    3.5850 C.3       6 GLL5        0.0000 
      3 CA         24.6710   -4.4030    3.0300 C.3       4 GLP5        0.0000 
      4 CA         21.4195    0.3970    2.9440 C.3       2 GLC5        0.0000 
      5 CA         22.8920    1.6500    4.0840 C.3       6 GLL5        0.0000 
      6 CA         19.9470   -0.8560    1.8040 C.3       4 GLP5        0.0000 
      7 CA         26.7350    0.7045    3.2670 C.3       2 GLC5        0.0000 
      8 CA         25.9480   -0.0260    1.5520 C.3       6 GLL5        0.0000 
      9 CA         27.5220    1.4350    4.9820 C.3       4 GLP5        0.0000 
     10 CA         24.9195   -0.8595   -0.0680 C.3       2 GLC5        0.0000 
     11 CA         23.8910   -1.6930   -1.6880 C.3       4 GLP5        0.0000 
     12 O          31.4775    1.2005   -2.7280 O.2       1 ALC1        0.0000 
     13 O          31.1750    1.6990   -1.3930 O.2       5 ALL1        0.0000 
     14 O          31.7800    0.7020   -4.0630 O.2       3 ALP1        0.0000 
     15 CA         33.4175    3.7495   -2.4265 C.3       2 GLC5        0.0000 
     16 CA         33.5070    2.3450   -1.2300 C.3       6 GLL5        0.0000 
     17 CA         33.3280    5.1540   -3.6230 C.3       4 GLP5        0.0000 
     18 CA         34.7130    1.0035   -1.1610 C.3       2 GLC5        0.0000 
     19 CA         35.9190   -0.3380   -1.0920 C.3       4 GLP5        0.0000 
     20 O          35.6930    3.6760   -0.6375 O.2       1 ALC1        0.0000 
     21 O          34.3360    3.2530   -0.4220 O.2       5 ALL1        0.0000 
     22 O          37.0500    4.0990   -0.8530 O.2       3 ALP1        0.0000 
     23 CA         21.8230    0.4073    5.0765 C.3       2 GLC5        0.0000 
     24 CA         23.5200    0.4490    4.4520 C.3       6 GLL5        0.0000 
     25 CA         20.4400   -0.2350    5.8850 C.3       4 GLP5        0.0000 
     26 CA         24.1465    3.3480    1.1875 C.3       2 GLC5        0.0000 
     27 CA         23.1740    2.2360    2.8430 C.3       6 GLL5        0.0000 
     28 CA         24.6590    4.7640   -0.0350 C.3       4 GLP5        0.0000 
     29 CA         22.1187    2.1777    1.5376 C.3       2 GLC5        0.0000 
     30 CA         24.0940    1.6280    1.9770 C.3       6 GLL5        0.0000 
     31 CA         20.6740    2.5700    0.3550 C.3       4 GLP5        0.0000 
     32 CA         25.5186   -0.1803    4.6399 C.3       2 GLC5        0.0000 
     33 CA         24.7390    0.4320    2.3510 C.3       6 GLL5        0.0000 
     34 CA         26.6780   -0.6490    6.0950 C.3       4 GLP5        0.0000 
     35 CA         23.0756   -1.0737    2.8199 C.3       2 GLC5        0.0000 
     36 CA         21.7920   -2.4360    2.4550 C.3       4 GLP5        0.0000 
     37 CA         27.8032   -1.3695   -0.3558 C.3       2 GLC5        0.0000 
     38 CA         27.4400    0.4410   -0.0940 C.3       6 GLL5        0.0000 
     39 CA         27.6530   -3.2860   -1.0850 C.3       4 GLP5        0.0000 
     40 CA         25.7338   -0.6058   -1.2348 C.3       2 GLC5        0.0000 
     41 CA         26.6823    2.4558   -0.8988 C.3       2 GLC5        0.0000 
     42 CA         27.7130    0.5220   -1.4690 C.3       6 GLL5        0.0000 
     43 CA         25.7880    4.4300   -1.0160 C.3       4 GLP5        0.0000 
     44 CA         30.3180   -0.6333    0.1627 C.3       2 GLC5        0.0000 
     45 CA         28.4670    0.6530    0.8410 C.3       6 GLL5        0.0000 
     46 CA         31.5300   -2.0910   -0.3020 C.3       4 GLP5        0.0000 
     47 CA         28.0068   -1.2953   -1.3845 C.3       2 GLC5        0.0000 
     48 CA         29.0080    0.8690   -1.8990 C.3       6 GLL5        0.0000 
     49 CA         30.5235   -0.5455   -0.8650 C.3       2 GLC5        0.0000 
@<TRIPOS>BOND
@<TRIPOS>SUBSTRUCTURE
     1 ALC1       12 GROUP        1 X    ALC  0     ROOT ALC X 1
     2 GLC5        1 GROUP        1 X    GLC  0     **** GLC X 6
     3 ALP1       14 GROUP        1 Y    ALP  0     ROOT ALP Y 8
     4 GLP5        3 GROUP        1 Y    GLP  0     **** GLP Y 13
     5 ALL1       13 GROUP        1 Z    ALL  0     ROOT ALL Z 15
     6 GLL5        2 GROUP        1 Z    GLL  0     **** GLL Z 20
@<TRIPOS>SET

