#    Name: 3cho_4BG_1_ligand
#    Modification time : Mon Mar 24 21:27:31 2014

@<TRIPOS>MOLECULE
3cho_4BG_1_ligand
   36    37     1     0     0
SMALL
NO_CHARGES


@<TRIPOS>ATOM
      1 C1         24.4390   -0.1590    3.5850 C.ar      1 4BG901      0.0000 
      2 C2         23.5200    0.4490    4.4520 C.ar      1 4BG901      0.0000 
      3 C3         22.8920    1.6500    4.0840 C.ar      1 4BG901      0.0000 
      4 C4         23.1740    2.2360    2.8430 C.ar      1 4BG901      0.0000 
      5 C5         24.0940    1.6280    1.9770 C.ar      1 4BG901      0.0000 
      6 C6         24.7390    0.4320    2.3510 C.ar      1 4BG901      0.0000 
      7 C7         25.9480   -0.0260    1.5520 C.3       1 4BG901      0.0000 
      8 O8         26.1420    0.5280    0.3220 O.3       1 4BG901      0.0000 
      9 C9         27.4400    0.4410   -0.0940 C.ar      1 4BG901      0.0000 
     10 C12        28.4670    0.6530    0.8410 C.ar      1 4BG901      0.0000 
     11 C13        29.7450    0.9960    0.4140 C.ar      1 4BG901      0.0000 
     12 C10        27.7130    0.5220   -1.4690 C.ar      1 4BG901      0.0000 
     13 C11        29.0080    0.8690   -1.8990 C.ar      1 4BG901      0.0000 
     14 C14        30.0260    1.1310   -0.9570 C.ar      1 4BG901      0.0000 
     15 N15        31.1750    1.6990   -1.3930 N.am      1 4BG901      0.0000 
     16 C16        32.1290    2.2040   -0.5820 C.2       1 4BG901      0.0000 
     17 O17        31.9390    2.5910    0.5750 O.2       1 4BG901      0.0000 
     18 C18        33.5070    2.3450   -1.2300 C.3       1 4BG901      0.0000 
     19 N19        34.3360    3.2530   -0.4220 N.4       1 4BG901      0.0000 
     20 H          24.8923   -1.0384    3.8555 H         1 4BG901      0.0000 
     21 H          23.3054    0.0169    5.3563 H         1 4BG901      0.0000 
     22 H          22.2283    2.0963    4.7236 H         1 4BG901      0.0000 
     23 H          22.7097    3.1060    2.5687 H         1 4BG901      0.0000 
     24 H          24.3006    2.0528    1.0670 H         1 4BG901      0.0000 
     25 H          25.8760   -1.1623    1.5014 H         1 4BG901      0.0000 
     26 H          26.8482    0.1250    2.2346 H         1 4BG901      0.0000 
     27 H          28.2661    0.5525    1.8443 H         1 4BG901      0.0000 
     28 H          30.4950    1.1536    1.1006 H         1 4BG901      0.0000 
     29 H          26.9805    0.3314   -2.1519 H         1 4BG901      0.0000 
     30 H          29.2141    0.9321   -2.9005 H         1 4BG901      0.0000 
     31 H          31.3362    1.7504   -2.4501 H         1 4BG901      0.0000 
     32 H          33.3756    2.7355   -2.2381 H         1 4BG901      0.0000 
     33 H          33.9620    1.3574   -1.2911 H         1 4BG901      0.0000 
     34 H          35.2490    3.3692   -0.8131 H         1 4BG901      0.0000 
     35 H          33.9291    4.1638   -0.3518 H         1 4BG901      0.0000 
     36 H          34.4577    2.9136    0.5107 H         1 4BG901      0.0000 
@<TRIPOS>BOND
     1    2    1 ar   
     2    6    1 ar   
     3   20    1 1    
     4    3    2 ar   
     5   21    2 1    
     6    4    3 ar   
     7   22    3 1    
     8    5    4 ar   
     9   23    4 1    
    10    6    5 ar   
    11   24    5 1    
    12    7    6 1    
    13    8    7 1    
    14   25    7 1    
    15   26    7 1    
    16    9    8 1    
    17   10    9 ar   
    18   12    9 ar   
    19   11   10 ar   
    20   27   10 1    
    21   14   11 ar   
    22   28   11 1    
    23   13   12 ar   
    24   29   12 1    
    25   14   13 ar   
    26   30   13 1    
    27   15   14 1    
    28   16   15 am   
    29   31   15 1    
    30   17   16 2    
    31   18   16 1    
    32   19   18 1    
    33   32   18 1    
    34   33   18 1    
    35   34   19 1    
    36   35   19 1    
    37   36   19 1    
@<TRIPOS>SUBSTRUCTURE
     1 4BG901      1 GROUP   
@<TRIPOS>SET

