#    Name: 3inv_C50_1_INTS_M
#    Modification time : Tue Mar 25 16:58:16 2014

@<TRIPOS>MOLECULE
3inv_C50_1_INTS_M
   75     0     9     0     0
SMALL
NO_CHARGES


@<TRIPOS>ATOM
      1 N         -30.4815   15.3105   50.9875 N.am      2 SEC2        0.0000 
      2 N         -30.3450   16.0990   52.0780 N.am      8 SEL2        0.0000 
      3 N         -30.6180   14.5220   49.8970 N.am      5 SEP2        0.0000 
      4 CA        -30.0195   15.0625   53.6545 C.3       3 GLC5        0.0000 
      5 CA        -31.5630   16.4730   52.8340 C.3       9 GLL5        0.0000 
      6 CA        -28.4760   13.6520   54.4750 C.3       6 GLP5        0.0000 
      7 O         -28.3180   15.4835   50.4280 O.2       1 ALC1        0.0000 
      8 O         -28.1560   16.4100   51.4440 O.2       7 ALL1        0.0000 
      9 O         -28.4800   14.5570   49.4120 O.2       4 ALP1        0.0000 
     10 O         -29.3870   15.4660   50.6705 O.2       1 ALC1        0.0000 
     11 O         -30.6180   14.5220   49.8970 O.2       4 ALP1        0.0000 
     12 O         -28.8610   20.0800   54.3570 O.2       1 ALC1        0.0000 
     13 O         -29.9990   19.3210   54.5610 O.2       7 ALL1        0.0000 
     14 O         -27.7230   20.8390   54.1530 O.2       4 ALP1        0.0000 
     15 O         -30.6810   19.9820   55.5855 O.2       1 ALC1        0.0000 
     16 O         -31.3630   20.6430   56.6100 O.2       4 ALP1        0.0000 
     17 O         -30.1285   20.6980   54.1375 O.2       1 ALC1        0.0000 
     18 O         -30.2580   22.0750   53.7140 O.2       4 ALP1        0.0000 
     19 CA        -30.8295   17.0640   56.4175 C.3       3 GLC5        0.0000 
     20 CA        -32.5150   17.6260   55.9140 C.3       9 GLL5        0.0000 
     21 CA        -29.1440   16.5020   56.9210 C.3       6 GLP5        0.0000 
     22 CA        -31.0940   18.6460   57.2180 C.3       3 GLC5        0.0000 
     23 CA        -29.6730   19.6660   58.5220 C.3       6 GLP5        0.0000 
     24 CA        -32.9715   19.3555   54.8195 C.3       3 GLC5        0.0000 
     25 CA        -33.4280   21.0850   53.7250 C.3       6 GLP5        0.0000 
     26 CA        -32.6110   18.5095   58.3000 C.3       3 GLC5        0.0000 
     27 CA        -33.7910   18.2990   56.4610 C.3       9 GLL5        0.0000 
     28 CA        -31.4310   18.7200   60.1390 C.3       6 GLP5        0.0000 
     29 CA        -35.5420   17.6875   53.8825 C.3       3 GLC5        0.0000 
     30 CA        -35.0880   17.5810   55.9760 C.3       9 GLL5        0.0000 
     31 CA        -35.9960   17.7940   51.7890 C.3       6 GLP5        0.0000 
     32 CA        -36.4265   12.8080   54.3315 C.3       3 GLC5        0.0000 
     33 CA        -37.9440   13.2140   55.8570 C.3       9 GLL5        0.0000 
     34 CA        -34.9090   12.4020   52.8060 C.3       6 GLP5        0.0000 
     35 CA        -36.6235   16.6770   53.6100 C.3       3 GLC5        0.0000 
     36 CA        -37.2510   15.5600   55.4310 C.3       9 GLL5        0.0000 
     37 CA        -33.9780   12.8395   55.8080 C.3       3 GLC5        0.0000 
     38 CA        -34.2430   13.6880   57.5170 C.3       9 GLL5        0.0000 
     39 CA        -33.7130   11.9910   54.0990 C.3       6 GLP5        0.0000 
     40 CA        -32.2070   14.1005   57.6500 C.3       3 GLC5        0.0000 
     41 CA        -30.1710   14.5130   57.7830 C.3       6 GLP5        0.0000 
     42 CA        -35.2870   14.9625   59.0395 C.3       3 GLC5        0.0000 
     43 CA        -36.3310   16.2370   60.5620 C.3       6 GLP5        0.0000 
     44 CA        -33.9755   13.3620   59.4125 C.3       3 GLC5        0.0000 
     45 CA        -33.7080   13.0360   61.3080 C.3       6 GLP5        0.0000 
     46 CA        -37.7165   10.3250   58.0255 C.3       3 GLC5        0.0000 
     47 CA        -36.4780   11.3530   57.1940 C.3       9 GLL5        0.0000 
     48 CA        -38.9550    9.2970   58.8570 C.3       6 GLP5        0.0000 
     49 CA        -32.9150   13.5995   53.8135 C.3       3 GLC5        0.0000 
     50 CA        -32.1170   15.2080   53.5280 C.3       9 GLL5        0.0000 
     51 CA        -30.5420   14.8180   54.6015 C.3       3 GLC5        0.0000 
     52 CA        -28.9670   14.4280   55.6750 C.3       6 GLP5        0.0000 
     53 CA        -31.5895   17.5000   50.2090 C.3       3 GLC5        0.0000 
     54 CA        -32.6110   16.9450   51.8040 C.3       9 GLL5        0.0000 
     55 CA        -30.5680   18.0550   48.6140 C.3       6 GLP5        0.0000 
     56 CA        -34.3035   17.3695   51.7965 C.3       3 GLC5        0.0000 
     57 CA        -33.1895   19.0535   52.0820 C.3       3 GLC5        0.0000 
     58 CA        -33.7680   21.1620   52.3600 C.3       6 GLP5        0.0000 
     59 CA        -35.0587   19.2800   57.2182 C.3       3 GLC5        0.0000 
     60 CA        -35.6780   20.6200   58.2180 C.3       6 GLP5        0.0000 
     61 CA        -34.3488   19.7250   55.4787 C.3       3 GLC5        0.0000 
     62 CA        -34.2580   21.5100   54.7390 C.3       6 GLP5        0.0000 
     63 CA        -34.7863   13.3247   55.2533 C.3       3 GLC5        0.0000 
     64 CA        -35.9660   15.2860   56.1520 C.3       9 GLL5        0.0000 
     65 CA        -35.1698   12.0735   55.4768 C.3       3 GLC5        0.0000 
     66 CA        -36.7750   12.9590   56.5150 C.3       9 GLL5        0.0000 
     67 CA        -37.3498   12.9800   58.6217 C.3       3 GLC5        0.0000 
     68 CA        -38.0730   13.8040   60.3890 C.3       6 GLP5        0.0000 
     69 CA        -38.9648   14.5503   57.4338 C.3       3 GLC5        0.0000 
     70 CA        -39.8620   15.2100   59.2940 C.3       6 GLP5        0.0000 
     71 CA        -39.2816   13.1874   57.0050 C.3       3 GLC5        0.0000 
     72 CA        -38.1910   14.5670   55.2900 C.3       9 GLL5        0.0000 
     73 CA        -40.7880   12.5480   58.2720 C.3       6 GLP5        0.0000 
     74 CA        -37.0556   15.6256   57.8021 C.3       3 GLC5        0.0000 
     75 CA        -37.5560   16.1420   59.6850 C.3       6 GLP5        0.0000 
@<TRIPOS>BOND
@<TRIPOS>SUBSTRUCTURE
     1 ALC1        7 GROUP        1 X    ALC  0     ROOT ALC X 1
     2 SEC2        1 GROUP        1 X    SEC  0     **** SEC X 2
     3 GLC5        4 GROUP        1 X    GLC  0     **** GLC X 6
     4 ALP1        9 GROUP        1 Y    ALP  0     ROOT ALP Y 8
     5 SEP2        3 GROUP        1 Y    SEP  0     **** SEP Y 9
     6 GLP5        6 GROUP        1 Y    GLP  0     **** GLP Y 13
     7 ALL1        8 GROUP        1 Z    ALL  0     ROOT ALL Z 15
     8 SEL2        2 GROUP        1 Z    SEL  0     **** SEL Z 16
     9 GLL5        5 GROUP        1 Z    GLL  0     **** GLL Z 20
@<TRIPOS>SET

