#    Name: 3inv_C50_1_ligand
#    Modification time : Tue Mar 25 16:58:16 2014

@<TRIPOS>MOLECULE
3inv_C50_1_ligand
   42    43     1     0     0
SMALL
NO_CHARGES


@<TRIPOS>ATOM
      1 N1        -30.3450   16.0990   52.0780 N.2       1 C50601      0.0000 
      2 C2        -29.2090   16.7820   52.1680 C.2       1 C50601      0.0000 
      3 N3        -29.1290   17.9000   53.0230 N.2       1 C50601      0.0000 
      4 C4        -30.1520   18.2620   53.7950 C.2       1 C50601      0.0000 
      5 N5        -31.3240   17.5940   53.7990 N.pl3     1 C50601      0.0000 
      6 C6        -31.5630   16.4730   52.8340 C.3       1 C50601      0.0000 
      7 N7        -28.1560   16.4100   51.4440 N.pl3     1 C50601      0.0000 
      8 N8        -29.9990   19.3210   54.5610 N.pl3     1 C50601      0.0000 
      9 O9        -32.3880   18.0680   54.5480 O.3       1 C50601      0.0000 
     10 C10       -32.5150   17.6260   55.9140 C.3       1 C50601      0.0000 
     11 C11       -33.7910   18.2990   56.4610 C.3       1 C50601      0.0000 
     12 C12       -35.0880   17.5810   55.9760 C.3       1 C50601      0.0000 
     13 O13       -34.9590   16.2010   56.3730 O.3       1 C50601      0.0000 
     14 C14       -35.9660   15.2860   56.1520 C.ar      1 C50601      0.0000 
     15 C15       -35.7530   14.0310   56.6630 C.ar      1 C50601      0.0000 
     16 C16       -36.7750   12.9590   56.5150 C.ar      1 C50601      0.0000 
     17 C17       -37.9440   13.2140   55.8570 C.ar      1 C50601      0.0000 
     18 C18       -38.1910   14.5670   55.2900 C.ar      1 C50601      0.0000 
     19 C19       -37.2510   15.5600   55.4310 C.ar      1 C50601      0.0000 
     20 CL20      -34.2430   13.6880   57.5170 Cl        1 C50601      0.0000 
     21 CL21      -36.4780   11.3530   57.1940 Cl        1 C50601      0.0000 
     22 C22       -32.1170   15.2080   53.5280 C.3       1 C50601      0.0000 
     23 C23       -32.6110   16.9450   51.8040 C.3       1 C50601      0.0000 
     24 H         -28.2994   15.6401   50.8221 H         1 C50601      0.0000 
     25 H         -27.3163   16.9339   51.5871 H         1 C50601      0.0000 
     26 H         -30.4646   19.2952   55.4456 H         1 C50601      0.0000 
     27 H         -29.4311   20.0551   54.1887 H         1 C50601      0.0000 
     28 H         -31.6846   17.9457   56.5220 H         1 C50601      0.0000 
     29 H         -32.6469   16.5586   55.9837 H         1 C50601      0.0000 
     30 H         -33.8221   19.3355   56.1278 H         1 C50601      0.0000 
     31 H         -33.7694   18.2797   57.5498 H         1 C50601      0.0000 
     32 H         -35.1405   17.6953   54.9060 H         1 C50601      0.0000 
     33 H         -35.9240   18.0666   56.4514 H         1 C50601      0.0000 
     34 H         -38.6747   12.5207   55.7266 H         1 C50601      0.0000 
     35 H         -39.0747   14.7083   54.8045 H         1 C50601      0.0000 
     36 H         -37.3762   16.4997   55.0652 H         1 C50601      0.0000 
     37 H         -31.4515   14.8088   54.1587 H         1 C50601      0.0000 
     38 H         -32.9412   15.4062   54.0585 H         1 C50601      0.0000 
     39 H         -32.3577   14.4971   52.8672 H         1 C50601      0.0000 
     40 H         -32.2896   17.7356   51.2828 H         1 C50601      0.0000 
     41 H         -32.8310   16.2278   51.1427 H         1 C50601      0.0000 
     42 H         -33.4689   17.2123   52.2429 H         1 C50601      0.0000 
@<TRIPOS>BOND
     1    2    1 2    
     2    6    1 1    
     3    3    2 1    
     4    7    2 1    
     5    4    3 2    
     6    5    4 1    
     7    8    4 1    
     8    6    5 1    
     9    9    5 1    
    10   22    6 1    
    11   23    6 1    
    12   24    7 1    
    13   25    7 1    
    14   26    8 1    
    15   27    8 1    
    16   10    9 1    
    17   11   10 1    
    18   28   10 1    
    19   29   10 1    
    20   12   11 1    
    21   30   11 1    
    22   31   11 1    
    23   13   12 1    
    24   32   12 1    
    25   33   12 1    
    26   14   13 1    
    27   15   14 ar   
    28   19   14 ar   
    29   16   15 ar   
    30   20   15 1    
    31   17   16 ar   
    32   21   16 1    
    33   18   17 ar   
    34   34   17 1    
    35   19   18 ar   
    36   35   18 1    
    37   36   19 1    
    38   37   22 1    
    39   38   22 1    
    40   39   22 1    
    41   40   23 1    
    42   41   23 1    
    43   42   23 1    
@<TRIPOS>SUBSTRUCTURE
     1 C50601      1 GROUP   
@<TRIPOS>SET

