#    Name: 3qts_X46_1_INTS_M
#    Modification time : Tue Mar 25 10:07:41 2014

@<TRIPOS>MOLECULE
3qts_X46_1_INTS_M
   56     0     9     0     0
SMALL
NO_CHARGES


@<TRIPOS>ATOM
      1 N          90.7500   82.3415  -52.1790 N.am      2 SEC2        0.0000 
      2 N          91.5880   81.7670  -51.0210 N.am      8 SEL2        0.0000 
      3 N          89.9120   82.9160  -53.3370 N.am      5 SEP2        0.0000 
      4 CA         92.9710   82.3195  -47.9115 C.3       3 GLC5        0.0000 
      5 CA         91.9990   80.7250  -48.6970 C.3       9 GLL5        0.0000 
      6 CA         93.9430   83.9140  -47.1260 C.3       6 GLP5        0.0000 
      7 CA         90.7860   79.3470  -49.2355 C.3       3 GLC5        0.0000 
      8 CA         89.5730   77.9690  -49.7740 C.3       6 GLP5        0.0000 
      9 CA         96.4240   79.4190  -45.8840 C.3       3 GLC5        0.0000 
     10 CA         94.6490   78.6040  -45.9850 C.3       9 GLL5        0.0000 
     11 CA         98.1990   80.2340  -45.7830 C.3       6 GLP5        0.0000 
     12 O          93.2355   81.3615  -53.6020 O.2       1 ALC1        0.0000 
     13 O          93.1730   80.5960  -52.3660 O.2       7 ALL1        0.0000 
     14 O          93.2980   82.1270  -54.8380 O.2       4 ALP1        0.0000 
     15 CA         95.6620   80.6045  -47.1945 C.3       3 GLC5        0.0000 
     16 CA         94.4070   79.2600  -47.2610 C.3       9 GLL5        0.0000 
     17 CA         96.9170   81.9490  -47.1280 C.3       6 GLP5        0.0000 
     18 O          89.2215   83.0095  -50.2895 O.2       1 ALC1        0.0000 
     19 O          90.1470   82.6800  -49.3430 O.2       7 ALL1        0.0000 
     20 O          88.2960   83.3390  -51.2360 O.2       4 ALP1        0.0000 
     21 N          95.7795   78.1700  -50.6015 N.am      2 SEC2        0.0000 
     22 N          94.6470   78.7150  -50.9120 N.am      8 SEL2        0.0000 
     23 N          96.9120   77.6250  -50.2910 N.am      5 SEP2        0.0000 
     24 CA         94.0785   76.2505  -50.3975 C.3       3 GLC5        0.0000 
     25 CA         94.2590   76.9840  -48.4130 C.3       9 GLL5        0.0000 
     26 CA         93.8980   75.5170  -52.3820 C.3       6 GLP5        0.0000 
     27 CA         95.0385   80.3650  -42.3795 C.3       3 GLC5        0.0000 
     28 CA         95.0620   79.0020  -43.5900 C.3       9 GLL5        0.0000 
     29 CA         95.0150   81.7280  -41.1690 C.3       6 GLP5        0.0000 
     30 CA         96.3750   79.0655  -42.0430 C.3       3 GLC5        0.0000 
     31 CA         97.6880   79.1290  -40.4960 C.3       6 GLP5        0.0000 
     32 CA         96.7640   77.9420  -43.5040 C.3       3 GLC5        0.0000 
     33 CA         98.4660   76.8820  -43.4180 C.3       6 GLP5        0.0000 
     34 CA         96.6305   79.6180  -44.6865 C.3       3 GLC5        0.0000 
     35 CA         88.0475   81.0220  -44.1730 C.3       3 GLC5        0.0000 
     36 CA         88.7290   81.7050  -45.8450 C.3       9 GLL5        0.0000 
     37 CA         87.3660   80.3390  -42.5010 C.3       6 GLP5        0.0000 
     38 CA         86.8430   81.5510  -44.3740 C.3       3 GLC5        0.0000 
     39 CA         87.7360   82.7710  -45.7110 C.3       9 GLL5        0.0000 
     40 CA         85.9500   80.3310  -43.0370 C.3       6 GLP5        0.0000 
     41 CA         93.2945   75.9522  -45.2705 C.3       3 GLC5        0.0000 
     42 CA         94.6970   77.1150  -45.9280 C.3       9 GLL5        0.0000 
     43 CA         91.9900   75.1920  -43.9990 C.3       6 GLP5        0.0000 
     44 CA         95.9049   78.4572  -49.1620 C.3       3 GLC5        0.0000 
     45 CA         97.5270   78.9930  -50.1770 C.3       6 GLP5        0.0000 
     46 CA         93.8125   74.8400  -48.3023 C.3       3 GLC5        0.0000 
     47 CA         93.2450   73.0330  -48.8200 C.3       6 GLP5        0.0000 
     48 CA         94.0473   81.7897  -50.8280 C.3       3 GLC5        0.0000 
     49 CA         92.9190   80.1850  -49.9980 C.3       9 GLL5        0.0000 
     50 CA         95.3430   83.0640  -51.0710 C.3       6 GLP5        0.0000 
     51 CA         91.9057   79.3197  -51.1805 C.3       3 GLC5        0.0000 
     52 CA         92.5840   80.8460  -51.1720 C.3       9 GLL5        0.0000 
     53 CA         91.0600   78.1240  -51.7760 C.3       6 GLP5        0.0000 
     54 CA         86.6238   82.2327  -47.8856 C.3       3 GLC5        0.0000 
     55 CA         87.5680   83.7710  -46.7920 C.3       9 GLL5        0.0000 
     56 CA         85.2350   80.9700  -48.6520 C.3       6 GLP5        0.0000 
@<TRIPOS>BOND
@<TRIPOS>SUBSTRUCTURE
     1 ALC1       12 GROUP        1 X    ALC  0     ROOT ALC X 1
     2 SEC2        1 GROUP        1 X    SEC  0     **** SEC X 2
     3 GLC5        4 GROUP        1 X    GLC  0     **** GLC X 6
     4 ALP1       14 GROUP        1 Y    ALP  0     ROOT ALP Y 8
     5 SEP2        3 GROUP        1 Y    SEP  0     **** SEP Y 9
     6 GLP5        6 GROUP        1 Y    GLP  0     **** GLP Y 13
     7 ALL1       13 GROUP        1 Z    ALL  0     ROOT ALL Z 15
     8 SEL2        2 GROUP        1 Z    SEL  0     **** SEL Z 16
     9 GLL5        5 GROUP        1 Z    GLL  0     **** GLL Z 20
@<TRIPOS>SET

