#    Name: 3qts_X46_1_ligand
#    Modification time : Tue Mar 25 10:07:41 2014

@<TRIPOS>MOLECULE
3qts_X46_1_ligand
   38    40     1     0     0
SMALL
NO_CHARGES


@<TRIPOS>ATOM
      1 C1         94.6970   77.1150  -45.9280 C.ar      1 X46299      0.0000 
      2 N1         91.5880   81.7670  -51.0210 N.2       1 X46299      0.0000 
      3 S1         91.9990   80.7250  -48.6970 S.3       1 X46299      0.0000 
      4 C2         94.6490   78.6040  -45.9850 C.ar      1 X46299      0.0000 
      5 N2         93.1730   80.5960  -52.3660 N.pl3     1 X46299      0.0000 
      6 C3         94.4070   79.2600  -47.2610 C.ar      1 X46299      0.0000 
      7 N3         90.1470   82.6800  -49.3430 N.pl3     1 X46299      0.0000 
      8 O3         94.6470   78.7150  -50.9120 O.2       1 X46299      0.0000 
      9 C4         94.2590   76.9840  -48.4130 C.ar      1 X46299      0.0000 
     10 C5         94.5010   76.3100  -47.1560 C.ar      1 X46299      0.0000 
     11 O6         94.8310   79.4290  -44.8390 O.3       1 X46299      0.0000 
     12 C7         95.0620   79.0020  -43.5900 C.3       1 X46299      0.0000 
     13 C10        94.2060   78.4580  -48.5010 C.ar      1 X46299      0.0000 
     14 C11        93.9560   79.1040  -49.8330 C.2       1 X46299      0.0000 
     15 C12        92.9190   80.1850  -49.9980 C.2       1 X46299      0.0000 
     16 C13        92.5840   80.8460  -51.1720 C.2       1 X46299      0.0000 
     17 C14        91.1660   81.8130  -49.7360 C.2       1 X46299      0.0000 
     18 C15        89.3870   82.6670  -48.1580 C.ar      1 X46299      0.0000 
     19 C16        89.5380   81.6480  -47.0320 C.ar      1 X46299      0.0000 
     20 C17        88.7290   81.7050  -45.8450 C.ar      1 X46299      0.0000 
     21 C18        87.7360   82.7710  -45.7110 C.ar      1 X46299      0.0000 
     22 C19        87.5680   83.7710  -46.7920 C.ar      1 X46299      0.0000 
     23 C20        88.3730   83.7200  -47.9870 C.ar      1 X46299      0.0000 
     24 H          94.8629   76.6605  -45.0530 H         1 X46299      0.0000 
     25 H          93.8483   79.8585  -52.3777 H         1 X46299      0.0000 
     26 H          92.8804   81.1711  -53.1300 H         1 X46299      0.0000 
     27 H          94.3722   80.2632  -47.3227 H         1 X46299      0.0000 
     28 H          89.9027   83.4756  -50.0435 H         1 X46299      0.0000 
     29 H          94.1208   76.4434  -49.2616 H         1 X46299      0.0000 
     30 H          94.5384   75.3136  -47.1006 H         1 X46299      0.0000 
     31 H          90.2368   80.9270  -47.1595 H         1 X46299      0.0000 
     32 H          88.8351   81.0292  -45.1129 H         1 X46299      0.0000 
     33 H          87.1645   82.8324  -44.8904 H         1 X46299      0.0000 
     34 H          86.8707   84.4963  -46.6727 H         1 X46299      0.0000 
     35 H          88.2504   84.4047  -48.7184 H         1 X46299      0.0000 
     36 H          95.9005   78.4602  -43.5318 H         1 X46299      0.0000 
     37 H          95.1600   79.7635  -42.9493 H         1 X46299      0.0000 
     38 H          94.3175   78.4272  -43.2504 H         1 X46299      0.0000 
@<TRIPOS>BOND
     1    4    1 ar   
     2   10    1 ar   
     3   24    1 1    
     4   16    2 1    
     5   17    2 2    
     6   15    3 1    
     7   17    3 1    
     8    6    4 ar   
     9   11    4 1    
    10   16    5 1    
    11   25    5 1    
    12   26    5 1    
    13   13    6 ar   
    14   27    6 1    
    15   17    7 1    
    16   18    7 1    
    17   28    7 1    
    18   14    8 2    
    19   10    9 ar   
    20   13    9 ar   
    21   29    9 1    
    22   30   10 1    
    23   12   11 1    
    24   36   12 1    
    25   37   12 1    
    26   38   12 1    
    27   14   13 1    
    28   15   14 1    
    29   16   15 2    
    30   19   18 ar   
    31   23   18 ar   
    32   20   19 ar   
    33   31   19 1    
    34   21   20 ar   
    35   32   20 1    
    36   22   21 ar   
    37   33   21 1    
    38   23   22 ar   
    39   34   22 1    
    40   35   23 1    
@<TRIPOS>SUBSTRUCTURE
     1 X46299      1 GROUP   
@<TRIPOS>SET

