#    Name: 1hpx_KNI_1_INTS_M
#    Modification time : Tue Mar 25 05:41:13 2014

@<TRIPOS>MOLECULE
1hpx_KNI_1_INTS_M
   94     0     9     0     0
SMALL
NO_CHARGES


@<TRIPOS>ATOM
      1 CA          8.9675    0.9780    6.7465 C.3       3 GLC5        0.0000 
      2 CA          6.8480    1.1810    6.1590 C.3       9 GLL5        0.0000 
      3 CA         11.0870    0.7750    7.3340 C.3       6 GLP5        0.0000 
      4 CA          9.7775    1.7120    6.4895 C.3       3 GLC5        0.0000 
      5 CA          8.4680    2.6490    5.6450 C.3       9 GLL5        0.0000 
      6 N           2.4810    5.0070   12.8110 N.am      2 SEC2        0.0000 
      7 N           3.3270    4.2970   11.8520 N.am      8 SEL2        0.0000 
      8 N           1.6350    5.7170   13.7700 N.am      5 SEP2        0.0000 
      9 O           3.8410    1.5015    9.5895 O.2       1 ALC1        0.0000 
     10 O           3.9550    2.3840   10.8930 O.2       7 ALL1        0.0000 
     11 O           3.7270    0.6190    8.2860 O.2       4 ALP1        0.0000 
     12 CA          2.6355    2.7610   13.4685 C.3       3 GLC5        0.0000 
     13 CA          3.0280    1.6030   11.6960 C.3       9 GLL5        0.0000 
     14 CA          2.2430    3.9190   15.2410 C.3       6 GLP5        0.0000 
     15 CA          0.4770   -1.4640   11.9580 C.3       3 GLC5        0.0000 
     16 CA          0.6680    0.4350   11.9930 C.3       9 GLL5        0.0000 
     17 CA          0.2860   -3.3630   11.9230 C.3       6 GLP5        0.0000 
     18 CA         -0.7265   -0.0895   10.4095 C.3       3 GLC5        0.0000 
     19 CA         -2.1210   -0.6140    8.8260 C.3       6 GLP5        0.0000 
     20 CA          0.1660   -0.7590   13.6860 C.3       3 GLC5        0.0000 
     21 CA         -0.3360   -1.9530   15.3790 C.3       6 GLP5        0.0000 
     22 CA         -1.5400    3.5235   11.8890 C.3       3 GLC5        0.0000 
     23 CA         -0.1580    2.0560   12.1600 C.3       9 GLL5        0.0000 
     24 CA         -2.9220    4.9910   11.6180 C.3       6 GLP5        0.0000 
     25 O           4.7115    2.4060   14.1530 O.2       1 ALC1        0.0000 
     26 O           4.4960    0.9820   13.4920 O.2       7 ALL1        0.0000 
     27 O           4.9270    3.8300   14.8140 O.2       4 ALP1        0.0000 
     28 N           7.1165   -0.2730   17.3135 N.am      2 SEC2        0.0000 
     29 N           6.3240   -1.2340   17.0450 N.am      8 SEL2        0.0000 
     30 N           7.9090    0.6880   17.5820 N.am      5 SEP2        0.0000 
     31 CA          9.7760    1.0470    8.8900 C.3       3 GLC5        0.0000 
     32 CA          8.4650    1.3190   10.4460 C.3       9 GLL5        0.0000 
     33 N           6.4290    0.8110   17.0045 N.am      2 SEC2        0.0000 
     34 N           4.9490    0.9340   16.4270 N.am      8 SEL2        0.0000 
     35 O           4.2695    1.2850   17.4880 O.2       1 ALC1        0.0000 
     36 O           4.9490    0.9340   16.4270 O.2       7 ALL1        0.0000 
     37 O           3.5900    1.6360   18.5490 O.2       4 ALP1        0.0000 
     38 O           3.7090    0.4710   17.1105 O.2       1 ALC1        0.0000 
     39 O           2.4690    0.0080   17.7940 O.2       4 ALP1        0.0000 
     40 CA          8.1555    3.4365   14.0150 C.3       3 GLC5        0.0000 
     41 CA          7.4010    2.1660   12.4260 C.3       9 GLL5        0.0000 
     42 CA          8.9100    4.7070   15.6040 C.3       6 GLP5        0.0000 
     43 CA          9.8140    1.7765   11.1010 C.3       3 GLC5        0.0000 
     44 CA          8.4370    0.0660   10.9930 C.3       9 GLL5        0.0000 
     45 CA         11.1910    3.4870   11.2090 C.3       6 GLP5        0.0000 
     46 CA          1.7745   -3.9015   13.4480 C.3       3 GLC5        0.0000 
     47 CA          3.2630   -4.4400   14.9730 C.3       9 GLL5        0.0000 
     48 CA          2.1020   -6.0325   14.4975 C.3       3 GLC5        0.0000 
     49 CA          0.9410   -7.6250   14.0220 C.3       6 GLP5        0.0000 
     50 CA          1.6795   -4.9730   16.4425 C.3       3 GLC5        0.0000 
     51 CA          0.0960   -5.5060   17.9120 C.3       6 GLP5        0.0000 
     52 CA         11.5540   -3.6460   15.6345 C.3       3 GLC5        0.0000 
     53 CA          9.5560   -3.2490   15.5420 C.3       9 GLL5        0.0000 
     54 CA         13.5520   -4.0430   15.7270 C.3       6 GLP5        0.0000 
     55 CA         10.3020   -1.8145   14.9075 C.3       3 GLC5        0.0000 
     56 CA         11.0480   -0.3800   14.2730 C.3       6 GLP5        0.0000 
     57 CA          9.5305   -3.3640   13.5330 C.3       3 GLC5        0.0000 
     58 CA          9.5050   -3.4790   11.5240 C.3       6 GLP5        0.0000 
     59 CA         10.8715   -6.3560   14.3525 C.3       3 GLC5        0.0000 
     60 CA          9.0970   -5.5670   14.6780 C.3       9 GLL5        0.0000 
     61 CA         12.6460   -7.1450   14.0270 C.3       6 GLP5        0.0000 
     62 CA          7.2930   -6.1100   13.6385 C.3       3 GLC5        0.0000 
     63 CA          5.4890   -6.6530   12.5990 C.3       6 GLP5        0.0000 
     64 CA          9.3010   -4.5230   13.1010 C.3       3 GLC5        0.0000 
     65 CA         11.3735   -5.7360   18.4415 C.3       3 GLC5        0.0000 
     66 CA          9.8800   -5.1830   17.0210 C.3       9 GLL5        0.0000 
     67 CA         12.8670   -6.2890   19.8620 C.3       6 GLP5        0.0000 
     68 CA         11.7160   -4.6130   16.3740 C.3       3 GLC5        0.0000 
     69 CA          4.8407    0.6140    6.4298 C.3       3 GLC5        0.0000 
     70 CA          6.3030    2.0170    7.1160 C.3       9 GLL5        0.0000 
     71 CA          3.1060   -0.3710    6.2220 C.3       6 GLP5        0.0000 
     72 CA          6.0608    0.1490    7.7438 C.3       3 GLC5        0.0000 
     73 CA          5.5460   -1.3010    8.8500 C.3       6 GLP5        0.0000 
     74 CA         10.0605    3.1595    6.9958 C.3       3 GLC5        0.0000 
     75 CA          7.9910    3.5920    6.6130 C.3       9 GLL5        0.0000 
     76 CA         11.8110    2.1000    7.2770 C.3       6 GLP5        0.0000 
     77 CA          0.6975    2.0897   13.8337 C.3       3 GLC5        0.0000 
     78 CA          1.1400    2.9340   15.5910 C.3       6 GLP5        0.0000 
     79 CA         -1.4160    0.4968   12.2097 C.3       3 GLC5        0.0000 
     80 CA         -3.0870   -0.2520   12.3430 C.3       6 GLP5        0.0000 
     81 CA          9.0608    0.1985   13.9672 C.3       3 GLC5        0.0000 
     82 CA          6.7750    0.6540   14.3470 C.3       9 GLL5        0.0000 
     83 CA          9.4975    2.7459   11.4131 C.3       3 GLC5        0.0000 
     84 CA          7.9490    2.3680   11.1710 C.3       9 GLL5        0.0000 
     85 CA          9.6080   -0.2100   12.9460 C.3       3 GLC5        0.0000 
     86 CA          6.8605   -0.5139   10.1661 C.3       3 GLC5        0.0000 
     87 CA          7.8990   -0.1460   12.2450 C.3       9 GLL5        0.0000 
     88 CA          8.8365   -1.7595   11.5715 C.3       3 GLC5        0.0000 
     89 CA          1.5337   -2.7525   15.2387 C.3       3 GLC5        0.0000 
     90 CA          3.5440   -2.6640   15.2240 C.3       9 GLL5        0.0000 
     91 CA          4.6670   -5.6848   14.1073 C.3       3 GLC5        0.0000 
     92 CA          9.3406   -3.2612   17.8595 C.3       3 GLC5        0.0000 
     93 CA          9.0130   -4.6390   15.8920 C.3       9 GLL5        0.0000 
     94 CA          9.0990   -1.9590   19.3500 C.3       6 GLP5        0.0000 
@<TRIPOS>BOND
@<TRIPOS>SUBSTRUCTURE
     1 ALC1        9 GROUP        1 X    ALC  0     ROOT ALC X 1
     2 SEC2        6 GROUP        1 X    SEC  0     **** SEC X 2
     3 GLC5        1 GROUP        1 X    GLC  0     **** GLC X 6
     4 ALP1       11 GROUP        1 Y    ALP  0     ROOT ALP Y 8
     5 SEP2        8 GROUP        1 Y    SEP  0     **** SEP Y 9
     6 GLP5        3 GROUP        1 Y    GLP  0     **** GLP Y 13
     7 ALL1       10 GROUP        1 Z    ALL  0     ROOT ALL Z 15
     8 SEL2        7 GROUP        1 Z    SEL  0     **** SEL Z 16
     9 GLL5        2 GROUP        1 Z    GLL  0     **** GLL Z 20
@<TRIPOS>SET

