#    Name: 1hpx_KNI_1_ligand
#    Modification time : Tue Mar 25 05:41:13 2014

@<TRIPOS>MOLECULE
1hpx_KNI_1_ligand
   87    90     1     0     0
SMALL
NO_CHARGES


@<TRIPOS>ATOM
      1 C1          6.8480    1.1810    6.1590 C.ar      1 KNI900      0.0000 
      2 C2          6.3030    2.0170    7.1160 C.ar      1 KNI900      0.0000 
      3 C3          6.8860    3.2730    7.3630 C.ar      1 KNI900      0.0000 
      4 C4          7.9910    3.5920    6.6130 C.ar      1 KNI900      0.0000 
      5 C5          8.4680    2.6490    5.6450 C.ar      1 KNI900      0.0000 
      6 C6          6.3520    4.1700    8.3470 C.ar      1 KNI900      0.0000 
      7 C7          7.0000    5.3880    8.5210 C.ar      1 KNI900      0.0000 
      8 C8          8.1090    5.7150    7.7740 C.ar      1 KNI900      0.0000 
      9 C9          8.6290    4.8460    6.8160 C.ar      1 KNI900      0.0000 
     10 C10         5.1400    4.3750   10.3520 C.3       1 KNI900      0.0000 
     11 C11         4.0670    3.6830   11.1060 C.2       1 KNI900      0.0000 
     12 N1          7.9070    1.4590    5.4270 N.ar      1 KNI900      0.0000 
     13 O1          5.2350    3.7910    9.0820 O.3       1 KNI900      0.0000 
     14 O3          3.3270    4.2970   11.8520 O.2       1 KNI900      0.0000 
     15 N2          3.9550    2.3840   10.8930 N.am      1 KNI900      0.0000 
     16 C26         3.0280    1.6030   11.6960 C.3       1 KNI900      0.0000 
     17 C12         1.9440    1.0010   10.8350 C.3       1 KNI900      0.0000 
     18 S1          0.6680    0.4350   11.9930 S.3       1 KNI900      0.0000 
     19 C27        -0.1580    2.0560   12.1600 C.3       1 KNI900      0.0000 
     20 C13         3.7830    0.5420   12.4570 C.2       1 KNI900      0.0000 
     21 O6          3.7580   -0.6290   12.1110 O.2       1 KNI900      0.0000 
     22 C17         5.3390   -1.3860   16.3300 C.2       1 KNI900      0.0000 
     23 N3          4.4960    0.9820   13.4920 N.am      1 KNI900      0.0000 
     24 O4          6.3240   -1.2340   17.0450 O.2       1 KNI900      0.0000 
     25 C15         4.7050   -0.1800   15.6420 C.3       1 KNI900      0.0000 
     26 C28         7.3720    0.9000   12.9760 C.ar      1 KNI900      0.0000 
     27 C16         6.7750    0.6540   14.3470 C.3       1 KNI900      0.0000 
     28 C31         8.4650    1.3190   10.4460 C.ar      1 KNI900      0.0000 
     29 C14         5.3500    0.0820   14.2740 C.3       1 KNI900      0.0000 
     30 O2          4.9490    0.9340   16.4270 O.3       1 KNI900      0.0000 
     31 C29         7.4010    2.1660   12.4260 C.ar      1 KNI900      0.0000 
     32 C33         7.8990   -0.1460   12.2450 C.ar      1 KNI900      0.0000 
     33 C30         7.9490    2.3680   11.1710 C.ar      1 KNI900      0.0000 
     34 C32         8.4370    0.0660   10.9930 C.ar      1 KNI900      0.0000 
     35 N4          4.7420   -2.5650   16.0640 N.am      1 KNI900      0.0000 
     36 C20         3.5440   -2.6640   15.2240 C.3       1 KNI900      0.0000 
     37 C18         5.3730   -3.8190   16.5060 C.3       1 KNI900      0.0000 
     38 C19         4.4270   -4.9930   16.2580 C.3       1 KNI900      0.0000 
     39 S2          3.2630   -4.4400   14.9730 S.3       1 KNI900      0.0000 
     40 C21         6.6530   -3.9790   15.7410 C.2       1 KNI900      0.0000 
     41 O5          6.7460   -3.5740   14.5880 O.2       1 KNI900      0.0000 
     42 N5          7.6370   -4.5750   16.4030 N.am      1 KNI900      0.0000 
     43 C22         9.0130   -4.6390   15.8920 C.3       1 KNI900      0.0000 
     44 C23         9.5560   -3.2490   15.5420 C.3       1 KNI900      0.0000 
     45 C24         9.0970   -5.5670   14.6780 C.3       1 KNI900      0.0000 
     46 C25         9.8800   -5.1830   17.0210 C.3       1 KNI900      0.0000 
     47 H           6.3496    0.2364    6.0212 H         1 KNI900      0.0000 
     48 H           5.4750    1.7316    7.6507 H         1 KNI900      0.0000 
     49 H           9.3178    2.9528    5.0910 H         1 KNI900      0.0000 
     50 H           6.6370    6.0569    9.2267 H         1 KNI900      0.0000 
     51 H           8.5772    6.6338    7.9228 H         1 KNI900      0.0000 
     52 H           9.4457    5.0919    6.2683 H         1 KNI900      0.0000 
     53 H           6.0783    4.2833   10.9159 H         1 KNI900      0.0000 
     54 H           4.8926    5.4437   10.2936 H         1 KNI900      0.0000 
     55 H           4.4918    1.8737   10.1803 H         1 KNI900      0.0000 
     56 H           2.5477    2.2607   12.4316 H         1 KNI900      0.0000 
     57 H           2.2172    0.1134   10.3554 H         1 KNI900      0.0000 
     58 H           1.4221    1.6936   10.2517 H         1 KNI900      0.0000 
     59 H           4.4867    1.9739   13.7984 H         1 KNI900      0.0000 
     60 H           3.6672   -0.3644   15.4999 H         1 KNI900      0.0000 
     61 H           6.7470    1.5950   14.9088 H         1 KNI900      0.0000 
     62 H           7.4074   -0.0493   14.9013 H         1 KNI900      0.0000 
     63 H           8.8621    1.4774    9.5137 H         1 KNI900      0.0000 
     64 H           5.4089   -0.8830   13.7463 H         1 KNI900      0.0000 
     65 H           7.0131    2.9658   12.9512 H         1 KNI900      0.0000 
     66 H           7.8898   -1.1043   12.6436 H         1 KNI900      0.0000 
     67 H           7.9691    3.3277   10.7740 H         1 KNI900      0.0000 
     68 H           8.8246   -0.7398   10.4628 H         1 KNI900      0.0000 
     69 H           3.6574   -2.3267   14.2325 H         1 KNI900      0.0000 
     70 H           2.6429   -2.3714   15.6846 H         1 KNI900      0.0000 
     71 H           5.5928   -3.7640   17.5564 H         1 KNI900      0.0000 
     72 H           3.7913   -5.2029   17.0601 H         1 KNI900      0.0000 
     73 H           4.8828   -5.8176   15.8068 H         1 KNI900      0.0000 
     74 H           7.4872   -5.0353   17.3312 H         1 KNI900      0.0000 
     75 H           0.4952    2.7871   12.3571 H         1 KNI900      0.0000 
     76 H          -0.6429    2.3136   11.3242 H         1 KNI900      0.0000 
     77 H          -0.8300    2.0559   12.9006 H         1 KNI900      0.0000 
     78 H          10.4941   -3.2924   15.1985 H         1 KNI900      0.0000 
     79 H           9.0059   -2.8022   14.8364 H         1 KNI900      0.0000 
     80 H           9.5626   -2.6420   16.3366 H         1 KNI900      0.0000 
     81 H          10.0276   -5.6219   14.3162 H         1 KNI900      0.0000 
     82 H           8.8145   -6.4995   14.9031 H         1 KNI900      0.0000 
     83 H           8.5100   -5.2552   13.9309 H         1 KNI900      0.0000 
     84 H          10.8395   -5.2577   16.7494 H         1 KNI900      0.0000 
     85 H           9.8491   -4.5951   17.8293 H         1 KNI900      0.0000 
     86 H           9.5853   -6.0939   17.3097 H         1 KNI900      0.0000 
     87 H           4.2598    0.8965   17.1506 H         1 KNI900      0.0000 
@<TRIPOS>BOND
     1    2    1 ar   
     2   12    1 ar   
     3   47    1 1    
     4    3    2 ar   
     5   48    2 1    
     6    4    3 ar   
     7    6    3 ar   
     8    5    4 ar   
     9    9    4 ar   
    10   12    5 ar   
    11   49    5 1    
    12    7    6 ar   
    13   13    6 1    
    14    8    7 ar   
    15   50    7 1    
    16    9    8 ar   
    17   51    8 1    
    18   52    9 1    
    19   11   10 1    
    20   13   10 1    
    21   53   10 1    
    22   54   10 1    
    23   14   11 2    
    24   15   11 am   
    25   16   15 1    
    26   55   15 1    
    27   17   16 1    
    28   20   16 1    
    29   56   16 1    
    30   18   17 1    
    31   57   17 1    
    32   58   17 1    
    33   19   18 1    
    34   75   19 1    
    35   76   19 1    
    36   77   19 1    
    37   21   20 2    
    38   23   20 am   
    39   24   22 2    
    40   25   22 1    
    41   35   22 am   
    42   29   23 1    
    43   59   23 1    
    44   29   25 1    
    45   30   25 1    
    46   60   25 1    
    47   27   26 1    
    48   31   26 ar   
    49   32   26 ar   
    50   29   27 1    
    51   61   27 1    
    52   62   27 1    
    53   33   28 ar   
    54   34   28 ar   
    55   63   28 1    
    56   64   29 1    
    57   87   30 1    
    58   33   31 ar   
    59   65   31 1    
    60   34   32 ar   
    61   66   32 1    
    62   67   33 1    
    63   68   34 1    
    64   36   35 1    
    65   37   35 1    
    66   39   36 1    
    67   69   36 1    
    68   70   36 1    
    69   38   37 1    
    70   40   37 1    
    71   71   37 1    
    72   39   38 1    
    73   72   38 1    
    74   73   38 1    
    75   41   40 2    
    76   42   40 am   
    77   43   42 1    
    78   74   42 1    
    79   44   43 1    
    80   45   43 1    
    81   46   43 1    
    82   78   44 1    
    83   79   44 1    
    84   80   44 1    
    85   81   45 1    
    86   82   45 1    
    87   83   45 1    
    88   84   46 1    
    89   85   46 1    
    90   86   46 1    
@<TRIPOS>SUBSTRUCTURE
     1 KNI900      1 GROUP   
@<TRIPOS>SET

