#    Name: 2zmj_MI4_1_INTS_M
#    Modification time : Tue Mar 25 10:51:22 2014

@<TRIPOS>MOLECULE
2zmj_MI4_1_INTS_M
  132     0     9     0     0
SMALL
NO_CHARGES


@<TRIPOS>ATOM
      1 CA         17.4870    5.6280   25.2540 C.3       3 GLC5        0.0000 
      2 CA         15.9100    6.6840   25.7460 C.3       9 GLL5        0.0000 
      3 CA         19.0640    4.5720   24.7620 C.3       6 GLP5        0.0000 
      4 CA         16.4170    3.7120   27.1025 C.3       3 GLC5        0.0000 
      5 CA         14.5850    4.5710   27.3720 C.3       9 GLL5        0.0000 
      6 CA         18.2490    2.8530   26.8330 C.3       6 GLP5        0.0000 
      7 CA         13.4140    3.9805   29.0740 C.3       3 GLC5        0.0000 
      8 CA         12.2430    3.3900   30.7760 C.3       6 GLP5        0.0000 
      9 CA         15.0695    3.7335   29.2675 C.3       3 GLC5        0.0000 
     10 CA         15.5540    2.8960   31.1630 C.3       6 GLP5        0.0000 
     11 CA         13.9170    2.7395   27.6265 C.3       3 GLC5        0.0000 
     12 CA         13.2490    0.9080   27.8810 C.3       6 GLP5        0.0000 
     13 CA         10.2205    3.2990   29.8715 C.3       3 GLC5        0.0000 
     14 CA          8.1980    3.2080   28.9670 C.3       9 GLL5        0.0000 
     15 CA         15.6630    7.0770   23.0350 C.3       3 GLC5        0.0000 
     16 CA         16.2300    7.9030   24.8920 C.3       9 GLL5        0.0000 
     17 CA         15.0960    6.2510   21.1780 C.3       6 GLP5        0.0000 
     18 CA         17.8810    6.9750   23.7980 C.3       3 GLC5        0.0000 
     19 CA         19.5320    6.0470   22.7040 C.3       6 GLP5        0.0000 
     20 CA         17.3200    9.0010   23.4135 C.3       3 GLC5        0.0000 
     21 CA         18.4100   10.0990   21.9350 C.3       6 GLP5        0.0000 
     22 CA         16.8615   11.0830   25.3450 C.3       3 GLC5        0.0000 
     23 CA         15.1170   10.2730   24.8220 C.3       9 GLL5        0.0000 
     24 CA         18.6060   11.8930   25.8680 C.3       6 GLP5        0.0000 
     25 CA         11.6795    6.9740   24.3395 C.3       3 GLC5        0.0000 
     26 CA         13.1350    8.0280   25.0220 C.3       9 GLL5        0.0000 
     27 CA         10.2240    5.9200   23.6570 C.3       6 GLP5        0.0000 
     28 CA         11.2650   11.4080   26.4945 C.3       3 GLC5        0.0000 
     29 CA         13.4150   10.8460   26.5480 C.3       9 GLL5        0.0000 
     30 CA          9.1150   11.9700   26.4410 C.3       6 GLP5        0.0000 
     31 CA          6.6135    0.0890   27.2175 C.3       3 GLC5        0.0000 
     32 CA          6.6320    2.0500   27.3380 C.3       9 GLL5        0.0000 
     33 CA          6.5950   -1.8720   27.0970 C.3       6 GLP5        0.0000 
     34 CA         13.3505    7.7500   29.8560 C.3       3 GLC5        0.0000 
     35 CA         13.0450    6.1830   28.3430 C.3       9 GLL5        0.0000 
     36 CA         13.6560    9.3170   31.3690 C.3       6 GLP5        0.0000 
     37 CA         10.0380    8.7220   29.0240 C.3       3 GLC5        0.0000 
     38 CA         10.8720    6.7730   29.4530 C.3       9 GLL5        0.0000 
     39 CA          9.2040   10.6710   28.5950 C.3       6 GLP5        0.0000 
     40 CA         12.2640    8.0450   30.4110 C.3       3 GLC5        0.0000 
     41 CA          6.5840    5.5980   29.0105 C.3       3 GLC5        0.0000 
     42 CA          8.7540    5.7180   28.6480 C.3       9 GLL5        0.0000 
     43 CA          4.4140    5.4780   29.3730 C.3       6 GLP5        0.0000 
     44 CA         16.4565   13.2885   17.6085 C.3       3 GLC5        0.0000 
     45 CA         15.1310   13.1380   19.2870 C.3       9 GLL5        0.0000 
     46 CA         17.7820   13.4390   15.9300 C.3       6 GLP5        0.0000 
     47 CA         16.5580   14.5180   19.8515 C.3       3 GLC5        0.0000 
     48 CA         17.9850   15.8980   20.4160 C.3       6 GLP5        0.0000 
     49 CA         16.1955   12.1690   25.9600 C.3       3 GLC5        0.0000 
     50 CA         14.6340   11.3530   25.7580 C.3       9 GLL5        0.0000 
     51 CA         17.7570   12.9850   26.1620 C.3       6 GLP5        0.0000 
     52 CA          9.0570    3.3800   23.7900 C.3       3 GLC5        0.0000 
     53 CA          8.0540    2.8600   25.3780 C.3       9 GLL5        0.0000 
     54 CA         10.0600    3.9000   22.2020 C.3       6 GLP5        0.0000 
     55 CA         11.1830    1.2175   27.5810 C.3       3 GLC5        0.0000 
     56 CA          9.1170    1.5270   27.2810 C.3       9 GLL5        0.0000 
     57 CA         15.1510    8.3360   20.8245 C.3       3 GLC5        0.0000 
     58 CA         15.2060   10.4210   20.4710 C.3       9 GLL5        0.0000 
     59 CA         16.5715    9.2960   18.1900 C.3       3 GLC5        0.0000 
     60 CA         15.1970   10.5980   18.9360 C.3       9 GLL5        0.0000 
     61 CA         17.9460    7.9940   17.4440 C.3       6 GLP5        0.0000 
     62 CA         17.1045   10.6480   19.8045 C.3       3 GLC5        0.0000 
     63 CA         19.0120   10.6980   20.6730 C.3       6 GLP5        0.0000 
     64 CA         12.5440   12.0515   20.5615 C.3       3 GLC5        0.0000 
     65 CA         14.5010   12.9990   20.6700 C.3       9 GLL5        0.0000 
     66 CA         10.5870   11.1040   20.4530 C.3       6 GLP5        0.0000 
     67 O           7.8910    5.9715   31.5815 O.2       1 ALC1        0.0000 
     68 O           9.3200    5.7990   30.9800 O.2       7 ALL1        0.0000 
     69 O           6.4620    6.1440   32.1830 O.2       4 ALP1        0.0000 
     70 N          13.2455    8.9615   18.5105 N.am      2 SEC2        0.0000 
     71 N          14.3680    9.5790   18.4080 N.am      8 SEL2        0.0000 
     72 N          12.1230    8.3440   18.6130 N.am      5 SEP2        0.0000 
     73 N          14.7250    9.2595   16.8500 N.am      2 SEC2        0.0000 
     74 N          15.0820    8.9400   15.2920 N.am      5 SEP2        0.0000 
     75 N          17.1985   13.5585   18.3230 N.am      2 SEC2        0.0000 
     76 N          16.5400   13.2010   19.4280 N.am      8 SEL2        0.0000 
     77 N          17.8570   13.9160   17.2180 N.am      5 SEP2        0.0000 
     78 O          17.1180   14.0775   20.4295 O.2       1 ALC1        0.0000 
     79 O          16.5400   13.2010   19.4280 O.2       7 ALL1        0.0000 
     80 O          17.6960   14.9540   21.4310 O.2       4 ALP1        0.0000 
     81 CA         14.1610    3.8940   25.6810 C.3       3 GLC5        0.0000 
     82 CA         13.8490    5.8930   27.1080 C.3       9 GLL5        0.0000 
     83 CA         14.1050    2.5560   24.1220 C.3       6 GLP5        0.0000 
     84 CA          7.7203    2.2408   30.6220 C.3       3 GLC5        0.0000 
     85 CA          7.3860    1.9440   32.6560 C.3       6 GLP5        0.0000 
     86 CA         17.3905    9.6890   26.0295 C.3       3 GLC5        0.0000 
     87 CA         15.4780    9.0070   25.6000 C.3       9 GLL5        0.0000 
     88 CA         18.9270   10.9230   26.8130 C.3       6 GLP5        0.0000 
     89 CA         12.8143   13.2395   18.3875 C.3       3 GLC5        0.0000 
     90 CA         14.0450   12.1420   17.3200 C.3       9 GLL5        0.0000 
     91 CA         11.2310   14.4270   18.8900 C.3       6 GLP5        0.0000 
     92 CA          9.8558    4.6285   25.1382 C.3       3 GLC5        0.0000 
     93 CA          9.6320    4.0020   26.9970 C.3       9 GLL5        0.0000 
     94 CA          8.1335   -0.0155   27.7995 C.3       3 GLC5        0.0000 
     95 CA          7.7530   -1.7280   27.8540 C.3       6 GLP5        0.0000 
     96 CA          6.0745    4.8234   28.5674 C.3       3 GLC5        0.0000 
     97 CA          7.1530    4.5420   27.0680 C.3       9 GLL5        0.0000 
     98 CA          6.2130    5.2075   25.6277 C.3       3 GLC5        0.0000 
     99 CA          5.4280    6.5380   24.5710 C.3       6 GLP5        0.0000 
    100 CA         16.7812   10.2153   23.0377 C.3       3 GLC5        0.0000 
    101 CA         16.7155   12.0695   23.5512 C.3       3 GLC5        0.0000 
    102 CA         15.1880   10.3900   23.4590 C.3       9 GLL5        0.0000 
    103 CA         18.4140   13.1400   24.0260 C.3       6 GLP5        0.0000 
    104 CA          5.0395    2.7658   27.0316 C.3       3 GLC5        0.0000 
    105 CA          3.2640    2.5680   27.0520 C.3       6 GLP5        0.0000 
    106 CA         12.3175    4.8598   29.5410 C.3       3 GLC5        0.0000 
    107 CA         11.7390    6.4760   28.2690 C.3       9 GLL5        0.0000 
    108 CA         11.3090    4.8010   30.1740 C.3       3 GLC5        0.0000 
    109 CA          9.8780    5.6510   29.6910 C.3       9 GLL5        0.0000 
    110 CA          8.6962    7.2780   30.0950 C.3       3 GLC5        0.0000 
    111 CA          7.8280    8.5910   31.0800 C.3       6 GLP5        0.0000 
    112 CA         16.6975    7.5363   27.4896 C.3       3 GLC5        0.0000 
    113 CA         14.8080    7.0790   26.7590 C.3       9 GLL5        0.0000 
    114 CA         18.1040    7.4580   28.8700 C.3       6 GLP5        0.0000 
    115 CA         15.0566   14.2900   17.8565 C.3       3 GLC5        0.0000 
    116 CA         15.3490   15.9850   17.1270 C.3       6 GLP5        0.0000 
    117 CA         13.0235   13.7477   19.4342 C.3       3 GLC5        0.0000 
    118 CA         14.5775   14.7268   20.4597 C.3       3 GLC5        0.0000 
    119 CA         14.3390   16.3850   20.9410 C.3       6 GLP5        0.0000 
    120 CA         14.0017   11.1195   28.2501 C.3       3 GLC5        0.0000 
    121 CA         13.9400   11.4990   30.1960 C.3       6 GLP5        0.0000 
    122 CA         12.8388   11.7695   22.4170 C.3       3 GLC5        0.0000 
    123 CA         14.8460   11.6080   22.6940 C.3       9 GLL5        0.0000 
    124 CA         10.8230   11.9020   22.8160 C.3       6 GLP5        0.0000 
    125 CA          6.6589    1.7012   24.7364 C.3       3 GLC5        0.0000 
    126 CA          5.9220    0.6570   23.3740 C.3       6 GLP5        0.0000 
    127 CA          9.2784    1.3268   24.9217 C.3       3 GLC5        0.0000 
    128 CA          9.3430    2.6720   26.2420 C.3       9 GLL5        0.0000 
    129 CA          9.6490    0.5070   23.2980 C.3       6 GLP5        0.0000 
    130 CA         16.7201   10.5640   21.5898 C.3       3 GLC5        0.0000 
    131 CA         16.1066   11.7235   17.0597 C.3       3 GLC5        0.0000 
    132 CA         17.4160   12.1220   15.7090 C.3       6 GLP5        0.0000 
@<TRIPOS>BOND
@<TRIPOS>SUBSTRUCTURE
     1 ALC1       67 GROUP        1 X    ALC  0     ROOT ALC X 1
     2 SEC2       70 GROUP        1 X    SEC  0     **** SEC X 2
     3 GLC5        1 GROUP        1 X    GLC  0     **** GLC X 6
     4 ALP1       69 GROUP        1 Y    ALP  0     ROOT ALP Y 8
     5 SEP2       72 GROUP        1 Y    SEP  0     **** SEP Y 9
     6 GLP5        3 GROUP        1 Y    GLP  0     **** GLP Y 13
     7 ALL1       68 GROUP        1 Z    ALL  0     ROOT ALL Z 15
     8 SEL2       71 GROUP        1 Z    SEL  0     **** SEL Z 16
     9 GLL5        2 GROUP        1 Z    GLL  0     **** GLL Z 20
@<TRIPOS>SET

