#    Name: 2zmj_MI4_1_ligand
#    Modification time : Tue Mar 25 10:51:22 2014

@<TRIPOS>MOLECULE
2zmj_MI4_1_ligand
   91    96     1     0     0
SMALL
NO_CHARGES


@<TRIPOS>ATOM
      1 C16        15.9100    6.6840   25.7460 C.3       1 MI41        0.0000 
      2 C21        14.5850    4.5710   27.3720 C.3       1 MI41        0.0000 
      3 C34         8.1980    3.2080   28.9670 C.3       1 MI41        0.0000 
      4 C15        16.2300    7.9030   24.8920 C.3       1 MI41        0.0000 
      5 C13        14.1760    8.3690   26.1370 C.3       1 MI41        0.0000 
      6 C28        14.0450   12.1420   17.3200 C.2       1 MI41        0.0000 
      7 C37         9.6320    4.0020   26.9970 C.3       1 MI41        0.0000 
      8 C14        15.4780    9.0070   25.6000 C.3       1 MI41        0.0000 
      9 C33         7.9110    1.8670   28.2090 C.3       1 MI41        0.0000 
     10 C35         9.3430    2.6720   26.2420 C.3       1 MI41        0.0000 
     11 C30         7.1530    4.5420   27.0680 C.3       1 MI41        0.0000 
     12 C8         15.1170   10.2730   24.8220 C.2       1 MI41        0.0000 
     13 C12        13.5710    9.4080   27.1530 C.3       1 MI41        0.0000 
     14 C18        13.1350    8.0280   25.0220 C.3       1 MI41        0.0000 
     15 C31         6.8430    3.2120   26.3010 C.3       1 MI41        0.0000 
     16 C11        13.4150   10.8460   26.5480 C.3       1 MI41        0.0000 
     17 C7         15.1880   10.3900   23.4590 C.2       1 MI41        0.0000 
     18 C32         6.6320    2.0500   27.3380 C.3       1 MI41        0.0000 
     19 C23        11.7390    6.4760   28.2690 C.2       1 MI41        0.0000 
     20 C22        13.0450    6.1830   28.3430 C.2       1 MI41        0.0000 
     21 C24        10.8720    6.7730   29.4530 C.3       1 MI41        0.0000 
     22 C25         9.8780    5.6510   29.6910 C.3       1 MI41        0.0000 
     23 C20        13.8490    5.8930   27.1080 C.3       1 MI41        0.0000 
     24 C26         8.7540    5.7180   28.6480 C.3       1 MI41        0.0000 
     25 C17        14.8080    7.0790   26.7590 C.3       1 MI41        0.0000 
     26 C29         8.4360    4.3830   27.9440 C.3       1 MI41        0.0000 
     27 C3         15.1310   13.1380   19.2870 C.3       1 MI41        0.0000 
     28 C9         14.6340   11.3530   25.7580 C.3       1 MI41        0.0000 
     29 C6         14.8460   11.6080   22.6940 C.2       1 MI41        0.0000 
     30 C36         8.0540    2.8600   25.3780 C.3       1 MI41        0.0000 
     31 C38         9.1170    1.5270   27.2810 C.3       1 MI41        0.0000 
     32 C5         14.8630   11.6660   21.3420 C.2       1 MI41        0.0000 
     33 C10        15.2060   10.4210   20.4710 C.3       1 MI41        0.0000 
     34 C1         15.1970   10.5980   18.9360 C.3       1 MI41        0.0000 
     35 C4         14.5010   12.9990   20.6700 C.3       1 MI41        0.0000 
     36 C2         14.7500   11.9620   18.4500 C.2       1 MI41        0.0000 
     37 O3          9.3200    5.7990   30.9800 O.3       1 MI41        0.0000 
     38 O1         14.3680    9.5790   18.4080 O.3       1 MI41        0.0000 
     39 O2         16.5400   13.2010   19.4280 O.3       1 MI41        0.0000 
     40 H          16.7870    6.3744   26.2875 H         1 MI41        0.0000 
     41 H          15.5426    5.8861   25.1242 H         1 MI41        0.0000 
     42 H           9.0833    3.0897   29.5710 H         1 MI41        0.0000 
     43 H           7.3490    3.4530   29.5848 H         1 MI41        0.0000 
     44 H          15.8457    7.7669   23.9157 H         1 MI41        0.0000 
     45 H          17.2702    8.0948   24.9174 H         1 MI41        0.0000 
     46 H           9.7706    4.7978   26.2780 H         1 MI41        0.0000 
     47 H          10.5242    3.8853   27.5969 H         1 MI41        0.0000 
     48 H          16.0445    9.2954   26.5009 H         1 MI41        0.0000 
     49 H           7.7621    1.0946   28.9025 H         1 MI41        0.0000 
     50 H          10.1545    2.4339   25.6187 H         1 MI41        0.0000 
     51 H           6.3163    4.7803   27.7073 H         1 MI41        0.0000 
     52 H           7.3120    5.3315   26.3490 H         1 MI41        0.0000 
     53 H          14.2239    9.4621   28.0240 H         1 MI41        0.0000 
     54 H          12.5911    9.0523   27.4709 H         1 MI41        0.0000 
     55 H           5.9762    3.3294   25.7219 H         1 MI41        0.0000 
     56 H          13.2035   11.5428   27.3742 H         1 MI41        0.0000 
     57 H          12.5317   10.8455   25.8902 H         1 MI41        0.0000 
     58 H          15.5058    9.5734   22.8728 H         1 MI41        0.0000 
     59 H           5.7999    2.3015   27.9756 H         1 MI41        0.0000 
     60 H           6.4340    1.1371   26.7999 H         1 MI41        0.0000 
     61 H          11.2321    6.5155   27.3477 H         1 MI41        0.0000 
     62 H          13.5693    6.1386   29.2277 H         1 MI41        0.0000 
     63 H          10.3242    7.7048   29.2872 H         1 MI41        0.0000 
     64 H          11.4920    6.8947   30.3455 H         1 MI41        0.0000 
     65 H          10.3842    4.7129   29.5785 H         1 MI41        0.0000 
     66 H          13.1699    5.7415   26.2808 H         1 MI41        0.0000 
     67 H           9.0235    6.4652   27.8800 H         1 MI41        0.0000 
     68 H           7.8341    6.0855   29.1374 H         1 MI41        0.0000 
     69 H          15.3376    7.3961   27.6684 H         1 MI41        0.0000 
     70 H          14.7388   14.0342   18.8358 H         1 MI41        0.0000 
     71 H          14.3433   12.2318   25.1923 H         1 MI41        0.0000 
     72 H          15.4197   11.6162   26.4582 H         1 MI41        0.0000 
     73 H          14.5850   12.4382   23.2728 H         1 MI41        0.0000 
     74 H           7.8434    1.9418   24.8561 H         1 MI41        0.0000 
     75 H           8.2118    3.6663   24.6818 H         1 MI41        0.0000 
     76 H           8.9082    0.6094   26.7522 H         1 MI41        0.0000 
     77 H          10.0065    1.4187   27.8829 H         1 MI41        0.0000 
     78 H          14.4950    9.6064   20.7378 H         1 MI41        0.0000 
     79 H          16.2100   10.0501   20.7789 H         1 MI41        0.0000 
     80 H          16.2328   10.4326   18.5977 H         1 MI41        0.0000 
     81 H          13.4128   13.0662   20.5799 H         1 MI41        0.0000 
     82 H          14.8419   13.8208   21.3067 H         1 MI41        0.0000 
     83 H          15.1537    4.3009   26.5950 H         1 MI41        0.0000 
     84 H          15.1870    4.6336   28.1681 H         1 MI41        0.0000 
     85 H          13.9483    3.8194   27.5444 H         1 MI41        0.0000 
     86 H          13.5054    7.3842   24.3524 H         1 MI41        0.0000 
     87 H          12.3076    7.6134   25.4007 H         1 MI41        0.0000 
     88 H          12.8500    8.8434   24.5181 H         1 MI41        0.0000 
     89 H           8.3360    5.8905   30.8270 H         1 MI41        0.0000 
     90 H          14.7751    8.7232   18.7268 H         1 MI41        0.0000 
     91 H          16.6970   13.8563   20.1669 H         1 MI41        0.0000 
@<TRIPOS>BOND
     1    4    1 1    
     2   25    1 1    
     3   40    1 1    
     4   41    1 1    
     5   23    2 1    
     6   83    2 1    
     7   84    2 1    
     8   85    2 1    
     9    9    3 1    
    10   26    3 1    
    11   42    3 1    
    12   43    3 1    
    13    8    4 1    
    14   44    4 1    
    15   45    4 1    
    16    8    5 1    
    17   13    5 1    
    18   14    5 1    
    19   25    5 1    
    20   36    6 2    
    21   10    7 1    
    22   26    7 1    
    23   46    7 1    
    24   47    7 1    
    25   12    8 1    
    26   48    8 1    
    27   18    9 1    
    28   31    9 1    
    29   49    9 1    
    30   30   10 1    
    31   31   10 1    
    32   50   10 1    
    33   15   11 1    
    34   26   11 1    
    35   51   11 1    
    36   52   11 1    
    37   17   12 2    
    38   28   12 1    
    39   16   13 1    
    40   53   13 1    
    41   54   13 1    
    42   86   14 1    
    43   87   14 1    
    44   88   14 1    
    45   18   15 1    
    46   30   15 1    
    47   55   15 1    
    48   28   16 1    
    49   56   16 1    
    50   57   16 1    
    51   29   17 1    
    52   58   17 1    
    53   59   18 1    
    54   60   18 1    
    55   20   19 2    
    56   21   19 1    
    57   61   19 1    
    58   23   20 1    
    59   62   20 1    
    60   22   21 1    
    61   63   21 1    
    62   64   21 1    
    63   24   22 1    
    64   37   22 1    
    65   65   22 1    
    66   25   23 1    
    67   66   23 1    
    68   26   24 1    
    69   67   24 1    
    70   68   24 1    
    71   69   25 1    
    72   35   27 1    
    73   36   27 1    
    74   39   27 1    
    75   70   27 1    
    76   71   28 1    
    77   72   28 1    
    78   32   29 2    
    79   73   29 1    
    80   74   30 1    
    81   75   30 1    
    82   76   31 1    
    83   77   31 1    
    84   33   32 1    
    85   35   32 1    
    86   34   33 1    
    87   78   33 1    
    88   79   33 1    
    89   36   34 1    
    90   38   34 1    
    91   80   34 1    
    92   81   35 1    
    93   82   35 1    
    94   89   37 1    
    95   90   38 1    
    96   91   39 1    
@<TRIPOS>SUBSTRUCTURE
     1 MI41        1 GROUP   
@<TRIPOS>SET

