#    Name: 1p45_TCL_2_INTS_M
#    Modification time : Mon Mar 24 21:07:05 2014

@<TRIPOS>MOLECULE
1p45_TCL_2_INTS_M
   51     0     3     0     0
SMALL
NO_CHARGES


@<TRIPOS>ATOM
      1 CA          4.4650   11.4035   41.6195 C.3       1 GLC5        0.0000 
      2 CA          5.6360   13.2310   41.5420 C.3       3 GLL5        0.0000 
      3 CA          3.2940    9.5760   41.6970 C.3       2 GLP5        0.0000 
      4 CA          5.7800   13.1145   43.3515 C.3       1 GLC5        0.0000 
      5 CA          5.9240   12.9980   45.1610 C.3       2 GLP5        0.0000 
      6 CA          5.9485   10.7065   41.4670 C.3       1 GLC5        0.0000 
      7 CA          6.8940   12.6480   41.4660 C.3       3 GLL5        0.0000 
      8 CA          5.0030    8.7650   41.4680 C.3       2 GLP5        0.0000 
      9 CA          7.0865   11.2755   43.2120 C.3       1 GLC5        0.0000 
     10 CA          7.2790    9.9030   44.9580 C.3       2 GLP5        0.0000 
     11 CA          8.1795   14.5710   37.7690 C.3       1 GLC5        0.0000 
     12 CA          7.1920   13.4700   39.2030 C.3       3 GLL5        0.0000 
     13 CA          9.1670   15.6720   36.3350 C.3       2 GLP5        0.0000 
     14 CA          9.9205    8.3485   42.5030 C.3       1 GLC5        0.0000 
     15 CA         10.6420    8.9830   40.4980 C.3       3 GLL5        0.0000 
     16 CA          9.1990    7.7140   44.5080 C.3       2 GLP5        0.0000 
     17 CA          3.2875   14.8745   38.5220 C.3       1 GLC5        0.0000 
     18 CA          3.5720   14.7010   40.4790 C.3       3 GLL5        0.0000 
     19 CA          3.0030   15.0480   36.5650 C.3       2 GLP5        0.0000 
     20 CA          1.8190   13.9505   40.0720 C.3       1 GLC5        0.0000 
     21 CA          0.0660   13.2000   39.6650 C.3       2 GLP5        0.0000 
     22 CA          4.6920   15.9995   40.9275 C.3       1 GLC5        0.0000 
     23 CA          5.8120   17.2980   41.3760 C.3       2 GLP5        0.0000 
     24 CA          2.3960   15.2575   42.0935 C.3       1 GLC5        0.0000 
     25 CA          1.2200   15.8140   43.7080 C.3       2 GLP5        0.0000 
     26 CA          2.3115   16.0645   39.6740 C.3       1 GLC5        0.0000 
     27 CA          1.0510   17.4280   38.8690 C.3       2 GLP5        0.0000 
     28 CA          9.0635    5.0150   40.6430 C.3       1 GLC5        0.0000 
     29 CA         10.1870    6.5600   39.7770 C.3       3 GLL5        0.0000 
     30 CA          7.9400    3.4700   41.5090 C.3       2 GLP5        0.0000 
     31 CA         12.8350   11.4920   39.9690 C.3       1 GLC5        0.0000 
     32 CA         11.3970   11.4540   41.4080 C.3       3 GLL5        0.0000 
     33 CA         14.2730   11.5300   38.5300 C.3       2 GLP5        0.0000 
     34 CA         12.7545   12.6100   41.8510 C.3       1 GLC5        0.0000 
     35 CA         14.1120   13.7660   42.2940 C.3       2 GLP5        0.0000 
     36 CA         11.8935   10.4630   43.1415 C.3       1 GLC5        0.0000 
     37 CA         12.3900    9.4720   44.8750 C.3       2 GLP5        0.0000 
     38 CA          7.7615   13.4078   42.6993 C.3       1 GLC5        0.0000 
     39 CA          8.2410   14.1020   44.5140 C.3       2 GLP5        0.0000 
     40 CA          8.7760   14.4572   40.5965 C.3       1 GLC5        0.0000 
     41 CA          7.6700   12.7790   40.3030 C.3       3 GLL5        0.0000 
     42 CA         10.1210   15.7900   41.4400 C.3       2 GLP5        0.0000 
     43 CA          5.7404   15.5697   40.7466 C.3       1 GLC5        0.0000 
     44 CA          5.9400   14.0880   39.2470 C.3       3 GLL5        0.0000 
     45 CA         10.7022    9.7735   38.7302 C.3       1 GLC5        0.0000 
     46 CA         11.2390   10.9800   37.2650 C.3       2 GLP5        0.0000 
     47 CA         10.4512   10.7737   38.8315 C.3       1 GLC5        0.0000 
     48 CA         10.2980   10.3250   40.6360 C.3       3 GLL5        0.0000 
     49 CA          9.7455   10.1245   38.3753 C.3       1 GLC5        0.0000 
     50 CA          8.0880    9.9630   39.5520 C.3       3 GLL5        0.0000 
     51 CA          6.6275    9.0170   40.4768 C.3       1 GLC5        0.0000 
@<TRIPOS>BOND
@<TRIPOS>SUBSTRUCTURE
     1 GLC5        1 GROUP        1 X    GLC  0     ROOT GLC X 6
     2 GLP5        3 GROUP        1 Y    GLP  0     ROOT GLP Y 13
     3 GLL5        2 GROUP        1 Z    GLL  0     ROOT GLL Z 20
@<TRIPOS>SET

