#    Name: 1p45_TCL_2_ligand
#    Modification time : Mon Mar 24 21:07:05 2014

@<TRIPOS>MOLECULE
1p45_TCL_2_ligand
   24    25     1     0     0
SMALL
NO_CHARGES


@<TRIPOS>ATOM
      1 C1          5.6360   13.2310   41.5420 C.ar      1 TCL450      0.0000 
      2 C2          5.1590   13.9590   40.4330 C.ar      1 TCL450      0.0000 
      3 C6          6.8940   12.6480   41.4660 C.ar      1 TCL450      0.0000 
      4 C5          7.6700   12.7790   40.3030 C.ar      1 TCL450      0.0000 
      5 C4          7.1920   13.4700   39.2030 C.ar      1 TCL450      0.0000 
      6 C3          5.9400   14.0880   39.2470 C.ar      1 TCL450      0.0000 
      7 C11         9.6890    8.1510   39.8930 C.ar      1 TCL450      0.0000 
      8 C10        10.6420    8.9830   40.4980 C.ar      1 TCL450      0.0000 
      9 C9         10.2980   10.3250   40.6360 C.ar      1 TCL450      0.0000 
     10 C8          9.0290   10.8100   40.1600 C.ar      1 TCL450      0.0000 
     11 C12         8.4160    8.5750   39.4190 C.ar      1 TCL450      0.0000 
     12 C13         8.0880    9.9630   39.5520 C.ar      1 TCL450      0.0000 
     13 O7          8.8800   12.1730   40.3800 O.3       1 TCL450      0.0000 
     14 CL14        3.5720   14.7010   40.4790 Cl        1 TCL450      0.0000 
     15 CL15       10.1870    6.5600   39.7770 Cl        1 TCL450      0.0000 
     16 CL16       11.3970   11.4540   41.4080 Cl        1 TCL450      0.0000 
     17 O17         7.4730   11.9830   42.4430 O.3       1 TCL450      0.0000 
     18 H           5.0629   13.1402   42.3764 H         1 TCL450      0.0000 
     19 H           7.7586   13.5321   38.3442 H         1 TCL450      0.0000 
     20 H           5.5839   14.6174   38.4631 H         1 TCL450      0.0000 
     21 H          11.5234    8.6256   40.8130 H         1 TCL450      0.0000 
     22 H           7.7720    7.9321   39.0081 H         1 TCL450      0.0000 
     23 H           7.2056   10.3085   39.2154 H         1 TCL450      0.0000 
     24 H           8.4227   11.8691   42.1511 H         1 TCL450      0.0000 
@<TRIPOS>BOND
     1    2    1 ar   
     2    3    1 ar   
     3   18    1 1    
     4    6    2 ar   
     5   14    2 1    
     6    4    3 ar   
     7   17    3 1    
     8    5    4 ar   
     9   13    4 1    
    10    6    5 ar   
    11   19    5 1    
    12   20    6 1    
    13    8    7 ar   
    14   11    7 ar   
    15   15    7 1    
    16    9    8 ar   
    17   21    8 1    
    18   10    9 ar   
    19   16    9 1    
    20   12   10 ar   
    21   13   10 1    
    22   12   11 ar   
    23   22   11 1    
    24   23   12 1    
    25   24   17 1    
@<TRIPOS>SUBSTRUCTURE
     1 TCL450      1 GROUP   
@<TRIPOS>SET

