#    Name: 2qju_DSM_1_INTS_M
#    Modification time : Mon Mar 24 22:20:48 2014

@<TRIPOS>MOLECULE
2qju_DSM_1_INTS_M
   50     0     6     0     0
SMALL
NO_CHARGES


@<TRIPOS>ATOM
      1 OD1        15.3350  -14.2865  -26.6960 O.co2     1 ASC3        0.0000 
      2 OD1        16.4430  -14.5350  -25.9120 O.co2     5 ASL3        0.0000 
      3 OD1        14.2270  -14.0380  -27.4800 O.co2     3 ASP3        0.0000 
      4 OD1        15.3480  -15.2115  -27.2810 O.co2     1 ASC3        0.0000 
      5 OD1        14.2530  -15.8880  -28.6500 O.co2     3 ASP3        0.0000 
      6 CA         16.4540  -14.5330  -23.1395 C.3       2 GLC5        0.0000 
      7 CA         15.7990  -13.7810  -24.7460 C.3       6 GLL5        0.0000 
      8 CA         17.1090  -15.2850  -21.5330 C.3       4 GLP5        0.0000 
      9 CA         14.0975  -13.1665  -23.4125 C.3       2 GLC5        0.0000 
     10 CA         12.3960  -12.5520  -22.0790 C.3       4 GLP5        0.0000 
     11 CA         13.9255  -11.8190  -23.1370 C.3       2 GLC5        0.0000 
     12 CA         15.4550  -11.0860  -24.1950 C.3       6 GLL5        0.0000 
     13 CA         15.7345   -9.2800  -17.9455 C.3       2 GLC5        0.0000 
     14 CA         15.5030   -8.4530  -19.9130 C.3       6 GLL5        0.0000 
     15 CA         15.9660  -10.1070  -15.9780 C.3       4 GLP5        0.0000 
     16 CA         16.0855  -10.4050  -17.8635 C.3       2 GLC5        0.0000 
     17 CA         16.2050  -10.7030  -19.7490 C.3       6 GLL5        0.0000 
     18 CA         18.0425  -10.3140  -18.8735 C.3       2 GLC5        0.0000 
     19 CA         19.8800   -9.9250  -17.9980 C.3       4 GLP5        0.0000 
     20 CA         19.9365  -13.5270  -19.6410 C.3       2 GLC5        0.0000 
     21 CA         19.0150  -12.3730  -21.0740 C.3       6 GLL5        0.0000 
     22 CA         20.8580  -14.6810  -18.2080 C.3       4 GLP5        0.0000 
     23 CA         20.5755  -13.9525  -20.7010 C.3       2 GLC5        0.0000 
     24 CA         20.2000  -12.2440  -22.0350 C.3       6 GLL5        0.0000 
     25 CA         20.9510  -15.6610  -19.3670 C.3       4 GLP5        0.0000 
     26 CA         22.1085  -11.7215  -21.2565 C.3       2 GLC5        0.0000 
     27 CA         24.0170  -11.1990  -20.4780 C.3       4 GLP5        0.0000 
     28 CA         14.0467  -11.2730  -25.3833 C.3       2 GLC5        0.0000 
     29 CA         12.3890  -10.8860  -26.1360 C.3       4 GLP5        0.0000 
     30 CA         13.6575   -8.8820  -22.4105 C.3       2 GLC5        0.0000 
     31 CA         15.8780   -9.5300  -22.1190 C.3       6 GLL5        0.0000 
     32 CA         11.6220   -8.8610  -22.4110 C.3       4 GLP5        0.0000 
     33 CA         13.3688   -8.0013  -21.8242 C.3       2 GLC5        0.0000 
     34 CA         15.1210   -7.1410  -21.9360 C.3       6 GLL5        0.0000 
     35 CA         14.8833   -6.7572  -18.6160 C.3       2 GLC5        0.0000 
     36 CA         15.1100   -7.1420  -20.5390 C.3       6 GLL5        0.0000 
     37 CA         14.4600   -5.7170  -17.0060 C.3       4 GLP5        0.0000 
     38 CA         17.7880   -8.8837  -19.6395 C.3       2 GLC5        0.0000 
     39 CA         19.8820   -8.7640  -18.9920 C.3       4 GLP5        0.0000 
     40 CA         14.6650  -11.8507  -20.4438 C.3       2 GLC5        0.0000 
     41 CA         12.9280  -12.3430  -20.8080 C.3       4 GLP5        0.0000 
     42 CA         19.0430  -10.3220  -21.1722 C.3       2 GLC5        0.0000 
     43 CA         17.7620  -11.8620  -21.3850 C.3       6 GLL5        0.0000 
     44 CA         20.4420   -9.1160  -20.3500 C.3       4 GLP5        0.0000 
     45 CA         17.2311  -13.4255  -21.6419 C.3       2 GLC5        0.0000 
     46 CA         17.5260  -11.1940  -22.6040 C.3       6 GLL5        0.0000 
     47 CA         20.0247  -10.7122  -20.9523 C.3       2 GLC5        0.0000 
     48 CA         18.3582  -13.7967  -21.5437 C.3       2 GLC5        0.0000 
     49 CA         19.8668  -10.2260  -21.8508 C.3       2 GLC5        0.0000 
     50 CA         19.9460  -11.5770  -23.2430 C.3       6 GLL5        0.0000 
@<TRIPOS>BOND
@<TRIPOS>SUBSTRUCTURE
     1 ASC3        1 GROUP        1 X    ASC  0     ROOT ASC X 3
     2 GLC5        6 GROUP        1 X    GLC  0     **** GLC X 6
     3 ASP3        3 GROUP        1 Y    ASP  0     ROOT ASP Y 10
     4 GLP5        8 GROUP        1 Y    GLP  0     **** GLP Y 13
     5 ASL3        2 GROUP        1 Z    ASL  0     ROOT ASL Z 17
     6 GLL5        7 GROUP        1 Z    GLL  0     **** GLL Z 20
@<TRIPOS>SET

