#    Name: 2qju_DSM_1_ligand
#    Modification time : Mon Mar 24 22:20:48 2014

@<TRIPOS>MOLECULE
2qju_DSM_1_ligand
   41    43     1     0     0
SMALL
NO_CHARGES


@<TRIPOS>ATOM
      1 C18        17.7390  -15.3290  -26.0670 C.3       1 DSM801      0.0000 
      2 N2         16.4430  -14.5350  -25.9120 N.4       1 DSM801      0.0000 
      3 C17        15.7990  -13.7810  -24.7460 C.3       1 DSM801      0.0000 
      4 C16        15.9540  -12.2340  -25.0660 C.3       1 DSM801      0.0000 
      5 C15        15.4550  -11.0860  -24.1950 C.3       1 DSM801      0.0000 
      6 N1         16.2700  -10.6330  -23.0100 N.pl3     1 DSM801      0.0000 
      7 C14        15.8780   -9.5300  -22.1190 C.ar      1 DSM801      0.0000 
      8 C1         15.5080   -8.2760  -22.7010 C.ar      1 DSM801      0.0000 
      9 C2         15.1210   -7.1410  -21.9360 C.ar      1 DSM801      0.0000 
     10 C3         15.1100   -7.1420  -20.5390 C.ar      1 DSM801      0.0000 
     11 C4         15.5030   -8.4530  -19.9130 C.ar      1 DSM801      0.0000 
     12 C13        15.8850   -9.5540  -20.6610 C.ar      1 DSM801      0.0000 
     13 C5         16.2050  -10.7030  -19.7490 C.3       1 DSM801      0.0000 
     14 C6         16.5990  -12.0140  -20.4100 C.3       1 DSM801      0.0000 
     15 C12        17.7620  -11.8620  -21.3850 C.ar      1 DSM801      0.0000 
     16 C11        17.5260  -11.1940  -22.6040 C.ar      1 DSM801      0.0000 
     17 C7         19.0150  -12.3730  -21.0740 C.ar      1 DSM801      0.0000 
     18 C8         20.2000  -12.2440  -22.0350 C.ar      1 DSM801      0.0000 
     19 C9         19.9460  -11.5770  -23.2430 C.ar      1 DSM801      0.0000 
     20 C10        18.6370  -11.0950  -23.4600 C.ar      1 DSM801      0.0000 
     21 H          16.3164  -13.9861  -23.8385 H         1 DSM801      0.0000 
     22 H          14.7601  -14.0054  -24.6856 H         1 DSM801      0.0000 
     23 H          15.5276  -12.0889  -26.1286 H         1 DSM801      0.0000 
     24 H          17.0776  -12.0666  -25.2701 H         1 DSM801      0.0000 
     25 H          14.4148  -11.3504  -23.8353 H         1 DSM801      0.0000 
     26 H          15.2731  -10.1940  -24.8678 H         1 DSM801      0.0000 
     27 H          15.5241   -8.1938  -23.7387 H         1 DSM801      0.0000 
     28 H          14.8364   -6.2803  -22.4474 H         1 DSM801      0.0000 
     29 H          14.8772   -6.3905  -19.9722 H         1 DSM801      0.0000 
     30 H          15.4704   -8.4824  -18.8828 H         1 DSM801      0.0000 
     31 H          15.3268  -10.8955  -19.0830 H         1 DSM801      0.0000 
     32 H          17.0275  -10.3989  -19.0541 H         1 DSM801      0.0000 
     33 H          15.7321  -12.4215  -20.9486 H         1 DSM801      0.0000 
     34 H          16.8762  -12.7407  -19.6336 H         1 DSM801      0.0000 
     35 H          19.2124  -12.8571  -20.1977 H         1 DSM801      0.0000 
     36 H          21.0579  -12.6243  -21.7665 H         1 DSM801      0.0000 
     37 H          20.6669  -11.4451  -23.9313 H         1 DSM801      0.0000 
     38 H          18.4708  -10.5886  -24.3990 H         1 DSM801      0.0000 
     39 H          18.5442  -14.7655  -25.8821 H         1 DSM801      0.0000 
     40 H          17.7753  -16.1068  -25.4396 H         1 DSM801      0.0000 
     41 H          17.8427  -15.6937  -26.9923 H         1 DSM801      0.0000 
@<TRIPOS>BOND
     1    2    1 1    
     2   39    1 1    
     3   40    1 1    
     4   41    1 1    
     5    3    2 1    
     6    4    3 1    
     7   21    3 1    
     8   22    3 1    
     9    5    4 1    
    10   23    4 1    
    11   24    4 1    
    12    6    5 1    
    13   25    5 1    
    14   26    5 1    
    15    7    6 1    
    16   16    6 1    
    17    8    7 ar   
    18   12    7 ar   
    19    9    8 ar   
    20   27    8 1    
    21   10    9 ar   
    22   28    9 1    
    23   11   10 ar   
    24   29   10 1    
    25   12   11 ar   
    26   30   11 1    
    27   13   12 1    
    28   14   13 1    
    29   31   13 1    
    30   32   13 1    
    31   15   14 1    
    32   33   14 1    
    33   34   14 1    
    34   16   15 ar   
    35   17   15 ar   
    36   20   16 ar   
    37   18   17 ar   
    38   35   17 1    
    39   19   18 ar   
    40   36   18 1    
    41   20   19 ar   
    42   37   19 1    
    43   38   20 1    
@<TRIPOS>SUBSTRUCTURE
     1 DSM801      1 GROUP   
@<TRIPOS>SET

