#    Name: 1eiz_SAM_1_INTS_M
#    Modification time : Mon Mar 24 23:58:44 2014

@<TRIPOS>MOLECULE
1eiz_SAM_1_INTS_M
   76     0    12     0     0
SMALL
NO_CHARGES


@<TRIPOS>ATOM
      1 OD1         0.6995   40.4525   14.1400 O.co2     3 ASC3        0.0000 
      2 OD1         0.7780   40.7440   12.8000 O.co2    11 ASL3        0.0000 
      3 OD1         0.6210   40.1610   15.4800 O.co2     7 ASP3        0.0000 
      4 O           0.6995   40.4525   14.1400 O.2       1 ALC1        0.0000 
      5 O           0.7780   40.7440   12.8000 O.2       9 ALL1        0.0000 
      6 O           0.6210   40.1610   15.4800 O.2       5 ALP1        0.0000 
      7 O           1.7750   39.9995   12.1485 O.2       1 ALC1        0.0000 
      8 O           2.7720   39.2550   11.4970 O.2       5 ALP1        0.0000 
      9 CA          0.2075   39.2945   10.3605 C.3       4 GLC5        0.0000 
     10 CA         -0.5060   40.5250   12.0590 C.3      12 GLL5        0.0000 
     11 CA          0.9210   38.0640    8.6620 C.3       8 GLP5        0.0000 
     12 CA          0.9615   39.6295   13.4320 C.3       4 GLC5        0.0000 
     13 CA          2.4290   38.7340   14.8050 C.3       8 GLP5        0.0000 
     14 N           0.5700   43.6115   11.0490 N.am      2 SEC2        0.0000 
     15 N          -0.3570   42.8850   11.8440 N.am     10 SEL2        0.0000 
     16 N           1.4970   44.3380   10.2540 N.am      6 SEP2        0.0000 
     17 N          -2.2455   41.8895    9.3380 N.am      2 SEC2        0.0000 
     18 N          -2.0650   41.8930   10.8730 N.am     10 SEL2        0.0000 
     19 N          -2.4260   41.8860    7.8030 N.am      6 SEP2        0.0000 
     20 N          -1.6265   43.0020    9.9740 N.am      2 SEC2        0.0000 
     21 N          -1.1880   44.1110    9.0750 N.am      6 SEP2        0.0000 
     22 CA         -3.2510   40.3015   11.6475 C.3       4 GLC5        0.0000 
     23 CA         -1.5610   39.8880   12.9870 C.3      12 GLL5        0.0000 
     24 CA         -4.9410   40.7150   10.3080 C.3       8 GLP5        0.0000 
     25 CA          0.5700   38.5715   14.0155 C.3       4 GLC5        0.0000 
     26 CA         -1.2890   38.4090   13.2260 C.3      12 GLL5        0.0000 
     27 CA         -0.7130   37.7405   17.4220 C.3       4 GLC5        0.0000 
     28 CA         -1.9620   38.0890   15.9330 C.3      12 GLL5        0.0000 
     29 CA          0.5360   37.3920   18.9110 C.3       8 GLP5        0.0000 
     30 CA          0.0200   34.8975   14.6485 C.3       4 GLC5        0.0000 
     31 CA         -1.8420   35.8970   14.2580 C.3      12 GLL5        0.0000 
     32 CA          1.8820   33.8980   15.0390 C.3       8 GLP5        0.0000 
     33 CA         -0.2725   35.0650   11.9220 C.3       4 GLC5        0.0000 
     34 CA         -1.9700   35.1110   12.9790 C.3      12 GLL5        0.0000 
     35 CA          1.4250   35.0190   10.8650 C.3       8 GLP5        0.0000 
     36 O          -2.7415   35.3010   10.4895 O.2       1 ALC1        0.0000 
     37 O          -3.7180   35.4230   11.4840 O.2       9 ALL1        0.0000 
     38 O          -1.7650   35.1790    9.4950 O.2       5 ALP1        0.0000 
     39 O          -3.5205   33.1475    9.9115 O.2       1 ALC1        0.0000 
     40 O          -3.9450   32.6760   11.0710 O.2       9 ALL1        0.0000 
     41 O          -3.0960   33.6190    8.7520 O.2       5 ALP1        0.0000 
     42 CA         -0.1230   34.0170   11.4955 C.3       4 GLC5        0.0000 
     43 CA         -1.6710   33.0150   12.1260 C.3      12 GLL5        0.0000 
     44 CA          2.1555   28.6150   10.2890 C.3       4 GLC5        0.0000 
     45 CA          0.2930   28.6850   11.1950 C.3      12 GLL5        0.0000 
     46 CA          4.0180   28.5450    9.3830 C.3       8 GLP5        0.0000 
     47 CA          1.3215   28.0190   12.9910 C.3       4 GLC5        0.0000 
     48 CA          2.3500   27.3530   14.7870 C.3       8 GLP5        0.0000 
     49 O           0.5115   26.2150   10.6555 O.2       1 ALC1        0.0000 
     50 O           0.4320   27.3980   11.5610 O.2       9 ALL1        0.0000 
     51 O           0.5910   25.0320    9.7500 O.2       5 ALP1        0.0000 
     52 N           1.5195   28.1585    9.1325 N.am      2 SEC2        0.0000 
     53 N           0.7610   29.0630    9.9900 N.am     10 SEL2        0.0000 
     54 N           2.2780   27.2540    8.2750 N.am      6 SEP2        0.0000 
     55 CA          1.7980   30.6525    7.7820 C.3       4 GLC5        0.0000 
     56 CA          0.5650   30.3370    9.5910 C.3      12 GLL5        0.0000 
     57 CA          3.0310   30.9680    5.9730 C.3       8 GLP5        0.0000 
     58 CA          0.0485   31.6850    8.3795 C.3       4 GLC5        0.0000 
     59 CA         -0.4680   33.0330    7.1680 C.3       8 GLP5        0.0000 
     60 CA         -1.1325   29.4725    9.4240 C.3       4 GLC5        0.0000 
     61 CA         -2.8300   28.6080    9.2570 C.3       8 GLP5        0.0000 
     62 CA          2.2915   29.4410    9.4870 C.3       4 GLC5        0.0000 
     63 CA          2.1585   30.7385   11.0360 C.3       4 GLC5        0.0000 
     64 CA          3.7520   31.1400   12.4810 C.3       8 GLP5        0.0000 
     65 N          -1.0755   31.3090    8.9255 N.am      2 SEC2        0.0000 
     66 N          -0.0450   31.3310   10.2370 N.am     10 SEL2        0.0000 
     67 N          -2.1060   31.2870    7.6140 N.am      6 SEP2        0.0000 
     68 CA          1.2515   31.8170   12.2400 C.3       4 GLC5        0.0000 
     69 CA         -0.4830   30.9240   11.4390 C.3      12 GLL5        0.0000 
     70 CA          2.9860   32.7100   13.0410 C.3       8 GLP5        0.0000 
     71 CA         -1.1658   41.9997   13.7360 C.3       4 GLC5        0.0000 
     72 CA         -1.2980   43.7930   14.9490 C.3       8 GLP5        0.0000 
     73 CA          1.8627   30.1573   12.0365 C.3       4 GLC5        0.0000 
     74 CA         -0.3460   29.6640   11.9890 C.3      12 GLL5        0.0000 
     75 CA         -1.7939   29.2916   11.1143 C.3       4 GLC5        0.0000 
     76 CA         -3.3330   28.5340   10.7130 C.3       8 GLP5        0.0000 
@<TRIPOS>BOND
@<TRIPOS>SUBSTRUCTURE
     1 ALC1        4 GROUP        1 X    ALC  0     ROOT ALC X 1
     2 SEC2       14 GROUP        1 X    SEC  0     **** SEC X 2
     3 ASC3        1 GROUP        1 X    ASC  0     **** ASC X 3
     4 GLC5        9 GROUP        1 X    GLC  0     **** GLC X 6
     5 ALP1        6 GROUP        1 Y    ALP  0     ROOT ALP Y 8
     6 SEP2       16 GROUP        1 Y    SEP  0     **** SEP Y 9
     7 ASP3        3 GROUP        1 Y    ASP  0     **** ASP Y 10
     8 GLP5       11 GROUP        1 Y    GLP  0     **** GLP Y 13
     9 ALL1        5 GROUP        1 Z    ALL  0     ROOT ALL Z 15
    10 SEL2       15 GROUP        1 Z    SEL  0     **** SEL Z 16
    11 ASL3        2 GROUP        1 Z    ASL  0     **** ASL Z 17
    12 GLL5       10 GROUP        1 Z    GLL  0     **** GLL Z 20
@<TRIPOS>SET

