#    Name: 1eiz_SAM_1_ligand
#    Modification time : Mon Mar 24 23:58:44 2014

@<TRIPOS>MOLECULE
1eiz_SAM_1_ligand
   50    52     1     0     0
SMALL
NO_CHARGES


@<TRIPOS>ATOM
      1 N           0.7780   40.7440   12.8000 N.4       1 SAM301      0.0000 
      2 CA         -0.5060   40.5250   12.0590 C.3       1 SAM301      0.0000 
      3 C          -1.0090   41.8720   11.5450 C.2       1 SAM301      0.0000 
      4 O          -0.3570   42.8850   11.8440 O.co2     1 SAM301      0.0000 
      5 OXT        -2.0650   41.8930   10.8730 O.co2     1 SAM301      0.0000 
      6 CB         -1.5610   39.8880   12.9870 C.3       1 SAM301      0.0000 
      7 CG         -1.2890   38.4090   13.2260 C.3       1 SAM301      0.0000 
      8 SD         -2.5120   37.5480   14.2530 S.3       1 SAM301      0.0000 
      9 CE         -1.9620   38.0890   15.9330 C.3       1 SAM301      0.0000 
     10 C5'        -1.8420   35.8970   14.2580 C.3       1 SAM301      0.0000 
     11 C4'        -1.9700   35.1110   12.9790 C.3       1 SAM301      0.0000 
     12 O4'        -1.1780   33.9120   13.0860 O.3       1 SAM301      0.0000 
     13 C3'        -3.3860   34.6220   12.6510 C.3       1 SAM301      0.0000 
     14 O3'        -3.7180   35.4230   11.4840 O.3       1 SAM301      0.0000 
     15 C2'        -3.1900   33.1850   12.1570 C.3       1 SAM301      0.0000 
     16 O2'        -3.9450   32.6760   11.0710 O.3       1 SAM301      0.0000 
     17 C1'        -1.6710   33.0150   12.1260 C.3       1 SAM301      0.0000 
     18 N9         -1.1860   31.6620   12.3600 N.pl3     1 SAM301      0.0000 
     19 C8         -1.3740   30.8260   13.4390 C.2       1 SAM301      0.0000 
     20 N7         -0.9010   29.6220   13.2560 N.2       1 SAM301      0.0000 
     21 C5         -0.3460   29.6640   11.9890 C.ar      1 SAM301      0.0000 
     22 C6          0.2930   28.6850   11.1950 C.ar      1 SAM301      0.0000 
     23 N6          0.4320   27.3980   11.5610 N.pl3     1 SAM301      0.0000 
     24 N1          0.7610   29.0630    9.9900 N.ar      1 SAM301      0.0000 
     25 C2          0.5650   30.3370    9.5910 C.ar      1 SAM301      0.0000 
     26 N3         -0.0450   31.3310   10.2370 N.ar      1 SAM301      0.0000 
     27 C4         -0.4830   30.9240   11.4390 C.ar      1 SAM301      0.0000 
     28 H          -0.3402   39.8756   11.2253 H         1 SAM301      0.0000 
     29 H          -2.5467   40.0088   12.5319 H         1 SAM301      0.0000 
     30 H          -1.5545   40.4191   13.9416 H         1 SAM301      0.0000 
     31 H          -0.3661   38.2226   13.7670 H         1 SAM301      0.0000 
     32 H          -1.2987   37.8166   12.3160 H         1 SAM301      0.0000 
     33 H          -2.3639   35.4321   15.1022 H         1 SAM301      0.0000 
     34 H          -0.8010   36.0647   14.5570 H         1 SAM301      0.0000 
     35 H          -1.6168   35.6985   12.1465 H         1 SAM301      0.0000 
     36 H          -3.9964   34.6996   13.4192 H         1 SAM301      0.0000 
     37 H          -3.4671   32.5637   13.1233 H         1 SAM301      0.0000 
     38 H          -1.3485   33.3585   11.1245 H         1 SAM301      0.0000 
     39 H          -1.8347   31.1469   14.2693 H         1 SAM301      0.0000 
     40 H           0.4985   27.2248   12.5436 H         1 SAM301      0.0000 
     41 H           0.4563   26.7293   10.8178 H         1 SAM301      0.0000 
     42 H           0.9672   30.5846    8.5912 H         1 SAM301      0.0000 
     43 H           0.7104   40.4528   13.7543 H         1 SAM301      0.0000 
     44 H           1.5345   40.2339   12.3908 H         1 SAM301      0.0000 
     45 H           1.0436   41.7081   12.8058 H         1 SAM301      0.0000 
     46 H          -1.0962   37.6630   16.1954 H         1 SAM301      0.0000 
     47 H          -1.8274   39.0788   15.9789 H         1 SAM301      0.0000 
     48 H          -2.6310   37.8512   16.6372 H         1 SAM301      0.0000 
     49 H          -2.9360   35.3207   10.8690 H         1 SAM301      0.0000 
     50 H          -3.5562   33.1114   10.2590 H         1 SAM301      0.0000 
@<TRIPOS>BOND
     1    2    1 1    
     2   43    1 1    
     3   44    1 1    
     4   45    1 1    
     5    3    2 1    
     6    6    2 1    
     7   28    2 1    
     8    4    3 ar   
     9    5    3 ar   
    10    7    6 1    
    11   29    6 1    
    12   30    6 1    
    13    8    7 1    
    14   31    7 1    
    15   32    7 1    
    16    9    8 1    
    17   10    8 1    
    18   46    9 1    
    19   47    9 1    
    20   48    9 1    
    21   11   10 1    
    22   33   10 1    
    23   34   10 1    
    24   12   11 1    
    25   13   11 1    
    26   35   11 1    
    27   17   12 1    
    28   14   13 1    
    29   15   13 1    
    30   36   13 1    
    31   49   14 1    
    32   16   15 1    
    33   17   15 1    
    34   37   15 1    
    35   50   16 1    
    36   18   17 1    
    37   38   17 1    
    38   19   18 1    
    39   27   18 1    
    40   20   19 2    
    41   39   19 1    
    42   21   20 1    
    43   22   21 ar   
    44   27   21 ar   
    45   23   22 1    
    46   24   22 ar   
    47   40   23 1    
    48   41   23 1    
    49   25   24 ar   
    50   26   25 ar   
    51   42   25 1    
    52   27   26 ar   
@<TRIPOS>SUBSTRUCTURE
     1 SAM301      1 GROUP   
@<TRIPOS>SET

