#    Name: 1m66_BCP_1_INTS_M
#    Modification time : Tue Mar 25 11:24:46 2014

@<TRIPOS>MOLECULE
1m66_BCP_1_INTS_M
   21     0     3     0     0
SMALL
NO_CHARGES


@<TRIPOS>ATOM
      1 CA         33.4320   54.4770   32.8310 C.3       1 GLC5        0.0000 
      2 CA         33.1770   56.1590   31.6480 C.3       3 GLL5        0.0000 
      3 CA         33.6870   52.7950   34.0140 C.3       2 GLP5        0.0000 
      4 CA         33.7770   56.6370   29.8990 C.3       1 GLC5        0.0000 
      5 CA         34.3770   57.1150   28.1500 C.3       2 GLP5        0.0000 
      6 CA         35.0240   52.9455   31.5235 C.3       1 GLC5        0.0000 
      7 CA         36.3800   54.0890   30.5850 C.3       3 GLL5        0.0000 
      8 CA         33.6680   51.8020   32.4620 C.3       2 GLP5        0.0000 
      9 CA         38.3890   53.0090   32.3710 C.3       1 GLC5        0.0000 
     10 CA         38.1330   54.2950   31.1280 C.3       3 GLL5        0.0000 
     11 CA         38.6450   51.7230   33.6140 C.3       2 GLP5        0.0000 
     12 CA         39.0950   54.5080   29.5315 C.3       1 GLC5        0.0000 
     13 CA         40.0570   54.7210   27.9350 C.3       2 GLP5        0.0000 
     14 CA         39.6095   54.6270   32.3550 C.3       1 GLC5        0.0000 
     15 CA         41.0860   54.9590   33.5820 C.3       2 GLP5        0.0000 
     16 CA         37.0463   55.4380   29.5098 C.3       1 GLC5        0.0000 
     17 CA         36.8360   56.6840   28.1630 C.3       2 GLP5        0.0000 
     18 CA         34.0531   52.7560   31.1589 C.3       1 GLC5        0.0000 
     19 CA         34.8460   53.0010   29.3430 C.3       3 GLL5        0.0000 
     20 CA         35.6371   55.1970   29.0094 C.3       1 GLC5        0.0000 
     21 CA         33.8300   53.8960   29.8830 C.3       3 GLL5        0.0000 
@<TRIPOS>BOND
@<TRIPOS>SUBSTRUCTURE
     1 GLC5        1 GROUP        1 X    GLC  0     ROOT GLC X 6
     2 GLP5        3 GROUP        1 Y    GLP  0     ROOT GLP Y 13
     3 GLL5        2 GROUP        1 Z    GLL  0     ROOT GLL Z 20
@<TRIPOS>SET

