#    Name: 1m66_BCP_1_ligand
#    Modification time : Tue Mar 25 11:24:46 2014

@<TRIPOS>MOLECULE
1m66_BCP_1_ligand
   13    14     1     0     0
SMALL
NO_CHARGES


@<TRIPOS>ATOM
      1 CL         33.1770   56.1590   31.6480 Cl        1 BCP401      0.0000 
      2 C6         34.2310   54.9420   30.8540 C.ar      1 BCP401      0.0000 
      3 N1         35.5230   54.9530   31.1370 N.ar      1 BCP401      0.0000 
      4 C2         36.3800   54.0890   30.5850 C.ar      1 BCP401      0.0000 
      5 BR         38.1330   54.2950   31.1280 Br        1 BCP401      0.0000 
      6 C5         33.8300   53.8960   29.8830 C.ar      1 BCP401      0.0000 
      7 C4         34.8460   53.0010   29.3430 C.ar      1 BCP401      0.0000 
      8 N3         36.1090   53.1170   29.7030 N.ar      1 BCP401      0.0000 
      9 N7         32.6650   53.5410   29.3410 N.pl3     1 BCP401      0.0000 
     10 C8         32.9380   52.4870   28.5070 C.2       1 BCP401      0.0000 
     11 N9         34.2640   52.1560   28.5030 N.2       1 BCP401      0.0000 
     12 H          31.8080   53.9247   29.4872 H         1 BCP401      0.0000 
     13 H          32.2543   52.0230   27.9727 H         1 BCP401      0.0000 
@<TRIPOS>BOND
     1    2    1 1    
     2    3    2 ar   
     3    6    2 ar   
     4    4    3 ar   
     5    5    4 1    
     6    8    4 ar   
     7    7    6 ar   
     8    9    6 1    
     9    8    7 ar   
    10   11    7 1    
    11   10    9 1    
    12   12    9 1    
    13   11   10 2    
    14   13   10 1    
@<TRIPOS>SUBSTRUCTURE
     1 BCP401      1 GROUP   
@<TRIPOS>SET

