#    Name: 2qe2_452_2_INTS_M
#    Modification time : Mon Mar 24 21:50:29 2014

@<TRIPOS>MOLECULE
2qe2_452_2_INTS_M
   61     0     6     0     0
SMALL
NO_CHARGES


@<TRIPOS>ATOM
      1 CA        -54.8030   30.7055   50.0370 C.3       2 GLC5        0.0000 
      2 CA        -55.0310   31.5840   51.7050 C.3       6 GLL5        0.0000 
      3 CA        -54.5750   29.8270   48.3690 C.3       4 GLP5        0.0000 
      4 CA        -53.6750   29.9915   51.5975 C.3       2 GLC5        0.0000 
      5 CA        -52.3190   28.3990   51.4900 C.3       4 GLP5        0.0000 
      6 CA        -53.6210   32.0650   52.9785 C.3       2 GLC5        0.0000 
      7 CA        -52.2110   32.5460   54.2520 C.3       4 GLP5        0.0000 
      8 CA        -56.6020   31.6950   50.8690 C.3       2 GLC5        0.0000 
      9 CA        -58.1730   31.8060   50.0330 C.3       4 GLP5        0.0000 
     10 CA        -53.6675   35.8630   53.8425 C.3       2 GLC5        0.0000 
     11 CA        -54.8170   37.4780   52.8360 C.3       6 GLL5        0.0000 
     12 CA        -52.5180   34.2480   54.8490 C.3       4 GLP5        0.0000 
     13 CA        -56.3200   38.3160   54.1065 C.3       2 GLC5        0.0000 
     14 CA        -57.8230   39.1540   55.3770 C.3       4 GLP5        0.0000 
     15 N         -54.6545   40.3785   52.6315 N.am      1 SEC2        0.0000 
     16 N         -55.7080   39.5860   52.1000 N.am      5 SEL2        0.0000 
     17 N         -53.6010   41.1710   53.1630 N.am      3 SEP2        0.0000 
     18 CA        -59.9550   36.1080   46.8935 C.3       2 GLC5        0.0000 
     19 CA        -59.0460   37.4780   48.2730 C.3       6 GLL5        0.0000 
     20 CA        -60.8640   34.7380   45.5140 C.3       4 GLP5        0.0000 
     21 N         -58.2770   34.3075   46.9325 N.am      1 SEC2        0.0000 
     22 N         -57.6890   35.1210   47.8990 N.am      5 SEL2        0.0000 
     23 N         -58.8650   33.4940   45.9660 N.am      3 SEP2        0.0000 
     24 CA        -60.9760   34.5285   55.5770 C.3       2 GLC5        0.0000 
     25 CA        -59.4150   35.5230   55.4620 C.3       6 GLL5        0.0000 
     26 CA        -62.5370   33.5340   55.6920 C.3       4 GLP5        0.0000 
     27 CA        -59.2880   35.3775   57.5990 C.3       2 GLC5        0.0000 
     28 CA        -59.1610   35.2320   59.7360 C.3       4 GLP5        0.0000 
     29 CA        -60.4440   36.4740   53.9090 C.3       2 GLC5        0.0000 
     30 CA        -61.4730   37.4250   52.3560 C.3       4 GLP5        0.0000 
     31 CA        -58.9360   37.2790   56.0365 C.3       2 GLC5        0.0000 
     32 CA        -58.4570   39.0350   56.6110 C.3       4 GLP5        0.0000 
     33 CA        -60.6150   32.3230   55.2970 C.3       2 GLC5        0.0000 
     34 CA        -59.0730   32.5670   54.7280 C.3       6 GLL5        0.0000 
     35 CA        -62.1570   32.0790   55.8660 C.3       4 GLP5        0.0000 
     36 CA        -58.7495   32.8045   56.8210 C.3       2 GLC5        0.0000 
     37 CA        -58.4260   33.0420   58.9140 C.3       4 GLP5        0.0000 
     38 CA        -54.2810   34.3427   53.9262 C.3       2 GLC5        0.0000 
     39 CA        -56.0340   33.7140   52.8700 C.3       6 GLL5        0.0000 
     40 CA        -60.2970   33.9103   54.2905 C.3       2 GLC5        0.0000 
     41 CA        -58.1250   33.4100   54.2360 C.3       6 GLL5        0.0000 
     42 CA        -62.4490   33.7090   54.2090 C.3       4 GLP5        0.0000 
     43 CA        -59.0108   34.8070   52.8407 C.3       2 GLC5        0.0000 
     44 CA        -58.1650   34.8130   54.5080 C.3       6 GLL5        0.0000 
     45 CA        -60.3630   34.3810   51.4410 C.3       4 GLP5        0.0000 
     46 CA        -59.7300   37.7463   50.6300 C.3       2 GLC5        0.0000 
     47 CA        -57.6250   38.0060   50.2570 C.3       6 GLL5        0.0000 
     48 CA        -61.4820   36.8600   50.9580 C.3       4 GLP5        0.0000 
     49 CA        -60.2638   40.7350   50.5263 C.3       2 GLC5        0.0000 
     50 CA        -58.3310   39.2590   50.3470 C.3       6 GLL5        0.0000 
     51 CA        -61.6880   42.0380   51.1670 C.3       4 GLP5        0.0000 
     52 CA        -61.2037   39.9428   48.3650 C.3       2 GLC5        0.0000 
     53 CA        -59.3480   39.6050   49.4240 C.3       6 GLL5        0.0000 
     54 CA        -62.8820   40.7230   47.8230 C.3       4 GLP5        0.0000 
     55 CA        -60.5037   38.0113   49.9325 C.3       2 GLC5        0.0000 
     56 CA        -59.7030   38.7200   48.3900 C.3       6 GLL5        0.0000 
     57 CA        -60.0042   37.0722   49.8443 C.3       2 GLC5        0.0000 
     58 CA        -57.7435   31.7906   55.5766 C.3       2 GLC5        0.0000 
     59 CA        -57.0730   32.8610   53.4290 C.3       6 GLL5        0.0000 
     60 CA        -57.1510   30.7300   56.8730 C.3       4 GLP5        0.0000 
     61 CA        -59.3495   33.6161   52.8606 C.3       2 GLC5        0.0000 
@<TRIPOS>BOND
@<TRIPOS>SUBSTRUCTURE
     1 SEC2       15 GROUP        1 X    SEC  0     ROOT SEC X 2
     2 GLC5        1 GROUP        1 X    GLC  0     **** GLC X 6
     3 SEP2       17 GROUP        1 Y    SEP  0     ROOT SEP Y 9
     4 GLP5        3 GROUP        1 Y    GLP  0     **** GLP Y 13
     5 SEL2       16 GROUP        1 Z    SEL  0     ROOT SEL Z 16
     6 GLL5        2 GROUP        1 Z    GLL  0     **** GLL Z 20
@<TRIPOS>SET

