#    Name: 2qe2_452_2_ligand
#    Modification time : Mon Mar 24 21:50:29 2014

@<TRIPOS>MOLECULE
2qe2_452_2_ligand
   38    39     1     0     0
SMALL
NO_CHARGES


@<TRIPOS>ATOM
      1 C1        -55.0310   31.5840   51.7050 C.3       1 452579      0.0000 
      2 C2        -54.9410   33.0650   52.0050 C.2       1 452579      0.0000 
      3 O1        -53.9960   33.7450   51.5420 O.2       1 452579      0.0000 
      4 C3        -56.0340   33.7140   52.8700 C.ar      1 452579      0.0000 
      5 C4        -57.0730   32.8610   53.4290 C.ar      1 452579      0.0000 
      6 C5        -58.1250   33.4100   54.2360 C.ar      1 452579      0.0000 
      7 C6        -58.1650   34.8130   54.5080 C.ar      1 452579      0.0000 
      8 C7        -57.1520   35.6530   53.9730 C.ar      1 452579      0.0000 
      9 C8        -56.0540   35.1610   53.1370 C.ar      1 452579      0.0000 
     10 N1        -55.0390   36.0270   52.5850 N.pl3     1 452579      0.0000 
     11 C9        -54.8170   37.4780   52.8360 C.3       1 452579      0.0000 
     12 C10       -55.7590   38.3670   52.0050 C.2       1 452579      0.0000 
     13 O2        -55.7080   39.5860   52.1000 O.2       1 452579      0.0000 
     14 N2        -56.5860   37.6140   51.1820 N.am      1 452579      0.0000 
     15 C11       -57.6250   38.0060   50.2570 C.ar      1 452579      0.0000 
     16 C12       -58.3310   39.2590   50.3470 C.ar      1 452579      0.0000 
     17 C13       -59.3480   39.6050   49.4240 C.ar      1 452579      0.0000 
     18 C14       -59.7030   38.7200   48.3900 C.ar      1 452579      0.0000 
     19 C15       -59.0460   37.4780   48.2730 C.ar      1 452579      0.0000 
     20 C16       -58.0070   37.0910   49.1880 C.ar      1 452579      0.0000 
     21 C17       -57.3780   35.7350   48.9740 C.2       1 452579      0.0000 
     22 O3        -57.6890   35.1210   47.8990 O.co2     1 452579      0.0000 
     23 O4        -56.5960   35.3090   49.8780 O.co2     1 452579      0.0000 
     24 CL1       -59.4150   35.5230   55.4620 Cl        1 452579      0.0000 
     25 F1        -59.0730   32.5670   54.7280 F         1 452579      0.0000 
     26 H         -57.0449   31.8619   53.2395 H         1 452579      0.0000 
     27 H         -57.1748   36.6691   54.1741 H         1 452579      0.0000 
     28 H         -54.3467   35.5823   51.9034 H         1 452579      0.0000 
     29 H         -53.7816   37.7512   52.5905 H         1 452579      0.0000 
     30 H         -54.9764   37.7078   53.8984 H         1 452579      0.0000 
     31 H         -56.4386   36.5221   51.2289 H         1 452579      0.0000 
     32 H         -58.0831   39.9094   51.1021 H         1 452579      0.0000 
     33 H         -59.8257   40.5068   49.5137 H         1 452579      0.0000 
     34 H         -60.4347   38.9750   47.7248 H         1 452579      0.0000 
     35 H         -59.3068   36.8274   47.5218 H         1 452579      0.0000 
     36 H         -54.2264   31.0890   52.0331 H         1 452579      0.0000 
     37 H         -55.8294   31.1653   52.1377 H         1 452579      0.0000 
     38 H         -55.1035   31.4076   50.7233 H         1 452579      0.0000 
@<TRIPOS>BOND
     1    2    1 1    
     2   36    1 1    
     3   37    1 1    
     4   38    1 1    
     5    3    2 2    
     6    4    2 1    
     7    5    4 ar   
     8    9    4 ar   
     9    6    5 ar   
    10   26    5 1    
    11    7    6 ar   
    12   25    6 1    
    13    8    7 ar   
    14   24    7 1    
    15    9    8 ar   
    16   27    8 1    
    17   10    9 1    
    18   11   10 1    
    19   28   10 1    
    20   12   11 1    
    21   29   11 1    
    22   30   11 1    
    23   13   12 2    
    24   14   12 am   
    25   15   14 1    
    26   31   14 1    
    27   16   15 ar   
    28   20   15 ar   
    29   17   16 ar   
    30   32   16 1    
    31   18   17 ar   
    32   33   17 1    
    33   19   18 ar   
    34   34   18 1    
    35   20   19 ar   
    36   35   19 1    
    37   21   20 1    
    38   22   21 ar   
    39   23   21 ar   
@<TRIPOS>SUBSTRUCTURE
     1 452579      1 GROUP   
@<TRIPOS>SET

