#    Name: 2qpy_DHT_1_INTS_M
#    Modification time : Mon Mar 24 22:35:42 2014

@<TRIPOS>MOLECULE
2qpy_DHT_1_INTS_M
   76     0     9     0     0
SMALL
NO_CHARGES


@<TRIPOS>ATOM
      1 CA         28.4125    5.6550    5.6260 C.3       3 GLC5        0.0000 
      2 CA         26.5790    5.2040    4.7540 C.3       9 GLL5        0.0000 
      3 CA         30.2460    6.1060    6.4980 C.3       6 GLP5        0.0000 
      4 CA         26.6090    8.3315    5.7330 C.3       3 GLC5        0.0000 
      5 CA         25.8410    6.4740    5.2510 C.3       9 GLL5        0.0000 
      6 CA         27.3770   10.1890    6.2150 C.3       6 GLP5        0.0000 
      7 N          23.2190    8.5635    3.7775 N.am      2 SEC2        0.0000 
      8 N          23.8760    7.2830    4.1350 N.am      8 SEL2        0.0000 
      9 N          22.5620    9.8440    3.4200 N.am      5 SEP2        0.0000 
     10 CA         23.8105    5.6705    6.8835 C.3       3 GLC5        0.0000 
     11 CA         23.6430    5.0540    5.0510 C.3       9 GLL5        0.0000 
     12 CA         23.9780    6.2870    8.7160 C.3       6 GLP5        0.0000 
     13 CA         21.8185    4.8715    6.2355 C.3       3 GLC5        0.0000 
     14 CA         19.9940    4.6890    7.4200 C.3       6 GLP5        0.0000 
     15 CA         21.9145    6.0800    4.5415 C.3       3 GLC5        0.0000 
     16 CA         20.1860    7.1060    4.0320 C.3       6 GLP5        0.0000 
     17 CA         23.4215    5.0325    3.0545 C.3       3 GLC5        0.0000 
     18 CA         23.2000    5.0110    1.0580 C.3       6 GLP5        0.0000 
     19 CA         22.2835    2.3895    6.1980 C.3       3 GLC5        0.0000 
     20 CA         23.7370    2.4450    4.8220 C.3       9 GLL5        0.0000 
     21 CA         20.8300    2.3340    7.5740 C.3       6 GLP5        0.0000 
     22 CA         21.7675    1.6630    4.0885 C.3       3 GLC5        0.0000 
     23 CA         19.7980    0.8810    3.3550 C.3       6 GLP5        0.0000 
     24 CA         25.2605    0.8910    6.8650 C.3       3 GLC5        0.0000 
     25 CA         26.0280    1.2270    4.7940 C.3       9 GLL5        0.0000 
     26 CA         24.4930    0.5550    8.9360 C.3       6 GLP5        0.0000 
     27 CA         29.2250    4.3080    5.7735 C.3       3 GLC5        0.0000 
     28 CA         28.2040    2.5100    5.0490 C.3       9 GLL5        0.0000 
     29 CA         30.7670    2.1065    4.1090 C.3       3 GLC5        0.0000 
     30 CA         29.0520    1.3570    4.5460 C.3       9 GLL5        0.0000 
     31 CA         32.4820    2.8560    3.6720 C.3       6 GLP5        0.0000 
     32 CA         27.9360    1.2195    2.5405 C.3       3 GLC5        0.0000 
     33 CA         26.8670    0.0820    4.1570 C.3       9 GLL5        0.0000 
     34 CA         29.0050    2.3570    0.9240 C.3       6 GLP5        0.0000 
     35 CA         25.2420   -1.5575    2.5610 C.3       3 GLC5        0.0000 
     36 CA         26.3590   -1.3550    4.3930 C.3       9 GLL5        0.0000 
     37 CA         24.1250   -1.7600    0.7290 C.3       6 GLP5        0.0000 
     38 CA         24.4310   -1.9755    4.6450 C.3       3 GLC5        0.0000 
     39 CA         22.5030   -2.5960    4.8970 C.3       6 GLP5        0.0000 
     40 CA         26.4215   -2.6350    2.1120 C.3       3 GLC5        0.0000 
     41 CA         27.5850   -2.2170    3.9650 C.3       9 GLL5        0.0000 
     42 CA         25.2580   -3.0530    0.2590 C.3       6 GLP5        0.0000 
     43 CA         27.3320   -4.0185    3.3780 C.3       3 GLC5        0.0000 
     44 CA         27.0790   -5.8200    2.7910 C.3       6 GLP5        0.0000 
     45 N          30.1475   -2.3990    5.8140 N.am      2 SEC2        0.0000 
     46 N          29.9720   -1.8590    4.3280 N.am      8 SEL2        0.0000 
     47 N          30.3230   -2.9390    7.3000 N.am      5 SEP2        0.0000 
     48 O          30.9760   -0.8810    4.1840 O.2       1 ALC1        0.0000 
     49 O          29.9720   -1.8590    4.3280 O.2       7 ALL1        0.0000 
     50 O          31.9800    0.0970    4.0400 O.2       4 ALP1        0.0000 
     51 CA         28.5615    0.3550    8.3590 C.3       3 GLC5        0.0000 
     52 CA         28.3970   -0.3890    6.2690 C.3       9 GLL5        0.0000 
     53 CA         28.7260    1.0990   10.4490 C.3       6 GLP5        0.0000 
     54 CA         27.0930   -0.5385    7.5870 C.3       3 GLC5        0.0000 
     55 CA         25.7890   -0.6880    8.9050 C.3       6 GLP5        0.0000 
     56 CA         28.7655   -2.0610    6.8140 C.3       3 GLC5        0.0000 
     57 CA         29.1340   -3.7330    7.3590 C.3       6 GLP5        0.0000 
     58 CA         27.0930    3.0360    8.4180 C.3       3 GLC5        0.0000 
     59 CA         25.8750    3.6730    6.6900 C.3       9 GLL5        0.0000 
     60 CA         28.3110    2.3990   10.1460 C.3       6 GLP5        0.0000 
     61 CA         25.1840    2.1140    7.8130 C.3       3 GLC5        0.0000 
     62 CA         26.3110    4.9910    7.8190 C.3       3 GLC5        0.0000 
     63 CA         26.7470    6.3090    8.9480 C.3       6 GLP5        0.0000 
     64 CA         26.6655    6.9555    3.3902 C.3       3 GLC5        0.0000 
     65 CA         27.1210    8.0720    1.7780 C.3       6 GLP5        0.0000 
     66 CA         26.4785    6.0740    6.9753 C.3       3 GLC5        0.0000 
     67 CA         23.0355    0.5907    5.4573 C.3       3 GLC5        0.0000 
     68 CA         21.9170   -0.6780    6.3850 C.3       6 GLP5        0.0000 
     69 CA         23.4971    2.9715    2.8213 C.3       3 GLC5        0.0000 
     70 CA         24.5710    1.2740    4.2370 C.3       9 GLL5        0.0000 
     71 CA         22.6640    3.7420    1.1890 C.3       6 GLP5        0.0000 
     72 CA         28.6324    2.1561    2.7940 C.3       3 GLC5        0.0000 
     73 CA         28.8580   -2.1040    2.1055 C.3       3 GLC5        0.0000 
     74 CA         28.7610   -1.2050    3.8750 C.3       9 GLL5        0.0000 
     75 CA         29.5430   -2.4970    0.2910 C.3       6 GLP5        0.0000 
     76 CA         28.6535   -2.7220    5.6395 C.3       3 GLC5        0.0000 
@<TRIPOS>BOND
@<TRIPOS>SUBSTRUCTURE
     1 ALC1       48 GROUP        1 X    ALC  0     ROOT ALC X 1
     2 SEC2        7 GROUP        1 X    SEC  0     **** SEC X 2
     3 GLC5        1 GROUP        1 X    GLC  0     **** GLC X 6
     4 ALP1       50 GROUP        1 Y    ALP  0     ROOT ALP Y 8
     5 SEP2        9 GROUP        1 Y    SEP  0     **** SEP Y 9
     6 GLP5        3 GROUP        1 Y    GLP  0     **** GLP Y 13
     7 ALL1       49 GROUP        1 Z    ALL  0     ROOT ALL Z 15
     8 SEL2        8 GROUP        1 Z    SEL  0     **** SEL Z 16
     9 GLL5        2 GROUP        1 Z    GLL  0     **** GLL Z 20
@<TRIPOS>SET

