#    Name: 2qpy_DHT_1_ligand
#    Modification time : Mon Mar 24 22:35:42 2014

@<TRIPOS>MOLECULE
2qpy_DHT_1_ligand
   51    54     1     0     0
SMALL
NO_CHARGES


@<TRIPOS>ATOM
      1 C1         26.5790    5.2040    4.7540 C.3       1 DHT931      0.0000 
      2 C2         25.8410    6.4740    5.2510 C.3       1 DHT931      0.0000 
      3 C3         24.3790    6.3210    4.7660 C.2       1 DHT931      0.0000 
      4 O3         23.8760    7.2830    4.1350 O.2       1 DHT931      0.0000 
      5 C4         23.6430    5.0540    5.0510 C.3       1 DHT931      0.0000 
      6 C5         24.4420    3.8110    4.5180 C.3       1 DHT931      0.0000 
      7 C6         23.7370    2.4450    4.8220 C.3       1 DHT931      0.0000 
      8 C7         24.5710    1.2740    4.2370 C.3       1 DHT931      0.0000 
      9 C8         26.0280    1.2270    4.7940 C.3       1 DHT931      0.0000 
     10 C9         26.7310    2.5970    4.5150 C.3       1 DHT931      0.0000 
     11 C10        25.9380    3.8350    5.1240 C.3       1 DHT931      0.0000 
     12 C11        28.2040    2.5100    5.0490 C.3       1 DHT931      0.0000 
     13 C12        29.0520    1.3570    4.5460 C.3       1 DHT931      0.0000 
     14 C13        28.3440   -0.0210    4.7210 C.3       1 DHT931      0.0000 
     15 C14        26.8670    0.0820    4.1570 C.3       1 DHT931      0.0000 
     16 C15        26.3590   -1.3550    4.3930 C.3       1 DHT931      0.0000 
     17 C16        27.5850   -2.2170    3.9650 C.3       1 DHT931      0.0000 
     18 C17        28.7610   -1.2050    3.8750 C.3       1 DHT931      0.0000 
     19 O17        29.9720   -1.8590    4.3280 O.3       1 DHT931      0.0000 
     20 C18        28.3970   -0.3890    6.2690 C.3       1 DHT931      0.0000 
     21 C19        25.8750    3.6730    6.6900 C.3       1 DHT931      0.0000 
     22 H          27.6152    5.2215    5.1488 H         1 DHT931      0.0000 
     23 H          26.6703    5.2588    3.6502 H         1 DHT931      0.0000 
     24 H          26.2759    7.3336    4.8034 H         1 DHT931      0.0000 
     25 H          25.8622    6.5026    6.3127 H         1 DHT931      0.0000 
     26 H          22.6697    5.0547    4.5637 H         1 DHT931      0.0000 
     27 H          23.5023    4.9216    6.1222 H         1 DHT931      0.0000 
     28 H          24.5497    3.9150    3.4423 H         1 DHT931      0.0000 
     29 H          22.7592    2.4501    4.3670 H         1 DHT931      0.0000 
     30 H          23.6551    2.3269    5.8909 H         1 DHT931      0.0000 
     31 H          24.6154    1.3771    3.1511 H         1 DHT931      0.0000 
     32 H          24.0754    0.3309    4.4754 H         1 DHT931      0.0000 
     33 H          25.9905    1.0854    5.8557 H         1 DHT931      0.0000 
     34 H          26.7833    2.7274    3.4372 H         1 DHT931      0.0000 
     35 H          28.1540    2.4758    6.1604 H         1 DHT931      0.0000 
     36 H          28.7049    3.4731    4.8032 H         1 DHT931      0.0000 
     37 H          29.9985    1.3262    5.0923 H         1 DHT931      0.0000 
     38 H          29.2735    1.4945    3.4842 H         1 DHT931      0.0000 
     39 H          26.9692    0.2221    3.0914 H         1 DHT931      0.0000 
     40 H          25.5512   -1.5592    3.7545 H         1 DHT931      0.0000 
     41 H          26.1688   -1.5050    5.4145 H         1 DHT931      0.0000 
     42 H          27.4041   -2.6353    3.0116 H         1 DHT931      0.0000 
     43 H          27.7901   -2.9323    4.7153 H         1 DHT931      0.0000 
     44 H          28.8230   -0.9000    2.8488 H         1 DHT931      0.0000 
     45 H          29.3372   -0.4504    6.6042 H         1 DHT931      0.0000 
     46 H          27.9300    0.2949    6.8295 H         1 DHT931      0.0000 
     47 H          27.9609   -1.2691    6.4567 H         1 DHT931      0.0000 
     48 H          26.7842    3.7133    7.1044 H         1 DHT931      0.0000 
     49 H          25.3266    4.3925    7.1160 H         1 DHT931      0.0000 
     50 H          25.4697    2.7986    6.9569 H         1 DHT931      0.0000 
     51 H          30.6901   -1.1699    4.2306 H         1 DHT931      0.0000 
@<TRIPOS>BOND
     1    2    1 1    
     2   11    1 1    
     3   22    1 1    
     4   23    1 1    
     5    3    2 1    
     6   24    2 1    
     7   25    2 1    
     8    4    3 2    
     9    5    3 1    
    10    6    5 1    
    11   26    5 1    
    12   27    5 1    
    13    7    6 1    
    14   11    6 1    
    15   28    6 1    
    16    8    7 1    
    17   29    7 1    
    18   30    7 1    
    19    9    8 1    
    20   31    8 1    
    21   32    8 1    
    22   10    9 1    
    23   15    9 1    
    24   33    9 1    
    25   11   10 1    
    26   12   10 1    
    27   34   10 1    
    28   21   11 1    
    29   13   12 1    
    30   35   12 1    
    31   36   12 1    
    32   14   13 1    
    33   37   13 1    
    34   38   13 1    
    35   15   14 1    
    36   18   14 1    
    37   20   14 1    
    38   16   15 1    
    39   39   15 1    
    40   17   16 1    
    41   40   16 1    
    42   41   16 1    
    43   18   17 1    
    44   42   17 1    
    45   43   17 1    
    46   19   18 1    
    47   44   18 1    
    48   51   19 1    
    49   45   20 1    
    50   46   20 1    
    51   47   20 1    
    52   48   21 1    
    53   49   21 1    
    54   50   21 1    
@<TRIPOS>SUBSTRUCTURE
     1 DHT931      1 GROUP   
@<TRIPOS>SET

