#    Name: 2l8r_APR_1_INTS_M
#    Modification time : Tue Mar 25 21:16:47 2014

@<TRIPOS>MOLECULE
2l8r_APR_1_INTS_M
   52     0     9     0     0
SMALL
NO_CHARGES


@<TRIPOS>ATOM
      1 N           0.2125    2.1090  -11.0915 N.am      2 SEC2        0.0000 
      2 N           0.8360    0.9430  -11.2430 N.am      8 SEL2        0.0000 
      3 N          -0.4110    3.2750  -10.9400 N.am      5 SEP2        0.0000 
      4 CA         -0.5545    1.8480  -12.2205 C.3       3 GLC5        0.0000 
      5 CA         -0.2710    0.2020  -11.1360 C.3       9 GLL5        0.0000 
      6 CA         -0.8380    3.4940  -13.3050 C.3       6 GLP5        0.0000 
      7 CA         -0.1345    1.3120   -9.9075 C.3       3 GLC5        0.0000 
      8 CA          0.0020    2.4220   -8.6790 C.3       6 GLP5        0.0000 
      9 CA          1.2080   -0.3135   -9.7520 C.3       3 GLC5        0.0000 
     10 CA          2.6870   -0.8290   -8.3680 C.3       6 GLP5        0.0000 
     11 CA         -1.9440    0.8930  -10.4145 C.3       3 GLC5        0.0000 
     12 CA         -3.6170    1.5840   -9.6930 C.3       6 GLP5        0.0000 
     13 CA         -0.6070   -0.3650  -12.7250 C.3       3 GLC5        0.0000 
     14 CA         -0.9430   -0.9320  -14.3140 C.3       6 GLP5        0.0000 
     15 CA          1.0145    1.3910  -10.0685 C.3       3 GLC5        0.0000 
     16 CA          2.0270    0.3600  -11.4580 C.3       9 GLL5        0.0000 
     17 CA         -0.4125   -3.2770  -13.1035 C.3       3 GLC5        0.0000 
     18 CA          0.2440   -4.1370  -11.5980 C.3       9 GLL5        0.0000 
     19 CA         -1.0690   -2.4170  -14.6090 C.3       6 GLP5        0.0000 
     20 O          -0.6720   -5.6300  -13.9130 O.2       1 ALC1        0.0000 
     21 O           0.4740   -6.0020  -13.1510 O.2       7 ALL1        0.0000 
     22 O          -1.8180   -5.2580  -14.6750 O.2       4 ALP1        0.0000 
     23 CA         -1.6450   -5.9835   -8.7050 C.3       3 GLC5        0.0000 
     24 CA          0.2050   -5.3900   -9.6620 C.3       9 GLL5        0.0000 
     25 CA         -3.4950   -6.5770   -7.7480 C.3       6 GLP5        0.0000 
     26 CA          2.7075   -4.1745   -8.1030 C.3       3 GLC5        0.0000 
     27 CA          1.4710   -4.9890   -8.8750 C.3       9 GLL5        0.0000 
     28 CA          3.9440   -3.3600   -7.3310 C.3       6 GLP5        0.0000 
     29 N           0.5245   -8.4770   -3.1500 N.am      2 SEC2        0.0000 
     30 N           1.6980   -7.8310   -3.2660 N.am      8 SEL2        0.0000 
     31 N          -0.6490   -9.1230   -3.0340 N.am      5 SEP2        0.0000 
     32 CA          3.9950   -7.3545   -1.5195 C.3       3 GLC5        0.0000 
     33 CA          4.7890   -7.8600   -3.4690 C.3       9 GLL5        0.0000 
     34 CA          3.2010   -6.8490    0.4300 C.3       6 GLP5        0.0000 
     35 O           8.2915   -6.9530   -5.7960 O.2       1 ALC1        0.0000 
     36 O           7.6530   -7.2980   -4.2280 O.2       7 ALL1        0.0000 
     37 O           8.9300   -6.6080   -7.3640 O.2       4 ALP1        0.0000 
     38 CA          7.4580  -10.6095   -4.9890 C.3       3 GLC5        0.0000 
     39 CA          7.6960   -8.7200   -3.9100 C.3       9 GLL5        0.0000 
     40 CA          7.2200  -12.4990   -6.0680 C.3       6 GLP5        0.0000 
     41 CA          2.2306   -0.6681   -9.9256 C.3       3 GLC5        0.0000 
     42 CA          0.9480   -1.7380  -11.4520 C.3       9 GLL5        0.0000 
     43 CA          1.1371   -0.4971  -12.9681 C.3       3 GLC5        0.0000 
     44 CA          2.0950   -1.0110  -11.5650 C.3       9 GLL5        0.0000 
     45 CA          0.5000   -0.4870  -14.4530 C.3       6 GLP5        0.0000 
     46 CA          0.2430   -3.8022   -8.1668 C.3       3 GLC5        0.0000 
     47 CA         -0.3520   -2.4150   -7.0650 C.3       6 GLP5        0.0000 
     48 CA          7.3730   -7.8152   -0.8290 C.3       3 GLC5        0.0000 
     49 CA          6.3250   -9.2210   -1.9450 C.3       9 GLL5        0.0000 
     50 CA          7.6870   -6.5630    0.4890 C.3       6 GLP5        0.0000 
     51 CA          4.3807  -10.3189   -2.5282 C.3       3 GLC5        0.0000 
     52 CA          3.0140  -11.7600   -2.3870 C.3       6 GLP5        0.0000 
@<TRIPOS>BOND
@<TRIPOS>SUBSTRUCTURE
     1 ALC1       20 GROUP        1 X    ALC  0     ROOT ALC X 1
     2 SEC2        1 GROUP        1 X    SEC  0     **** SEC X 2
     3 GLC5        4 GROUP        1 X    GLC  0     **** GLC X 6
     4 ALP1       22 GROUP        1 Y    ALP  0     ROOT ALP Y 8
     5 SEP2        3 GROUP        1 Y    SEP  0     **** SEP Y 9
     6 GLP5        6 GROUP        1 Y    GLP  0     **** GLP Y 13
     7 ALL1       21 GROUP        1 Z    ALL  0     ROOT ALL Z 15
     8 SEL2        2 GROUP        1 Z    SEL  0     **** SEL Z 16
     9 GLL5        5 GROUP        1 Z    GLL  0     **** GLL Z 20
@<TRIPOS>SET

