#    Name: 2l8r_APR_1_ligand
#    Modification time : Tue Mar 25 21:16:47 2014

@<TRIPOS>MOLECULE
2l8r_APR_1_ligand
   57    60     1     0     0
SMALL
NO_CHARGES


@<TRIPOS>ATOM
      1 N1          0.8360    0.9430  -11.2430 N.ar      1 APR186      0.0000 
      2 C2         -0.2710    0.2020  -11.1360 C.ar      1 APR186      0.0000 
      3 N3         -0.2180   -1.1160  -11.2390 N.ar      1 APR186      0.0000 
      4 C4          0.9480   -1.7380  -11.4520 C.ar      1 APR186      0.0000 
      5 C5          2.0950   -1.0110  -11.5650 C.ar      1 APR186      0.0000 
      6 C6          2.0270    0.3600  -11.4580 C.ar      1 APR186      0.0000 
      7 N6          3.1220    1.0950  -11.5660 N.pl3     1 APR186      0.0000 
      8 N7          3.0990   -1.8560  -11.7690 N.2       1 APR186      0.0000 
      9 C8          2.5900   -3.0920  -11.7890 C.2       1 APR186      0.0000 
     10 N9          1.2530   -3.0040  -11.6000 N.pl3     1 APR186      0.0000 
     11 C1'         0.2440   -4.1370  -11.5980 C.3       1 APR186      0.0000 
     12 C2'         0.9610   -5.4970  -11.9560 C.3       1 APR186      0.0000 
     13 O2'         0.4740   -6.0020  -13.1510 O.3       1 APR186      0.0000 
     14 C3'         0.5790   -6.4180  -10.7740 C.3       1 APR186      0.0000 
     15 O3'        -0.5130   -7.2200  -11.0970 O.3       1 APR186      0.0000 
     16 O4'        -0.4030   -4.2820  -10.3290 O.3       1 APR186      0.0000 
     17 C4'         0.2050   -5.3900   -9.6620 C.3       1 APR186      0.0000 
     18 C5'         1.4710   -4.9890   -8.8750 C.3       1 APR186      0.0000 
     19 O5'         1.4400   -5.5410   -7.5470 O.3       1 APR186      0.0000 
     20 PA          2.2890   -6.8730   -7.2060 P.3       1 APR186      0.0000 
     21 O1A         3.7600   -6.6230   -7.0980 O.co2     1 APR186      0.0000 
     22 O2A         1.9750   -7.9300   -8.3930 O.co2     1 APR186      0.0000 
     23 O3A         1.6830   -7.5010   -5.8540 O.3       1 APR186      0.0000 
     24 PB          2.4300   -7.2690   -4.4420 P.3       1 APR186      0.0000 
     25 O1B         1.6980   -7.8310   -3.2660 O.co2     1 APR186      0.0000 
     26 O2B         2.6470   -5.6710   -4.2760 O.co2     1 APR186      0.0000 
     27 O5D         3.8950   -7.8990   -4.5800 O.3       1 APR186      0.0000 
     28 C5D         4.7890   -7.8600   -3.4690 C.3       1 APR186      0.0000 
     29 O4D         6.5160   -9.4000   -4.3380 O.3       1 APR186      0.0000 
     30 O1D         7.6530   -7.2980   -4.2280 O.3       1 APR186      0.0000 
     31 C1D         7.6960   -8.7200   -3.9100 C.3       1 APR186      0.0000 
     32 O2D         8.6280   -9.9870   -2.0320 O.3       1 APR186      0.0000 
     33 C2D         7.7930   -8.9140   -2.3490 C.3       1 APR186      0.0000 
     34 O3D         6.1800  -10.4230   -1.2610 O.3       1 APR186      0.0000 
     35 C3D         6.3250   -9.2210   -1.9450 C.3       1 APR186      0.0000 
     36 C4D         5.5510   -9.2090   -3.3190 C.3       1 APR186      0.0000 
     37 H          -1.1958    0.6795  -10.9673 H         1 APR186      0.0000 
     38 H           3.0027    2.0815  -11.4535 H         1 APR186      0.0000 
     39 H           3.9696    0.5974  -11.7503 H         1 APR186      0.0000 
     40 H           3.0839   -3.9132  -11.9159 H         1 APR186      0.0000 
     41 H          -0.4787   -3.9627  -12.3884 H         1 APR186      0.0000 
     42 H           1.9974   -5.3212  -11.9142 H         1 APR186      0.0000 
     43 H           1.4471   -6.9220  -10.4609 H         1 APR186      0.0000 
     44 H          -0.4791   -5.8822   -8.9993 H         1 APR186      0.0000 
     45 H           1.5139   -3.8928   -8.8572 H         1 APR186      0.0000 
     46 H           2.3387   -5.3477   -9.4427 H         1 APR186      0.0000 
     47 H           4.2631   -7.6827   -2.5207 H         1 APR186      0.0000 
     48 H           5.5490   -7.0738   -3.5768 H         1 APR186      0.0000 
     49 H           8.5799   -9.1805   -4.3201 H         1 APR186      0.0000 
     50 H           8.0573   -7.9852   -1.9336 H         1 APR186      0.0000 
     51 H           5.9689   -8.3526   -1.4046 H         1 APR186      0.0000 
     52 H           4.8351  -10.0043   -3.2745 H         1 APR186      0.0000 
     53 H          -0.3696   -5.4930  -13.3223 H         1 APR186      0.0000 
     54 H          -0.5658   -7.1952  -12.0953 H         1 APR186      0.0000 
     55 H           8.0580   -7.2244   -5.1393 H         1 APR186      0.0000 
     56 H           8.0140  -10.7038   -1.7017 H         1 APR186      0.0000 
     57 H           6.4100  -10.2097   -0.3115 H         1 APR186      0.0000 
@<TRIPOS>BOND
     1    2    1 ar   
     2    6    1 ar   
     3    3    2 ar   
     4   37    2 1    
     5    4    3 ar   
     6    5    4 ar   
     7   10    4 1    
     8    6    5 ar   
     9    8    5 1    
    10    7    6 1    
    11   38    7 1    
    12   39    7 1    
    13    9    8 2    
    14   10    9 1    
    15   40    9 1    
    16   11   10 1    
    17   12   11 1    
    18   16   11 1    
    19   41   11 1    
    20   13   12 1    
    21   14   12 1    
    22   42   12 1    
    23   53   13 1    
    24   15   14 1    
    25   17   14 1    
    26   43   14 1    
    27   54   15 1    
    28   17   16 1    
    29   18   17 1    
    30   44   17 1    
    31   19   18 1    
    32   45   18 1    
    33   46   18 1    
    34   20   19 1    
    35   21   20 ar   
    36   22   20 ar   
    37   23   20 1    
    38   24   23 1    
    39   25   24 ar   
    40   26   24 ar   
    41   27   24 1    
    42   28   27 1    
    43   36   28 1    
    44   47   28 1    
    45   48   28 1    
    46   31   29 1    
    47   36   29 1    
    48   31   30 1    
    49   55   30 1    
    50   33   31 1    
    51   49   31 1    
    52   33   32 1    
    53   56   32 1    
    54   35   33 1    
    55   50   33 1    
    56   35   34 1    
    57   57   34 1    
    58   36   35 1    
    59   51   35 1    
    60   52   36 1    
@<TRIPOS>SUBSTRUCTURE
     1 APR186      1 GROUP   
@<TRIPOS>SET

