#    Name: 4I12_1_CAVITY_N1_ALL.mol2
#    Modification time : Tue Mar 11 03:57:48 2014

@<TRIPOS>MOLECULE
4I12_1_CAVITY_N1_ALL.mol2
  101     0     6     0     0
SMALL
NO_CHARGES


@<TRIPOS>ATOM
      1 N           5.9348  -14.3804    6.9599 N.2       2 ALA2        0.0000 
      2 N           7.8052  -15.2507    4.3152 N.2       2 ALA2        0.0000 
      3 CA          5.7815  -15.7877    6.4638 C.3       5 GLY6        0.0000 
      4 CZ         10.2202  -12.6120    5.1549 C.ar      4 PHE5        0.0000 
      5 N           9.2084  -12.8805    6.2292 N.2       2 ALA2        0.0000 
      6 N           8.1965  -13.1490    7.3035 N.2       2 ALA2        0.0000 
      7 N          10.0669  -14.0193    4.6589 N.2       2 ALA2        0.0000 
      8 N           9.0551  -14.2878    5.7332 N.2       2 ALA2        0.0000 
      9 N           8.0433  -14.5563    6.8075 N.2       2 ALA2        0.0000 
     10 N           7.0314  -14.8248    7.8817 N.2       2 ALA2        0.0000 
     11 CA          6.0196  -15.0933    8.9560 C.3       5 GLY6        0.0000 
     12 N          10.9255  -15.1581    3.0885 N.2       2 ALA2        0.0000 
     13 N           8.9018  -15.6951    5.2371 N.2       2 ALA2        0.0000 
     14 N           7.8900  -15.9636    6.3114 N.2       2 ALA2        0.0000 
     15 CA          6.8782  -16.2320    7.3857 C.3       5 GLY6        0.0000 
     16 CA          5.8663  -16.5005    8.4600 C.3       5 GLY6        0.0000 
     17 DU          7.7368  -17.3708    5.8153 H         6 CUB7        0.0000 
     18 CZ          8.4346  -12.4546    9.7957 C.ar      4 PHE5        0.0000 
     19 CZ         11.3169  -13.0564    6.0768 C.ar      4 PHE5        0.0000 
     20 CZ         10.3050  -13.3249    7.1511 C.ar      4 PHE5        0.0000 
     21 N           9.2932  -13.5934    8.2254 N.2       2 ALA2        0.0000 
     22 N           8.2814  -13.8619    9.2997 N.2       2 ALA2        0.0000 
     23 CZ         12.1755  -14.1952    4.5064 C.ar      4 PHE5        0.0000 
     24 CZ         11.1636  -14.4637    5.5807 C.ar      4 PHE5        0.0000 
     25 DU         10.1518  -14.7322    6.6550 H         6 CUB7        0.0000 
     26 DU          9.1399  -15.0007    7.7293 H         6 CUB7        0.0000 
     27 N           8.1281  -15.2692    8.8036 N.2       2 ALA2        0.0000 
     28 CZ          7.1163  -15.5376    9.8779 C.ar      4 PHE5        0.0000 
     29 DU         11.0104  -15.8710    5.0847 H         6 CUB7        0.0000 
     30 DU          7.9748  -16.6764    8.3075 H         6 CUB7        0.0000 
     31 CA          6.9630  -16.9449    9.3818 C.3       5 GLY6        0.0000 
     32 CA          6.8098  -18.3522    8.8858 C.3       5 GLY6        0.0000 
     33 CA          5.7979  -18.6207    9.9601 C.3       5 GLY6        0.0000 
     34 CZ         11.5550  -12.3620    8.5690 C.ar      4 PHE5        0.0000 
     35 CZ         10.5431  -12.6305    9.6433 C.ar      4 PHE5        0.0000 
     36 CZ          9.5313  -12.8990   10.7176 C.ar      4 PHE5        0.0000 
     37 CZ         12.4136  -13.5008    6.9987 C.ar      4 PHE5        0.0000 
     38 CZ         11.4017  -13.7693    8.0730 C.ar      4 PHE5        0.0000 
     39 DU         10.3899  -14.0378    9.1472 H         6 CUB7        0.0000 
     40 CZ          9.3780  -14.3063   10.2215 C.ar      4 PHE5        0.0000 
     41 CZ          8.3662  -14.5748   11.2958 C.ar      4 PHE5        0.0000 
     42 CZ         12.2603  -14.9081    6.5026 C.ar      4 PHE5        0.0000 
     43 DU         11.2485  -15.1766    7.5769 H         6 CUB7        0.0000 
     44 DU         10.2366  -15.4451    8.6512 H         6 CUB7        0.0000 
     45 DU          9.2248  -15.7135    9.7255 H         6 CUB7        0.0000 
     46 CZ          8.2129  -15.9820   10.7998 C.ar      4 PHE5        0.0000 
     47 CZ          7.2011  -16.2505   11.8740 C.ar      4 PHE5        0.0000 
     48 CZ         14.1307  -15.7784    3.8580 C.ar      4 PHE5        0.0000 
     49 CZ         13.1189  -16.0469    4.9322 C.ar      4 PHE5        0.0000 
     50 DU         12.1070  -16.3154    6.0065 H         6 CUB7        0.0000 
     51 DU         11.0952  -16.5838    7.0808 H         6 CUB7        0.0000 
     52 N          10.0834  -16.8523    8.1551 N.2       2 ALA2        0.0000 
     53 DU          9.0715  -17.1208    9.2294 H         6 CUB7        0.0000 
     54 DU          8.0597  -17.3893   10.3037 H         6 CUB7        0.0000 
     55 CA          7.0478  -17.6578   11.3780 C.3       5 GLY6        0.0000 
     56 DU         10.9419  -17.9911    6.5848 H         6 CUB7        0.0000 
     57 DU          9.9301  -18.2596    7.6590 H         6 CUB7        0.0000 
     58 DU          8.9183  -18.5281    8.7333 H         6 CUB7        0.0000 
     59 N           7.9064  -18.7966    9.8076 N.2       2 ALA2        0.0000 
     60 N           6.8946  -19.0651   10.8819 N.2       2 ALA2        0.0000 
     61 OG          7.7532  -20.2039    9.3116 O.2       1 SER1        0.0000 
     62 OG         12.6517  -12.8064    9.4909 O.2       1 SER1        0.0000 
     63 CA         11.6398  -13.0749   10.5652 C.3       5 GLY6        0.0000 
     64 CA         10.6280  -13.3434   11.6395 C.3       5 GLY6        0.0000 
     65 CZ         13.5102  -13.9452    7.9205 C.ar      4 PHE5        0.0000 
     66 CZ         12.4984  -14.2137    8.9948 C.ar      4 PHE5        0.0000 
     67 N          11.4866  -14.4822   10.0691 N.2       2 ALA2        0.0000 
     68 CA         10.4747  -14.7507   11.1434 C.3       5 GLY6        0.0000 
     69 CZ         14.3688  -15.0840    6.3502 C.ar      4 PHE5        0.0000 
     70 CZ         13.3570  -15.3525    7.4245 C.ar      4 PHE5        0.0000 
     71 N          12.3451  -15.6210    8.4987 N.2       2 ALA2        0.0000 
     72 N          11.3333  -15.8894    9.5730 N.2       2 ALA2        0.0000 
     73 N          10.3215  -16.1579   10.6473 N.2       2 ALA2        0.0000 
     74 CA          9.3096  -16.4264   11.7216 C.3       5 GLY6        0.0000 
     75 N           8.2978  -16.6949   12.7959 N.2       2 ALA2        0.0000 
     76 DU         13.2037  -16.7597    6.9284 H         6 CUB7        0.0000 
     77 N          12.1919  -17.0282    8.0027 N.2       2 ALA2        0.0000 
     78 N          10.1682  -17.5652   10.1513 N.2       2 ALA2        0.0000 
     79 N           9.1564  -17.8337   11.2255 N.2       2 ALA2        0.0000 
     80 N           8.1445  -18.1022   12.2998 N.2       2 ALA2        0.0000 
     81 DU         14.0623  -17.8985    5.3580 H         6 CUB7        0.0000 
     82 N          12.0386  -18.4355    7.5066 N.2       2 ALA2        0.0000 
     83 N          11.0268  -18.7040    8.5809 N.2       2 ALA2        0.0000 
     84 N          10.0149  -18.9725    9.6552 N.2       2 ALA2        0.0000 
     85 OG          9.0031  -19.2410   10.7295 O.2       1 SER1        0.0000 
     86 N           7.9913  -19.5095   11.8038 N.2       2 ALA2        0.0000 
     87 CA         12.7365  -13.5193   11.4870 C.3       5 GLY6        0.0000 
     88 CZ         14.6069  -14.3896    8.8424 C.ar      4 PHE5        0.0000 
     89 NZ         13.5951  -14.6581    9.9167 N.2       3 LYS4        0.0000 
     90 N          12.5832  -14.9266   10.9910 N.2       2 ALA2        0.0000 
     91 N          14.4536  -15.7969    8.3463 N.2       2 ALA2        0.0000 
     92 CA         10.4063  -16.8708   12.6435 C.3       5 GLY6        0.0000 
     93 CA          9.3945  -17.1393   13.7178 C.3       5 GLY6        0.0000 
     94 OG         14.3004  -17.2041    7.8503 O.2       1 SER1        0.0000 
     95 N          10.2530  -18.2781   12.1474 N.2       2 ALA2        0.0000 
     96 CA          9.2412  -18.5466   13.2217 C.3       5 GLY6        0.0000 
     97 OG         10.0998  -19.6854   11.6513 O.2       1 SER1        0.0000 
     98 N           9.0879  -19.9539   12.7256 N.2       2 ALA2        0.0000 
     99 N          11.3497  -18.7225   13.0693 N.2       2 ALA2        0.0000 
    100 CA         10.3379  -18.9910   14.1436 C.3       5 GLY6        0.0000 
    101 N          10.1846  -20.3982   13.6475 N.2       2 ALA2        0.0000 
@<TRIPOS>BOND
@<TRIPOS>SUBSTRUCTURE
     1 SER1       61 GROUP   
     2 ALA2        1 GROUP   
     3 LYS4       89 GROUP   
     4 PHE5        4 GROUP   
     5 GLY6        3 GROUP   
     6 CUB7       17 GROUP   
@<TRIPOS>SET

