#    Name: 4i12_1BC_1_INTS_M
#    Modification time : Tue Mar 25 02:10:58 2014

@<TRIPOS>MOLECULE
4i12_1BC_1_INTS_M
   72     0     9     0     0
SMALL
NO_CHARGES


@<TRIPOS>ATOM
      1 CA          9.4500  -11.0195    2.6720 C.3       3 GLC5        0.0000 
      2 CA          9.9810  -11.2150    4.3850 C.3       9 GLL5        0.0000 
      3 CA          8.9190  -10.8240    0.9590 C.3       6 GLP5        0.0000 
      4 CA         10.1895   -9.4775    3.5025 C.3       3 GLC5        0.0000 
      5 CA         10.3980   -7.7400    2.6200 C.3       6 GLP5        0.0000 
      6 CA          9.6325  -10.6095    6.1925 C.3       3 GLC5        0.0000 
      7 CA          9.2840  -10.0040    8.0000 C.3       6 GLP5        0.0000 
      8 CA          8.4510  -11.7395    5.9995 C.3       3 GLC5        0.0000 
      9 CA         10.2980  -12.6850    5.3870 C.3       9 GLL5        0.0000 
     10 CA          6.6040  -10.7940    6.6120 C.3       6 GLP5        0.0000 
     11 O          12.1470  -16.8655    9.8705 O.2       1 ALC1        0.0000 
     12 O          11.5550  -15.8350    8.9990 O.2       7 ALL1        0.0000 
     13 O          12.7390  -17.8960   10.7420 O.2       4 ALP1        0.0000 
     14 CA         11.6730  -14.2965   12.2690 C.3       3 GLC5        0.0000 
     15 CA         12.6600  -14.5370   10.4690 C.3       9 GLL5        0.0000 
     16 CA         10.6860  -14.0560   14.0690 C.3       6 GLP5        0.0000 
     17 CA         13.0575  -12.6350   11.3460 C.3       3 GLC5        0.0000 
     18 CA         13.4550  -10.7330   12.2230 C.3       6 GLP5        0.0000 
     19 CA         13.3330  -15.9885   11.6190 C.3       3 GLC5        0.0000 
     20 CA         14.0060  -17.4400   12.7690 C.3       6 GLP5        0.0000 
     21 CA         10.5985  -13.9650   12.2080 C.3       3 GLC5        0.0000 
     22 CA         10.5110  -13.8740   10.3470 C.3       9 GLL5        0.0000 
     23 CA         10.3310  -11.8830    9.7185 C.3       3 GLC5        0.0000 
     24 CA         10.1510   -9.8920    9.0900 C.3       6 GLP5        0.0000 
     25 CA          8.7460  -13.0880   11.1870 C.3       3 GLC5        0.0000 
     26 CA          6.9810  -12.3020   12.0270 C.3       6 GLP5        0.0000 
     27 CA         13.4925  -12.9270    7.4115 C.3       3 GLC5        0.0000 
     28 CA         12.2820  -13.5050    8.4920 C.3       9 GLL5        0.0000 
     29 CA         14.7030  -12.3490    6.3310 C.3       6 GLP5        0.0000 
     30 CA         11.2165  -11.6985    8.7910 C.3       3 GLC5        0.0000 
     31 CA         12.3425  -19.4395    9.2835 C.3       3 GLC5        0.0000 
     32 CA         10.7420  -18.4690    8.1950 C.3       9 GLL5        0.0000 
     33 CA         13.9430  -20.4100   10.3720 C.3       6 GLP5        0.0000 
     34 CA          6.6655  -18.1300   12.7200 C.3       3 GLC5        0.0000 
     35 CA          8.1410  -16.8760   11.8430 C.3       9 GLL5        0.0000 
     36 CA          5.1900  -19.3840   13.5970 C.3       6 GLP5        0.0000 
     37 CA          8.1195  -17.7365   13.9000 C.3       3 GLC5        0.0000 
     38 CA          8.0980  -18.5970   15.9570 C.3       6 GLP5        0.0000 
     39 CA          8.7965  -16.1680   13.7390 C.3       3 GLC5        0.0000 
     40 CA          9.4520  -15.4600   15.6350 C.3       6 GLP5        0.0000 
     41 CA         11.9185  -19.7910   11.0215 C.3       3 GLC5        0.0000 
     42 CA          9.8940  -19.1720   11.6710 C.3       9 GLL5        0.0000 
     43 CA         10.6330  -21.2060   11.2885 C.3       3 GLC5        0.0000 
     44 CA         11.3720  -23.2400   10.9060 C.3       6 GLP5        0.0000 
     45 CA          9.7280  -17.3035   14.4130 C.3       3 GLC5        0.0000 
     46 CA         10.0040  -19.1470   13.1910 C.3       9 GLL5        0.0000 
     47 CA         12.0050  -18.2935   12.9800 C.3       3 GLC5        0.0000 
     48 CA         11.0235  -21.8475   12.2710 C.3       3 GLC5        0.0000 
     49 CA         10.6750  -20.4550   13.6360 C.3       9 GLL5        0.0000 
     50 CA         11.4835  -21.8415   14.4325 C.3       3 GLC5        0.0000 
     51 CA         12.2920  -23.2280   15.2290 C.3       6 GLP5        0.0000 
     52 N          11.7135  -21.4500    8.9655 N.am      2 SEC2        0.0000 
     53 N          11.3200  -20.8030    7.6050 N.am      8 SEL2        0.0000 
     54 N          12.1070  -22.0970   10.3260 N.am      5 SEP2        0.0000 
     55 CA         13.6860  -21.7315    7.0765 C.3       3 GLC5        0.0000 
     56 CA         12.4210  -21.4130    5.5590 C.3       9 GLL5        0.0000 
     57 CA         14.9510  -22.0500    8.5940 C.3       6 GLP5        0.0000 
     58 CA         14.2180  -22.2335    5.4000 C.3       3 GLC5        0.0000 
     59 CA         16.0150  -23.0540    5.2410 C.3       6 GLP5        0.0000 
     60 N          11.9475  -22.5330    8.7420 N.am      2 SEC2        0.0000 
     61 N          11.7880  -22.9690    7.1580 N.am      8 SEL2        0.0000 
     62 N          12.1765  -23.8660    8.2910 N.am      2 SEC2        0.0000 
     63 N          12.5650  -24.7630    9.4240 N.am      5 SEP2        0.0000 
     64 CA         11.9874  -12.0567    4.2553 C.3       3 GLC5        0.0000 
     65 CA         13.3220  -11.8770    2.8250 C.3       6 GLP5        0.0000 
     66 CA          5.6497  -16.8017   10.2740 C.3       3 GLC5        0.0000 
     67 CA          7.7700  -16.8010    9.4450 C.3       9 GLL5        0.0000 
     68 CA          3.7230  -17.1630   10.5540 C.3       6 GLP5        0.0000 
     69 CA          9.2188  -19.1990   14.6852 C.3       3 GLC5        0.0000 
     70 CA          5.2903  -16.0640    7.7462 C.3       3 GLC5        0.0000 
     71 CA          7.2890  -16.3070    8.1490 C.3       9 GLL5        0.0000 
     72 CA          3.3830  -15.4100    7.8880 C.3       6 GLP5        0.0000 
@<TRIPOS>BOND
@<TRIPOS>SUBSTRUCTURE
     1 ALC1       11 GROUP        1 X    ALC  0     ROOT ALC X 1
     2 SEC2       52 GROUP        1 X    SEC  0     **** SEC X 2
     3 GLC5        1 GROUP        1 X    GLC  0     **** GLC X 6
     4 ALP1       13 GROUP        1 Y    ALP  0     ROOT ALP Y 8
     5 SEP2       54 GROUP        1 Y    SEP  0     **** SEP Y 9
     6 GLP5        3 GROUP        1 Y    GLP  0     **** GLP Y 13
     7 ALL1       12 GROUP        1 Z    ALL  0     ROOT ALL Z 15
     8 SEL2       53 GROUP        1 Z    SEL  0     **** SEL Z 16
     9 GLL5        2 GROUP        1 Z    GLL  0     **** GLL Z 20
@<TRIPOS>SET

