#    Name: 4i12_1BC_1_ligand
#    Modification time : Tue Mar 25 02:10:59 2014

@<TRIPOS>MOLECULE
4i12_1BC_1_ligand
   66    70     1     0     0
SMALL
NO_CHARGES


@<TRIPOS>ATOM
      1 CL1         9.9810  -11.2150    4.3850 Cl        1 1BC501      0.0000 
      2 C1         10.2980  -12.6850    5.3870 C.ar      1 1BC501      0.0000 
      3 C6          9.6420  -13.9080    5.1110 C.ar      1 1BC501      0.0000 
      4 C5          9.8880  -15.0330    5.9210 C.ar      1 1BC501      0.0000 
      5 C4         10.7580  -14.8680    6.9950 C.ar      1 1BC501      0.0000 
      6 C12        11.0070  -16.0470    7.8810 C.2       1 1BC501      0.0000 
      7 N11        11.5550  -15.8350    8.9990 N.pl3     1 1BC501      0.0000 
      8 C10        11.5380  -14.4460    9.3660 C.3       1 1BC501      0.0000 
      9 C28        12.6600  -14.5370   10.4690 C.3       1 1BC501      0.0000 
     10 C27        10.5110  -13.8740   10.3470 C.3       1 1BC501      0.0000 
     11 C9         12.2820  -13.5050    8.4920 C.3       1 1BC501      0.0000 
     12 C3         11.4090  -13.6440    7.2660 C.ar      1 1BC501      0.0000 
     13 C2         11.1660  -12.5230    6.4850 C.ar      1 1BC501      0.0000 
     14 N13        10.7190  -17.2650    7.4280 N.pl3     1 1BC501      0.0000 
     15 C14        10.7420  -18.4690    8.1950 C.3       1 1BC501      0.0000 
     16 C15         9.2860  -18.8990    8.4760 C.3       1 1BC501      0.0000 
     17 C11         8.7080  -17.9920    9.5580 C.2       1 1BC501      0.0000 
     18 C13         7.7700  -16.8010    9.4450 C.2       1 1BC501      0.0000 
     19 C16         7.3830  -16.0800   10.5430 C.2       1 1BC501      0.0000 
     20 S17         8.1410  -16.8760   11.8430 S.3       1 1BC501      0.0000 
     21 C18         9.0280  -18.1320   10.9810 C.2       1 1BC501      0.0000 
     22 C19         9.8940  -19.1720   11.6710 C.3       1 1BC501      0.0000 
     23 C20        10.0040  -19.1470   13.1910 C.3       1 1BC501      0.0000 
     24 C21        10.6750  -20.4550   13.6360 C.3       1 1BC501      0.0000 
     25 C23         7.2890  -16.3070    8.1490 C.2       1 1BC501      0.0000 
     26 C24         7.0330  -14.9680    7.8930 C.2       1 1BC501      0.0000 
     27 N25         6.6640  -14.9400    6.5680 N.2       1 1BC501      0.0000 
     28 N26         6.7280  -16.2800    6.0800 N.pl3     1 1BC501      0.0000 
     29 C29         7.1060  -17.1290    7.0600 C.2       1 1BC501      0.0000 
     30 C30        11.3810  -19.5060    7.2930 C.2       1 1BC501      0.0000 
     31 N31        11.3200  -20.8030    7.6050 N.2       1 1BC501      0.0000 
     32 C32        11.8500  -21.7740    6.7930 C.2       1 1BC501      0.0000 
     33 C33        12.4210  -21.4130    5.5590 C.3       1 1BC501      0.0000 
     34 C34        12.4600  -20.0450    5.2410 C.2       1 1BC501      0.0000 
     35 N35        11.9160  -19.1420    6.1140 N.2       1 1BC501      0.0000 
     36 O36        11.7880  -22.9690    7.1580 O.2       1 1BC501      0.0000 
     37 H           8.9931  -13.9712    4.3265 H         1 1BC501      0.0000 
     38 H           9.4491  -15.9170    5.7252 H         1 1BC501      0.0000 
     39 H          11.9754  -16.4878    9.6220 H         1 1BC501      0.0000 
     40 H          13.2409  -13.8637    8.2870 H         1 1BC501      0.0000 
     41 H          12.2250  -12.5292    8.8591 H         1 1BC501      0.0000 
     42 H          11.5849  -11.6321    6.6849 H         1 1BC501      0.0000 
     43 H          10.4401  -17.3929    6.3989 H         1 1BC501      0.0000 
     44 H          11.2711  -18.3855    9.0823 H         1 1BC501      0.0000 
     45 H           9.2810  -19.9221    8.8167 H         1 1BC501      0.0000 
     46 H           8.7090  -18.7998    7.5704 H         1 1BC501      0.0000 
     47 H           6.8937  -15.3814   10.7388 H         1 1BC501      0.0000 
     48 H          10.9334  -19.1099   11.2422 H         1 1BC501      0.0000 
     49 H           9.5368  -20.1940   11.3611 H         1 1BC501      0.0000 
     50 H           9.0218  -19.0860   13.6257 H         1 1BC501      0.0000 
     51 H          10.6116  -18.3139   13.4979 H         1 1BC501      0.0000 
     52 H           7.0979  -14.2583    8.4853 H         1 1BC501      0.0000 
     53 H           6.5205  -16.5062    5.1636 H         1 1BC501      0.0000 
     54 H           7.2202  -18.0512    7.0244 H         1 1BC501      0.0000 
     55 H          11.8900  -21.9801    4.7192 H         1 1BC501      0.0000 
     56 H          13.4781  -21.8454    5.4935 H         1 1BC501      0.0000 
     57 H          12.8933  -19.7442    4.3637 H         1 1BC501      0.0000 
     58 H          13.4695  -15.0207   10.1363 H         1 1BC501      0.0000 
     59 H          12.9617  -13.6315   10.7675 H         1 1BC501      0.0000 
     60 H          12.3420  -15.0231   11.2830 H         1 1BC501      0.0000 
     61 H          10.5676  -14.3147   11.2429 H         1 1BC501      0.0000 
     62 H          10.6434  -12.8937   10.4937 H         1 1BC501      0.0000 
     63 H           9.5747  -13.9973   10.0183 H         1 1BC501      0.0000 
     64 H          11.5890  -20.5559   13.2430 H         1 1BC501      0.0000 
     65 H          10.7765  -20.5009   14.6298 H         1 1BC501      0.0000 
     66 H          10.1462  -21.2569   13.3580 H         1 1BC501      0.0000 
@<TRIPOS>BOND
     1    2    1 1    
     2    3    2 ar   
     3   13    2 ar   
     4    4    3 ar   
     5   37    3 1    
     6    5    4 ar   
     7   38    4 1    
     8    6    5 1    
     9   12    5 ar   
    10    7    6 1    
    11   14    6 2    
    12    8    7 1    
    13   39    7 1    
    14    9    8 1    
    15   10    8 1    
    16   11    8 1    
    17   58    9 1    
    18   59    9 1    
    19   60    9 1    
    20   61   10 1    
    21   62   10 1    
    22   63   10 1    
    23   12   11 1    
    24   40   11 1    
    25   41   11 1    
    26   13   12 ar   
    27   42   13 1    
    28   15   14 1    
    29   43   14 1    
    30   16   15 1    
    31   30   15 1    
    32   44   15 1    
    33   17   16 1    
    34   45   16 1    
    35   46   16 1    
    36   18   17 1    
    37   21   17 2    
    38   19   18 2    
    39   25   18 1    
    40   20   19 1    
    41   47   19 1    
    42   21   20 1    
    43   22   21 1    
    44   23   22 1    
    45   48   22 1    
    46   49   22 1    
    47   24   23 1    
    48   50   23 1    
    49   51   23 1    
    50   64   24 1    
    51   65   24 1    
    52   66   24 1    
    53   26   25 1    
    54   29   25 2    
    55   27   26 2    
    56   52   26 1    
    57   28   27 1    
    58   29   28 1    
    59   53   28 1    
    60   54   29 1    
    61   31   30 2    
    62   35   30 1    
    63   32   31 1    
    64   33   32 1    
    65   36   32 2    
    66   34   33 1    
    67   55   33 1    
    68   56   33 1    
    69   35   34 2    
    70   57   34 1    
@<TRIPOS>SUBSTRUCTURE
     1 1BC501      1 GROUP   
@<TRIPOS>SET

