#    Name: 1t9d_1MM_9_INTS_M
#    Modification time : Tue Mar 25 04:37:55 2014

@<TRIPOS>MOLECULE
1t9d_1MM_9_INTS_M
   57     0     6     0     0
SMALL
NO_CHARGES


@<TRIPOS>ATOM
      1 CA        118.3205   81.4760  139.4555 C.3       2 GLC5        0.0000 
      2 CA        117.3790   80.1960  141.0320 C.3       6 GLL5        0.0000 
      3 CA        119.2620   82.7560  137.8790 C.3       4 GLP5        0.0000 
      4 CA        119.4965   78.5085  140.7875 C.3       2 GLC5        0.0000 
      5 CA        118.0290   79.7730  139.8270 C.3       6 GLL5        0.0000 
      6 CA        120.9640   77.2440  141.7480 C.3       4 GLP5        0.0000 
      7 CA        117.6195   74.2805  134.9690 C.3       2 GLC5        0.0000 
      8 CA        116.7810   73.8630  136.7880 C.3       6 GLL5        0.0000 
      9 CA        118.4580   74.6980  133.1500 C.3       4 GLP5        0.0000 
     10 N         117.2895   73.8495  139.5215 N.am      1 SEC2        0.0000 
     11 N         117.1370   73.3370  138.0650 N.am      5 SEL2        0.0000 
     12 N         117.4420   74.3620  140.9780 N.am      3 SEP2        0.0000 
     13 N         116.6545   75.0395  139.9485 N.am      1 SEC2        0.0000 
     14 N         115.8670   75.7170  138.9190 N.am      5 SEL2        0.0000 
     15 N         116.4290   76.1420  140.1745 N.am      1 SEC2        0.0000 
     16 N         116.9910   76.5670  141.4300 N.am      3 SEP2        0.0000 
     17 CA        118.9465   75.7980  134.9315 C.3       2 GLC5        0.0000 
     18 CA        119.4350   76.8980  136.7130 C.3       6 GLL5        0.0000 
     19 CA        119.4685   78.1545  134.9710 C.3       2 GLC5        0.0000 
     20 CA        119.5020   79.4110  133.2290 C.3       4 GLP5        0.0000 
     21 CA        120.0700   76.1695  138.3695 C.3       2 GLC5        0.0000 
     22 CA        120.7050   75.4410  140.0260 C.3       4 GLP5        0.0000 
     23 CA        121.5435   77.2405  137.1955 C.3       2 GLC5        0.0000 
     24 CA        123.6520   77.5830  137.6780 C.3       4 GLP5        0.0000 
     25 N         117.7955   72.9750  140.2090 N.am      1 SEC2        0.0000 
     26 N         118.1490   71.5880  139.4400 N.am      5 SEL2        0.0000 
     27 CA        117.4805   70.8150  141.2125 C.3       2 GLC5        0.0000 
     28 CA        118.7760   70.4660  140.0490 C.3       6 GLL5        0.0000 
     29 CA        116.1850   71.1640  142.3760 C.3       4 GLP5        0.0000 
     30 CA        119.0860   69.1310  138.5750 C.3       2 GLC5        0.0000 
     31 CA        119.3960   67.7960  137.1010 C.3       4 GLP5        0.0000 
     32 CA        120.4560   69.7960  140.2795 C.3       2 GLC5        0.0000 
     33 CA        122.1360   69.1260  140.5100 C.3       4 GLP5        0.0000 
     34 CA        118.7745   69.4185  135.7625 C.3       2 GLC5        0.0000 
     35 CA        118.1530   71.0410  134.4240 C.3       6 GLL5        0.0000 
     36 CA        118.1115   69.6200  133.2535 C.3       2 GLC5        0.0000 
     37 CA        118.0700   68.1990  132.0830 C.3       4 GLP5        0.0000 
     38 CA        116.6065   70.2110  135.3355 C.3       2 GLC5        0.0000 
     39 CA        115.0600   69.3810  136.2470 C.3       4 GLP5        0.0000 
     40 CA        116.7075   72.0190  133.0680 C.3       2 GLC5        0.0000 
     41 CA        115.2620   72.9970  131.7120 C.3       4 GLP5        0.0000 
     42 CA        116.9500   79.5992  143.1950 C.3       2 GLC5        0.0000 
     43 CA        115.9850   79.9970  141.2140 C.3       6 GLL5        0.0000 
     44 CA        117.2180   79.1020  145.2670 C.3       4 GLP5        0.0000 
     45 CA        116.3135   81.1863  139.2825 C.3       2 GLC5        0.0000 
     46 CA        115.9450   82.2760  137.4420 C.3       4 GLP5        0.0000 
     47 CA        116.8290   82.1462  141.1865 C.3       2 GLC5        0.0000 
     48 CA        116.9760   84.1960  141.2500 C.3       4 GLP5        0.0000 
     49 CA        118.9995   81.1902  141.2258 C.3       2 GLC5        0.0000 
     50 CA        120.2950   82.3960  142.0220 C.3       4 GLP5        0.0000 
     51 CA        119.0463   80.6132  138.6118 C.3       2 GLC5        0.0000 
     52 CA        120.4380   81.7750  137.9300 C.3       4 GLP5        0.0000 
     53 CA        116.7997   80.8637  138.3678 C.3       2 GLC5        0.0000 
     54 CA        115.7237   80.7088  138.5030 C.3       2 GLC5        0.0000 
     55 CA        115.8450   78.9270  138.9480 C.3       6 GLL5        0.0000 
     56 CA        118.2190   73.0670  134.1005 C.3       2 GLC5        0.0000 
     57 CA        117.8070   71.8310  135.6780 C.3       6 GLL5        0.0000 
@<TRIPOS>BOND
@<TRIPOS>SUBSTRUCTURE
     1 SEC2       10 GROUP        1 X    SEC  0     ROOT SEC X 2
     2 GLC5        1 GROUP        1 X    GLC  0     **** GLC X 6
     3 SEP2       12 GROUP        1 Y    SEP  0     ROOT SEP Y 9
     4 GLP5        3 GROUP        1 Y    GLP  0     **** GLP Y 13
     5 SEL2       11 GROUP        1 Z    SEL  0     ROOT SEL Z 16
     6 GLL5        2 GROUP        1 Z    GLL  0     **** GLL Z 20
@<TRIPOS>SET

