#    Name: 1t9d_1MM_9_ligand
#    Modification time : Tue Mar 25 04:37:55 2014

@<TRIPOS>MOLECULE
1t9d_1MM_9_ligand
   41    42     1     0     0
SMALL
NO_CHARGES


@<TRIPOS>ATOM
      1 C4        115.9850   79.9970  141.2140 C.ar      1 1MM3695     0.0000 
      2 C5        117.3790   80.1960  141.0320 C.ar      1 1MM3695     0.0000 
      3 C6        118.0290   79.7730  139.8270 C.ar      1 1MM3695     0.0000 
      4 C1        117.2800   79.1300  138.7600 C.ar      1 1MM3695     0.0000 
      5 C2        115.8450   78.9270  138.9480 C.ar      1 1MM3695     0.0000 
      6 C3        115.1600   79.3560  140.1800 C.ar      1 1MM3695     0.0000 
      7 S7        114.5120   78.1920  137.9490 S.o2      1 1MM3695     0.0000 
      8 N8        115.1780   76.8890  137.0870 N.am      1 1MM3695     0.0000 
      9 C9        115.7600   75.8240  137.6600 C.2       1 1MM3695     0.0000 
     10 N10       116.1500   75.0240  136.6980 N.am      1 1MM3695     0.0000 
     11 C2'       116.7810   73.8630  136.7880 C.ar      1 1MM3695     0.0000 
     12 N1'       117.1170   73.1100  135.6080 N.ar      1 1MM3695     0.0000 
     13 C6'       117.8070   71.8310  135.6780 C.ar      1 1MM3695     0.0000 
     14 N5'       118.1610   71.3100  136.9790 N.ar      1 1MM3695     0.0000 
     15 C4'       117.8200   72.0750  138.1770 C.ar      1 1MM3695     0.0000 
     16 N3'       117.1370   73.3370  138.0650 N.ar      1 1MM3695     0.0000 
     17 O7A       113.5050   77.6000  138.7980 O.2       1 1MM3695     0.0000 
     18 O7B       114.0850   79.0130  136.8640 O.2       1 1MM3695     0.0000 
     19 O9        115.8670   75.7170  138.9190 O.2       1 1MM3695     0.0000 
     20 C11       117.8680   78.6300  137.4220 C.2       1 1MM3695     0.0000 
     21 O12       118.7560   77.5520  137.7730 O.3       1 1MM3695     0.0000 
     22 C13       119.4350   76.8980  136.7130 C.3       1 1MM3695     0.0000 
     23 O11       117.5590   79.1220  136.3010 O.2       1 1MM3695     0.0000 
     24 O4'       118.1490   71.5880  139.4400 O.3       1 1MM3695     0.0000 
     25 C5'       118.7760   70.4660  140.0490 C.3       1 1MM3695     0.0000 
     26 C7'       118.1530   71.0410  134.4240 C.3       1 1MM3695     0.0000 
     27 H         115.5254   80.2983  142.0746 H         1 1MM3695     0.0000 
     28 H         117.9303   80.6457  141.7656 H         1 1MM3695     0.0000 
     29 H         119.0287   79.9208  139.7080 H         1 1MM3695     0.0000 
     30 H         114.1981   79.2194  140.3028 H         1 1MM3695     0.0000 
     31 H         115.0589   77.0574  136.0790 H         1 1MM3695     0.0000 
     32 H         115.9223   75.3616  135.6627 H         1 1MM3695     0.0000 
     33 H         120.0107   77.5303  136.1946 H         1 1MM3695     0.0000 
     34 H         120.0299   76.1673  137.0479 H         1 1MM3695     0.0000 
     35 H         118.7976   76.4827  136.0639 H         1 1MM3695     0.0000 
     36 H         119.7252   70.3640  139.7513 H         1 1MM3695     0.0000 
     37 H         118.7882   70.5432  141.0459 H         1 1MM3695     0.0000 
     38 H         118.3058   69.6119  139.8269 H         1 1MM3695     0.0000 
     39 H         118.7480   71.5601  133.8104 H         1 1MM3695     0.0000 
     40 H         118.6284   70.1885  134.6415 H         1 1MM3695     0.0000 
     41 H         117.3359   70.7960  133.9021 H         1 1MM3695     0.0000 
@<TRIPOS>BOND
     1    2    1 ar   
     2    6    1 ar   
     3   27    1 1    
     4    3    2 ar   
     5   28    2 1    
     6    4    3 ar   
     7   29    3 1    
     8    5    4 ar   
     9   20    4 1    
    10    6    5 ar   
    11    7    5 1    
    12   30    6 1    
    13    8    7 1    
    14   17    7 2    
    15   18    7 2    
    16    9    8 am   
    17   31    8 1    
    18   10    9 am   
    19   19    9 2    
    20   11   10 1    
    21   32   10 1    
    22   12   11 ar   
    23   16   11 ar   
    24   13   12 ar   
    25   14   13 ar   
    26   26   13 1    
    27   15   14 ar   
    28   16   15 ar   
    29   24   15 1    
    30   21   20 1    
    31   23   20 2    
    32   22   21 1    
    33   33   22 1    
    34   34   22 1    
    35   35   22 1    
    36   25   24 1    
    37   36   25 1    
    38   37   25 1    
    39   38   25 1    
    40   39   26 1    
    41   40   26 1    
    42   41   26 1    
@<TRIPOS>SUBSTRUCTURE
     1 1MM3695     1 GROUP   
@<TRIPOS>SET

