#    Name: 3gbu_ATP_4_INTS_M
#    Modification time : Tue Mar 25 07:26:40 2014

@<TRIPOS>MOLECULE
3gbu_ATP_4_INTS_M
   48     0    12     0     0
SMALL
NO_CHARGES


@<TRIPOS>ATOM
      1 NZ         31.5410  -29.6450   12.3770 N.4       3 LYC4        0.0000 
      2 NZ         32.8120  -29.1260   12.0330 N.4      11 LYL4        0.0000 
      3 NZ         30.2700  -30.1640   12.7210 N.4       7 LYP4        0.0000 
      4 N          31.5410  -29.6450   12.3770 N.am      2 SEC2        0.0000 
      5 N          32.8120  -29.1260   12.0330 N.am     10 SEL2        0.0000 
      6 N          30.2700  -30.1640   12.7210 N.am      6 SEP2        0.0000 
      7 N          33.7950  -30.1855   12.5085 N.am      2 SEC2        0.0000 
      8 N          34.7780  -31.2450   12.9840 N.am      6 SEP2        0.0000 
      9 CA         32.2480  -27.7530    8.9085 C.3       4 GLC5        0.0000 
     10 CA         34.1220  -28.3210    8.3260 C.3      12 GLL5        0.0000 
     11 CA         30.3740  -27.1850    9.4910 C.3       8 GLP5        0.0000 
     12 CA         32.3500  -30.0885    7.1480 C.3       4 GLC5        0.0000 
     13 CA         34.4480  -29.4480    7.3510 C.3      12 GLL5        0.0000 
     14 CA         30.2520  -30.7290    6.9450 C.3       8 GLP5        0.0000 
     15 CA         33.3595  -29.7410    5.5010 C.3       4 GLC5        0.0000 
     16 CA         32.2710  -30.0340    3.6510 C.3       8 GLP5        0.0000 
     17 O          37.4860  -30.4570    8.1425 O.2       1 ALC1        0.0000 
     18 O          35.9480  -31.1810    8.1990 O.2       9 ALL1        0.0000 
     19 O          39.0240  -29.7330    8.0860 O.2       5 ALP1        0.0000 
     20 O          37.1410  -32.1445    8.4465 O.2       1 ALC1        0.0000 
     21 O          38.3340  -33.1080    8.6940 O.2       5 ALP1        0.0000 
     22 CA         37.7805  -31.6315    6.2565 C.3       4 GLC5        0.0000 
     23 CA         36.3620  -30.1130    6.0460 C.3      12 GLL5        0.0000 
     24 CA         39.1990  -33.1500    6.4670 C.3       8 GLP5        0.0000 
     25 CA         33.9110  -29.5750    4.4595 C.3       4 GLC5        0.0000 
     26 CA         35.5510  -29.1160    5.2680 C.3      12 GLL5        0.0000 
     27 CA         37.4470  -24.5185    4.6570 C.3       4 GLC5        0.0000 
     28 CA         38.0240  -26.5920    4.2230 C.3      12 GLL5        0.0000 
     29 CA         36.8700  -22.4450    5.0910 C.3       8 GLP5        0.0000 
     30 CA         38.7585  -26.0475    1.1870 C.3       4 GLC5        0.0000 
     31 CA         38.9940  -26.2430    3.1620 C.3      12 GLL5        0.0000 
     32 CA         38.5230  -25.8520   -0.7880 C.3       8 GLP5        0.0000 
     33 CA         39.3630  -24.6430    2.2965 C.3       4 GLC5        0.0000 
     34 CA         39.7320  -23.0430    1.4310 C.3       8 GLP5        0.0000 
     35 CA         39.0710  -29.8005    2.3895 C.3       4 GLC5        0.0000 
     36 CA         38.4080  -28.2250    1.9580 C.3      12 GLL5        0.0000 
     37 CA         39.7340  -31.3760    2.8210 C.3       8 GLP5        0.0000 
     38 CA         38.4655  -27.0385    0.5850 C.3       4 GLC5        0.0000 
     39 CA         36.9445  -28.6890    0.7575 C.3       4 GLC5        0.0000 
     40 CA         35.4810  -29.1530   -0.4430 C.3       8 GLP5        0.0000 
     41 CA         38.5075  -29.6135    3.4205 C.3       4 GLC5        0.0000 
     42 CA         37.2810  -27.8510    4.0200 C.3      12 GLL5        0.0000 
     43 CA         33.6185  -27.1573    7.1003 C.3       4 GLC5        0.0000 
     44 CA         32.9520  -25.4300    6.3620 C.3       8 GLP5        0.0000 
     45 CA         39.2195  -27.4626    5.3281 C.3       4 GLC5        0.0000 
     46 CA         40.5440  -27.7910    6.8000 C.3       8 GLP5        0.0000 
     47 CA         36.5205  -25.8886    3.1436 C.3       4 GLC5        0.0000 
     48 CA         35.1460  -24.6430    2.4310 C.3       8 GLP5        0.0000 
@<TRIPOS>BOND
@<TRIPOS>SUBSTRUCTURE
     1 ALC1       17 GROUP        1 X    ALC  0     ROOT ALC X 1
     2 SEC2        4 GROUP        1 X    SEC  0     **** SEC X 2
     3 LYC4        1 GROUP        1 X    LYC  0     **** LYC X 4
     4 GLC5        9 GROUP        1 X    GLC  0     **** GLC X 6
     5 ALP1       19 GROUP        1 Y    ALP  0     ROOT ALP Y 8
     6 SEP2        6 GROUP        1 Y    SEP  0     **** SEP Y 9
     7 LYP4        3 GROUP        1 Y    LYP  0     **** LYP Y 11
     8 GLP5       11 GROUP        1 Y    GLP  0     **** GLP Y 13
     9 ALL1       18 GROUP        1 Z    ALL  0     ROOT ALL Z 15
    10 SEL2        5 GROUP        1 Z    SEL  0     **** SEL Z 16
    11 LYL4        2 GROUP        1 Z    LYL  0     **** LYL Z 18
    12 GLL5       10 GROUP        1 Z    GLL  0     **** GLL Z 20
@<TRIPOS>SET

