#    Name: 3gbu_ATP_4_ligand
#    Modification time : Tue Mar 25 07:26:40 2014

@<TRIPOS>MOLECULE
3gbu_ATP_4_ligand
   43    45     1     0     0
SMALL
NO_CHARGES


@<TRIPOS>ATOM
      1 PG         32.8360  -26.0440   14.4180 P.3       1 ATP900      0.0000 
      2 O1G        33.8850  -25.6250   15.3980 O.co2     1 ATP900      0.0000 
      3 O2G        31.6790  -26.7590   15.0920 O.co2     1 ATP900      0.0000 
      4 O3G        32.3840  -24.8840   13.5340 O.co2     1 ATP900      0.0000 
      5 PB         33.3090  -27.6930   12.0190 P.3       1 ATP900      0.0000 
      6 O1B        32.8120  -29.1260   12.0330 O.co2     1 ATP900      0.0000 
      7 O2B        32.5010  -26.6220   11.3790 O.co2     1 ATP900      0.0000 
      8 O3B        33.6010  -27.1270   13.5060 O.3       1 ATP900      0.0000 
      9 PA         35.4320  -26.8970   10.1330 P.3       1 ATP900      0.0000 
     10 O1A        34.5810  -25.7250    9.6890 O.co2     1 ATP900      0.0000 
     11 O2A        36.8790  -26.6610   10.4640 O.co2     1 ATP900      0.0000 
     12 O3A        34.8050  -27.6960   11.4210 O.3       1 ATP900      0.0000 
     13 O5'        35.3210  -28.0640    9.0510 O.3       1 ATP900      0.0000 
     14 C5'        34.1220  -28.3210    8.3260 C.3       1 ATP900      0.0000 
     15 C4'        34.4480  -29.4480    7.3510 C.3       1 ATP900      0.0000 
     16 O4'        34.4170  -28.7860    6.0740 O.3       1 ATP900      0.0000 
     17 C3'        35.8780  -29.9760    7.4670 C.3       1 ATP900      0.0000 
     18 O3'        35.9480  -31.1810    8.1990 O.3       1 ATP900      0.0000 
     19 C2'        36.3620  -30.1130    6.0460 C.3       1 ATP900      0.0000 
     20 O2'        36.2110  -31.4240    5.5030 O.3       1 ATP900      0.0000 
     21 C1'        35.5510  -29.1160    5.2680 C.3       1 ATP900      0.0000 
     22 N9         36.4710  -27.9640    5.0710 N.pl3     1 ATP900      0.0000 
     23 C8         36.6810  -26.9000    5.8800 C.2       1 ATP900      0.0000 
     24 N7         37.6110  -26.0620    5.3780 N.2       1 ATP900      0.0000 
     25 C5         38.0240  -26.5920    4.2230 C.ar      1 ATP900      0.0000 
     26 C6         38.9940  -26.2430    3.1620 C.ar      1 ATP900      0.0000 
     27 N6         39.7220  -25.1290    3.2660 N.pl3     1 ATP900      0.0000 
     28 N1         39.1290  -27.0850    2.0870 N.ar      1 ATP900      0.0000 
     29 C2         38.4080  -28.2250    1.9580 C.ar      1 ATP900      0.0000 
     30 N3         37.5010  -28.6030    2.8890 N.ar      1 ATP900      0.0000 
     31 C4         37.2810  -27.8510    4.0200 C.ar      1 ATP900      0.0000 
     32 H          33.7995  -27.4623    7.7512 H         1 ATP900      0.0000 
     33 H          33.3185  -28.6556    8.9696 H         1 ATP900      0.0000 
     34 H          33.7532  -30.2074    7.4040 H         1 ATP900      0.0000 
     35 H          36.4624  -29.1766    7.9296 H         1 ATP900      0.0000 
     36 H          37.3946  -29.7759    6.0154 H         1 ATP900      0.0000 
     37 H          35.2929  -29.5458    4.3410 H         1 ATP900      0.0000 
     38 H          36.2087  -26.7563    6.7353 H         1 ATP900      0.0000 
     39 H          39.5794  -24.5858    4.0934 H         1 ATP900      0.0000 
     40 H          40.3446  -24.9377    2.5071 H         1 ATP900      0.0000 
     41 H          38.5575  -28.8320    1.1116 H         1 ATP900      0.0000 
     42 H          36.8904  -31.4965    8.0883 H         1 ATP900      0.0000 
     43 H          36.2795  -31.3033    4.5127 H         1 ATP900      0.0000 
@<TRIPOS>BOND
     1    2    1 ar   
     2    3    1 ar   
     3    4    1 ar   
     4    8    1 1    
     5    6    5 ar   
     6    7    5 ar   
     7    8    5 1    
     8   12    5 1    
     9   10    9 ar   
    10   11    9 ar   
    11   12    9 1    
    12   13    9 1    
    13   14   13 1    
    14   15   14 1    
    15   32   14 1    
    16   33   14 1    
    17   16   15 1    
    18   17   15 1    
    19   34   15 1    
    20   21   16 1    
    21   18   17 1    
    22   19   17 1    
    23   35   17 1    
    24   42   18 1    
    25   20   19 1    
    26   21   19 1    
    27   36   19 1    
    28   43   20 1    
    29   22   21 1    
    30   37   21 1    
    31   23   22 1    
    32   31   22 1    
    33   24   23 2    
    34   38   23 1    
    35   25   24 1    
    36   26   25 ar   
    37   31   25 ar   
    38   27   26 1    
    39   28   26 ar   
    40   39   27 1    
    41   40   27 1    
    42   29   28 ar   
    43   30   29 ar   
    44   41   29 1    
    45   31   30 ar   
@<TRIPOS>SUBSTRUCTURE
     1 ATP900      1 GROUP   
@<TRIPOS>SET

