#    Name: 3f1q_BCE_2_INTS_M
#    Modification time : Tue Mar 25 03:04:27 2014

@<TRIPOS>MOLECULE
3f1q_BCE_2_INTS_M
   64     0     6     0     0
SMALL
NO_CHARGES


@<TRIPOS>ATOM
      1 CA          6.8245  -31.2670   -3.7740 C.3       2 GLC5        0.0000 
      2 CA          8.1110  -31.4940   -2.3240 C.3       6 GLL5        0.0000 
      3 CA          5.5380  -31.0400   -5.2240 C.3       4 GLP5        0.0000 
      4 CA          8.9830  -30.2100   -4.3845 C.3       2 GLC5        0.0000 
      5 CA          9.0940  -30.5120   -2.1690 C.3       6 GLL5        0.0000 
      6 CA          8.8720  -29.9080   -6.6000 C.3       4 GLP5        0.0000 
      7 CA          8.7465  -30.8900    2.0765 C.3       2 GLC5        0.0000 
      8 CA          9.5760  -31.3030    0.0610 C.3       6 GLL5        0.0000 
      9 CA          7.9170  -30.4770    4.0920 C.3       4 GLP5        0.0000 
     10 CA          4.6610  -32.8960    0.6435 C.3       2 GLC5        0.0000 
     11 CA          6.1310  -33.8160   -0.2590 C.3       6 GLL5        0.0000 
     12 CA          3.1910  -31.9760    1.5460 C.3       4 GLP5        0.0000 
     13 CA          4.4910  -33.8715    1.1690 C.3       2 GLC5        0.0000 
     14 CA          5.2820  -34.9230   -0.3790 C.3       6 GLL5        0.0000 
     15 CA          3.7000  -32.8200    2.7170 C.3       4 GLP5        0.0000 
     16 CA          3.2875  -34.9195   -2.0880 C.3       2 GLC5        0.0000 
     17 CA          5.2110  -35.6500   -1.5740 C.3       6 GLL5        0.0000 
     18 CA          1.3640  -34.1890   -2.6020 C.3       4 GLP5        0.0000 
     19 CA          3.0060  -40.5870   -4.9075 C.3       2 GLC5        0.0000 
     20 CA          2.3320  -39.0460   -3.6980 C.3       6 GLL5        0.0000 
     21 CA          3.6800  -42.1280   -6.1170 C.3       4 GLP5        0.0000 
     22 CA          1.5830  -37.3410   -3.1115 C.3       2 GLC5        0.0000 
     23 CA          0.8340  -35.6360   -2.5250 C.3       4 GLP5        0.0000 
     24 CA          2.1485  -38.3895    0.5630 C.3       2 GLC5        0.0000 
     25 CA          2.8460  -39.1760   -1.1940 C.3       6 GLL5        0.0000 
     26 CA          1.4510  -37.6030    2.3200 C.3       4 GLP5        0.0000 
     27 CA          3.8400  -40.8175   -0.9100 C.3       2 GLC5        0.0000 
     28 CA          2.0010  -40.4450   -1.0390 C.3       6 GLL5        0.0000 
     29 CA          5.6790  -41.1900   -0.7810 C.3       4 GLP5        0.0000 
     30 CA          1.1250  -42.0145   -1.9845 C.3       2 GLC5        0.0000 
     31 CA          0.2490  -43.5840   -2.9300 C.3       4 GLP5        0.0000 
     32 CA          1.7050  -39.6945    0.8140 C.3       2 GLC5        0.0000 
     33 CA          1.4090  -38.9440    2.6670 C.3       4 GLP5        0.0000 
     34 CA          1.4470  -38.3030   -1.0585 C.3       2 GLC5        0.0000 
     35 CA          0.8930  -36.1610   -1.0780 C.3       4 GLP5        0.0000 
     36 CA          0.8240  -41.4320    0.2705 C.3       2 GLC5        0.0000 
     37 CA         -0.3530  -42.4190    1.5800 C.3       4 GLP5        0.0000 
     38 O           2.8985  -39.2395    1.0165 O.2       1 ALC1        0.0000 
     39 O           3.4710  -38.6550   -0.1080 O.2       5 ALL1        0.0000 
     40 O           2.3260  -39.8240    2.1410 O.2       3 ALP1        0.0000 
     41 CA         10.5180  -30.3065    1.2305 C.3       2 GLC5        0.0000 
     42 CA          9.8260  -30.4130   -0.9850 C.3       6 GLL5        0.0000 
     43 CA         11.3350  -29.7550    2.9230 C.3       4 GLP5        0.0000 
     44 CA          8.3308  -34.3017   -0.4750 C.3       2 GLC5        0.0000 
     45 CA          8.5910  -32.2770   -0.0950 C.3       6 GLL5        0.0000 
     46 CA          8.4520  -36.2840   -0.2680 C.3       4 GLP5        0.0000 
     47 CA          8.2615  -29.9898    0.0798 C.3       2 GLC5        0.0000 
     48 CA          7.3770  -28.4120    0.4380 C.3       4 GLP5        0.0000 
     49 CA          7.3371  -30.1767   -1.2514 C.3       2 GLC5        0.0000 
     50 CA          7.8280  -32.3620   -1.2690 C.3       6 GLL5        0.0000 
     51 CA          6.4590  -28.6710   -0.7450 C.3       4 GLP5        0.0000 
     52 CA          7.4863  -34.9495   -0.5378 C.3       2 GLC5        0.0000 
     53 CA          6.9100  -33.4140   -1.3560 C.3       6 GLL5        0.0000 
     54 CA          6.8492  -35.7852   -0.6222 C.3       2 GLC5        0.0000 
     55 CA          7.0020  -34.7413   -4.3335 C.3       2 GLC5        0.0000 
     56 CA          6.0050  -35.2590   -2.6530 C.3       6 GLL5        0.0000 
     57 CA          7.5730  -34.7730   -6.0720 C.3       4 GLP5        0.0000 
     58 CA          7.4415  -35.4967   -1.4315 C.3       2 GLC5        0.0000 
     59 CA          6.8570  -34.1600   -2.5370 C.3       6 GLL5        0.0000 
     60 CA          5.4656  -33.4565   -3.5009 C.3       2 GLC5        0.0000 
     61 CA          4.4870  -32.3900   -4.7020 C.3       4 GLP5        0.0000 
     62 CA          4.3005  -40.0132   -1.3285 C.3       2 GLC5        0.0000 
     63 CA          2.9980  -38.4970   -2.5580 C.3       6 GLL5        0.0000 
     64 CA          1.9075  -37.4988   -1.4770 C.3       2 GLC5        0.0000 
@<TRIPOS>BOND
@<TRIPOS>SUBSTRUCTURE
     1 ALC1       38 GROUP        1 X    ALC  0     ROOT ALC X 1
     2 GLC5        1 GROUP        1 X    GLC  0     **** GLC X 6
     3 ALP1       40 GROUP        1 Y    ALP  0     ROOT ALP Y 8
     4 GLP5        3 GROUP        1 Y    GLP  0     **** GLP Y 13
     5 ALL1       39 GROUP        1 Z    ALL  0     ROOT ALL Z 15
     6 GLL5        2 GROUP        1 Z    GLL  0     **** GLL Z 20
@<TRIPOS>SET

