#    Name: 3f1q_BCE_2_ligand
#    Modification time : Tue Mar 25 03:04:27 2014

@<TRIPOS>MOLECULE
3f1q_BCE_2_ligand
   35    36     1     0     0
SMALL
NO_CHARGES


@<TRIPOS>ATOM
      1 CAI         8.1110  -31.4940   -2.3240 C.ar      1 BCE397      0.0000 
      2 CAG         9.0940  -30.5120   -2.1690 C.ar      1 BCE397      0.0000 
      3 CAF         9.8260  -30.4130   -0.9850 C.ar      1 BCE397      0.0000 
      4 CAH         9.5760  -31.3030    0.0610 C.ar      1 BCE397      0.0000 
      5 CAJ         8.5910  -32.2770   -0.0950 C.ar      1 BCE397      0.0000 
      6 CAT         7.8280  -32.3620   -1.2690 C.ar      1 BCE397      0.0000 
      7 CAU         6.9100  -33.4140   -1.3560 C.ar      1 BCE397      0.0000 
      8 CAN         6.1310  -33.8160   -0.2590 C.ar      1 BCE397      0.0000 
      9 CAL         5.2820  -34.9230   -0.3790 C.ar      1 BCE397      0.0000 
     10 CAM         6.8570  -34.1600   -2.5370 C.ar      1 BCE397      0.0000 
     11 CAK         6.0050  -35.2590   -2.6530 C.ar      1 BCE397      0.0000 
     12 CAS         5.2110  -35.6500   -1.5740 C.ar      1 BCE397      0.0000 
     13 NAO         4.4140  -36.7340   -1.6440 N.am      1 BCE397      0.0000 
     14 CAQ         3.8400  -37.2270   -2.7500 C.2       1 BCE397      0.0000 
     15 OAC         3.9180  -36.7140   -3.8680 O.2       1 BCE397      0.0000 
     16 CAR         2.9980  -38.4970   -2.5580 C.2       1 BCE397      0.0000 
     17 CAE         2.3320  -39.0460   -3.6980 C.1       1 BCE397      0.0000 
     18 NAB         1.7970  -39.4840   -4.6040 N.1       1 BCE397      0.0000 
     19 CAP         2.8460  -39.1760   -1.1940 C.2       1 BCE397      0.0000 
     20 CAA         2.0010  -40.4450   -1.0390 C.3       1 BCE397      0.0000 
     21 OAD         3.4710  -38.6550   -0.1080 O.3       1 BCE397      0.0000 
     22 H           7.6014  -31.5748   -3.2089 H         1 BCE397      0.0000 
     23 H           9.2799  -29.8523   -2.9408 H         1 BCE397      0.0000 
     24 H          10.5448  -29.6894   -0.8835 H         1 BCE397      0.0000 
     25 H          10.1090  -31.2406    0.9300 H         1 BCE397      0.0000 
     26 H           8.4161  -32.9533    0.6691 H         1 BCE397      0.0000 
     27 H           6.1848  -33.3014    0.6228 H         1 BCE397      0.0000 
     28 H           4.7004  -35.2073    0.4243 H         1 BCE397      0.0000 
     29 H           7.4571  -33.8933   -3.3340 H         1 BCE397      0.0000 
     30 H           5.9620  -35.7829   -3.5369 H         1 BCE397      0.0000 
     31 H           4.2193  -37.2577   -0.7112 H         1 BCE397      0.0000 
     32 H           2.3464  -41.1928   -1.6060 H         1 BCE397      0.0000 
     33 H           1.9932  -40.7729   -0.0943 H         1 BCE397      0.0000 
     34 H           1.0490  -40.2919   -1.3039 H         1 BCE397      0.0000 
     35 H           3.0489  -39.1097    0.6763 H         1 BCE397      0.0000 
@<TRIPOS>BOND
     1    2    1 ar   
     2    6    1 ar   
     3   22    1 1    
     4    3    2 ar   
     5   23    2 1    
     6    4    3 ar   
     7   24    3 1    
     8    5    4 ar   
     9   25    4 1    
    10    6    5 ar   
    11   26    5 1    
    12    7    6 1    
    13    8    7 ar   
    14   10    7 ar   
    15    9    8 ar   
    16   27    8 1    
    17   12    9 ar   
    18   28    9 1    
    19   11   10 ar   
    20   29   10 1    
    21   12   11 ar   
    22   30   11 1    
    23   13   12 1    
    24   14   13 am   
    25   31   13 1    
    26   15   14 2    
    27   16   14 1    
    28   17   16 1    
    29   19   16 2    
    30   18   17 3    
    31   20   19 1    
    32   21   19 1    
    33   32   20 1    
    34   33   20 1    
    35   34   20 1    
    36   35   21 1    
@<TRIPOS>SUBSTRUCTURE
     1 BCE397      1 GROUP   
@<TRIPOS>SET

