#    Name: 3fug_2E3_1_INTS_M
#    Modification time : Tue Mar 25 06:29:40 2014

@<TRIPOS>MOLECULE
3fug_2E3_1_INTS_M
   91     0     9     0     0
SMALL
NO_CHARGES


@<TRIPOS>ATOM
      1 CA        -22.7520    0.4610    1.0465 C.3       3 GLC5        0.0000 
      2 CA        -20.7680    1.1250    1.0420 C.3       9 GLL5        0.0000 
      3 CA        -24.7360   -0.2030    1.0510 C.3       6 GLP5        0.0000 
      4 CA        -21.0220    2.7350   -0.1385 C.3       3 GLC5        0.0000 
      5 CA        -21.2760    4.3450   -1.3190 C.3       6 GLP5        0.0000 
      6 CA        -23.0835   -1.6690    6.4935 C.3       3 GLC5        0.0000 
      7 CA        -21.3040   -1.2680    5.6790 C.3       9 GLL5        0.0000 
      8 CA        -24.8630   -2.0700    7.3080 C.3       6 GLP5        0.0000 
      9 CA        -21.8385    0.6045    6.5275 C.3       3 GLC5        0.0000 
     10 CA        -22.3730    2.4770    7.3760 C.3       6 GLP5        0.0000 
     11 CA        -21.4320   -2.9095    6.9775 C.3       3 GLC5        0.0000 
     12 CA        -21.5600   -4.5510    8.2760 C.3       6 GLP5        0.0000 
     13 CA        -22.0790   -2.5355    4.4960 C.3       3 GLC5        0.0000 
     14 CA        -22.8540   -3.8030    3.3130 C.3       6 GLP5        0.0000 
     15 CA        -17.9850   -3.0690    6.3530 C.3       3 GLC5        0.0000 
     16 CA        -19.3310   -2.4800    4.7750 C.3       9 GLL5        0.0000 
     17 CA        -16.6390   -3.6580    7.9310 C.3       6 GLP5        0.0000 
     18 CA        -19.2950   -4.1045    4.0860 C.3       3 GLC5        0.0000 
     19 CA        -19.2590   -5.7290    3.3970 C.3       6 GLP5        0.0000 
     20 CA        -21.0925   -3.1415    4.0440 C.3       3 GLC5        0.0000 
     21 CA        -19.9840   -2.3440    8.0540 C.3       3 GLC5        0.0000 
     22 CA        -19.1990   -1.0090    6.8170 C.3       9 GLL5        0.0000 
     23 CA        -20.7690   -3.6790    9.2910 C.3       6 GLP5        0.0000 
     24 CA        -16.8585   -0.1705    8.8775 C.3       3 GLC5        0.0000 
     25 CA        -17.8760   -0.2710    6.9240 C.3       9 GLL5        0.0000 
     26 CA        -15.8410   -0.0700   10.8310 C.3       6 GLP5        0.0000 
     27 CA        -16.0020    3.0325    5.2465 C.3       3 GLC5        0.0000 
     28 CA        -16.2910    1.1500    5.7920 C.3       9 GLL5        0.0000 
     29 CA        -15.7130    4.9150    4.7010 C.3       6 GLP5        0.0000 
     30 CA        -14.7190    1.5550    6.5695 C.3       3 GLC5        0.0000 
     31 CA        -13.1470    1.9600    7.3470 C.3       6 GLP5        0.0000 
     32 CA        -20.2775    2.3660    7.1645 C.3       3 GLC5        0.0000 
     33 CA        -18.1820    2.2550    6.9530 C.3       9 GLL5        0.0000 
     34 CA        -16.9475    3.5850    5.8270 C.3       3 GLC5        0.0000 
     35 CA        -18.5835    4.0820    7.3485 C.3       3 GLC5        0.0000 
     36 CA        -18.9850    5.9090    7.7440 C.3       6 GLP5        0.0000 
     37 CA        -18.3070    2.2125    8.8490 C.3       3 GLC5        0.0000 
     38 CA        -18.4320    2.1700   10.7450 C.3       6 GLP5        0.0000 
     39 N         -16.5955    1.6655   -0.5980 N.am      1 SEC2        0.0000 
     40 N         -17.4850    1.8220    0.3400 N.am      7 SEL2        0.0000 
     41 N         -15.7060    1.5090   -1.5360 N.am      4 SEP2        0.0000 
     42 CA        -21.4780    7.4150    1.8525 C.3       3 GLC5        0.0000 
     43 CA        -19.5570    6.8560    1.6540 C.3       9 GLL5        0.0000 
     44 CA        -23.3990    7.9740    2.0510 C.3       6 GLP5        0.0000 
     45 CA        -20.5765    6.3415    0.0780 C.3       3 GLC5        0.0000 
     46 CA        -21.5960    5.8270   -1.4980 C.3       6 GLP5        0.0000 
     47 CA        -20.4500    7.1530    3.6275 C.3       3 GLC5        0.0000 
     48 CA        -21.3430    7.4500    5.6010 C.3       6 GLP5        0.0000 
     49 CA        -19.5180    9.4455   -0.0395 C.3       3 GLC5        0.0000 
     50 CA        -18.9020    8.0600    1.3730 C.3       9 GLL5        0.0000 
     51 CA        -20.1340   10.8310   -1.4520 C.3       6 GLP5        0.0000 
     52 N         -20.9570   10.6595    2.9500 N.am      1 SEC2        0.0000 
     53 N         -20.3880    9.4520    2.4390 N.am      7 SEL2        0.0000 
     54 N         -21.5260   11.8670    3.4610 N.am      4 SEP2        0.0000 
     55 NZ        -17.9955   11.8455    1.6115 N.4       2 LYC4        0.0000 
     56 NZ        -18.6270   10.3070    1.4430 N.4       8 LYL4        0.0000 
     57 NZ        -17.6160   13.2840    3.0790 N.4       5 LYP4        0.0000 
     58 N         -18.3665   11.2295    2.5110 N.am      1 SEC2        0.0000 
     59 N         -18.6270   10.3070    1.4430 N.am      7 SEL2        0.0000 
     60 N         -18.1060   12.1520    3.5790 N.am      4 SEP2        0.0000 
     61 N         -17.9955   11.8455    1.6115 N.am      1 SEC2        0.0000 
     62 N         -17.3640   13.3840    1.7800 N.am      4 SEP2        0.0000 
     63 CA        -21.0213    2.1467    3.0475 C.3       3 GLC5        0.0000 
     64 CA        -19.9490    1.1380    2.3500 C.3       9 GLL5        0.0000 
     65 CA        -21.6840    3.1620    4.3990 C.3       6 GLP5        0.0000 
     66 CA        -20.7518    1.6117    4.1345 C.3       3 GLC5        0.0000 
     67 CA        -20.1580    0.0970    3.2590 C.3       9 GLL5        0.0000 
     68 CA        -20.8176   -0.6779    1.1767 C.3       3 GLC5        0.0000 
     69 CA        -21.3770   -1.9700   -0.1240 C.3       6 GLP5        0.0000 
     70 CA        -17.5883   -2.1490    7.4008 C.3       3 GLC5        0.0000 
     71 CA        -16.0491   -0.0419    4.8821 C.3       3 GLC5        0.0000 
     72 CA        -15.0450   -0.8500    3.6070 C.3       6 GLP5        0.0000 
     73 CA        -20.0650    2.3620    4.3662 C.3       3 GLC5        0.0000 
     74 CA        -18.5540    1.0410    4.7970 C.3       9 GLL5        0.0000 
     75 CA        -16.7455    0.3560    3.9703 C.3       3 GLC5        0.0000 
     76 CA        -18.3380    2.0830    3.8700 C.3       9 GLL5        0.0000 
     77 CA        -20.1480    4.1073    0.3070 C.3       3 GLC5        0.0000 
     78 CA        -18.7720    3.2320    1.7810 C.3       9 GLL5        0.0000 
     79 CA        -20.3843    3.3806    3.2746 C.3       3 GLC5        0.0000 
     80 CA        -19.2680    4.5070    2.0850 C.3       9 GLL5        0.0000 
     81 CA        -19.5665    3.9775   -0.5535 C.3       3 GLC5        0.0000 
     82 CA        -17.9870    3.0620    0.6310 C.3       9 GLL5        0.0000 
     83 CA        -15.8390    3.4365    0.8945 C.3       3 GLC5        0.0000 
     84 CA        -17.7270    4.1580   -0.2070 C.3       9 GLL5        0.0000 
     85 CA        -13.8210    3.2630    1.5770 C.3       6 GLP5        0.0000 
     86 CA        -16.8463    5.8262   -1.0528 C.3       3 GLC5        0.0000 
     87 CA        -15.7080    6.8590   -2.0560 C.3       6 GLP5        0.0000 
     88 CA        -19.9560    4.9322   -0.3182 C.3       3 GLC5        0.0000 
     89 CA        -18.2420    5.4290    0.1080 C.3       9 GLL5        0.0000 
     90 CA        -17.7983    7.1180    2.4007 C.3       3 GLC5        0.0000 
     91 CA        -16.3670    6.7780    3.2880 C.3       6 GLP5        0.0000 
@<TRIPOS>BOND
@<TRIPOS>SUBSTRUCTURE
     1 SEC2       39 GROUP        1 X    SEC  0     ROOT SEC X 2
     2 LYC4       55 GROUP        1 X    LYC  0     **** LYC X 4
     3 GLC5        1 GROUP        1 X    GLC  0     **** GLC X 6
     4 SEP2       41 GROUP        1 Y    SEP  0     ROOT SEP Y 9
     5 LYP4       57 GROUP        1 Y    LYP  0     **** LYP Y 11
     6 GLP5        3 GROUP        1 Y    GLP  0     **** GLP Y 13
     7 SEL2       40 GROUP        1 Z    SEL  0     ROOT SEL Z 16
     8 LYL4       56 GROUP        1 Z    LYL  0     **** LYL Z 18
     9 GLL5        2 GROUP        1 Z    GLL  0     **** GLL Z 20
@<TRIPOS>SET

