#    Name: 3fug_2E3_1_ligand
#    Modification time : Tue Mar 25 06:29:40 2014

@<TRIPOS>MOLECULE
3fug_2E3_1_ligand
   54    56     1     0     0
SMALL
NO_CHARGES


@<TRIPOS>ATOM
      1 CAA       -20.7680    1.1250    1.0420 C.3       1 2E31        0.0000 
      2 CAS       -19.9490    1.1380    2.3500 C.ar      1 2E31        0.0000 
      3 CAN       -20.1580    0.0970    3.2590 C.ar      1 2E31        0.0000 
      4 CAX       -19.4810    0.0260    4.4810 C.ar      1 2E31        0.0000 
      5 CAZ       -19.7980   -1.1690    5.4270 C.3       1 2E31        0.0000 
      6 CAB       -21.3040   -1.2680    5.6790 C.3       1 2E31        0.0000 
      7 CAC       -19.3310   -2.4800    4.7750 C.3       1 2E31        0.0000 
      8 CAP       -19.1990   -1.0090    6.8170 C.3       1 2E31        0.0000 
      9 CAQ       -17.8760   -0.2710    6.9240 C.3       1 2E31        0.0000 
     10 CBA       -17.7550    1.0360    6.1210 C.3       1 2E31        0.0000 
     11 CAD       -16.2910    1.1500    5.7920 C.3       1 2E31        0.0000 
     12 CAE       -18.1820    2.2550    6.9530 C.3       1 2E31        0.0000 
     13 CAY       -18.5540    1.0410    4.7970 C.ar      1 2E31        0.0000 
     14 CAO       -18.3380    2.0830    3.8700 C.ar      1 2E31        0.0000 
     15 CAV       -19.0300    2.1510    2.6500 C.ar      1 2E31        0.0000 
     16 CAW       -18.7720    3.2320    1.7810 C.ar      1 2E31        0.0000 
     17 CAM       -19.2680    4.5070    2.0850 C.ar      1 2E31        0.0000 
     18 CAU       -17.9870    3.0620    0.6310 C.ar      1 2E31        0.0000 
     19 OAH       -17.4850    1.8220    0.3400 O.3       1 2E31        0.0000 
     20 CAL       -17.7270    4.1580   -0.2070 C.ar      1 2E31        0.0000 
     21 CAK       -18.2420    5.4290    0.1080 C.ar      1 2E31        0.0000 
     22 CAT       -19.0300    5.6100    1.2570 C.ar      1 2E31        0.0000 
     23 CAJ       -19.5570    6.8560    1.6540 C.2       1 2E31        0.0000 
     24 CAI       -18.9020    8.0600    1.3730 C.2       1 2E31        0.0000 
     25 CAR       -19.3390    9.3330    1.7740 C.2       1 2E31        0.0000 
     26 OAG       -20.3880    9.4520    2.4390 O.co2     1 2E31        0.0000 
     27 OAF       -18.6270   10.3070    1.4430 O.co2     1 2E31        0.0000 
     28 H         -20.8411   -0.6517    3.0187 H         1 2E31        0.0000 
     29 H         -19.0786   -2.0249    7.2702 H         1 2E31        0.0000 
     30 H         -19.9486   -0.4941    7.4689 H         1 2E31        0.0000 
     31 H         -17.0546   -0.9518    6.6063 H         1 2E31        0.0000 
     32 H         -17.6747   -0.0415    7.9945 H         1 2E31        0.0000 
     33 H         -17.6456    2.8205    4.0998 H         1 2E31        0.0000 
     34 H         -19.8282    4.6363    2.9498 H         1 2E31        0.0000 
     35 H         -17.1600    4.0333   -1.0518 H         1 2E31        0.0000 
     36 H         -18.0407    6.2263   -0.5045 H         1 2E31        0.0000 
     37 H         -20.4571    6.8758    2.1694 H         1 2E31        0.0000 
     38 H         -18.0019    8.0094    0.8115 H         1 2E31        0.0000 
     39 H         -20.5471    1.9059    0.4577 H         1 2E31        0.0000 
     40 H         -20.5967    0.2992    0.5047 H         1 2E31        0.0000 
     41 H         -21.7515    1.1606    1.2193 H         1 2E31        0.0000 
     42 H         -21.5295   -2.0290    6.2872 H         1 2E31        0.0000 
     43 H         -21.6651   -0.4373    6.1027 H         1 2E31        0.0000 
     44 H         -21.8140   -1.4098    4.8306 H         1 2E31        0.0000 
     45 H         -18.3480   -2.4740    4.5915 H         1 2E31        0.0000 
     46 H         -19.5155   -3.2711    5.3582 H         1 2E31        0.0000 
     47 H         -19.7910   -2.6453    3.9026 H         1 2E31        0.0000 
     48 H         -15.7265    1.1834    6.6168 H         1 2E31        0.0000 
     49 H         -15.9709    0.3738    5.2489 H         1 2E31        0.0000 
     50 H         -16.0917    1.9773    5.2667 H         1 2E31        0.0000 
     51 H         -17.6211    2.3590    7.7743 H         1 2E31        0.0000 
     52 H         -18.1017    3.1057    6.4336 H         1 2E31        0.0000 
     53 H         -19.1328    2.1843    7.2545 H         1 2E31        0.0000 
     54 H         -17.5478    1.3099    1.1966 H         1 2E31        0.0000 
@<TRIPOS>BOND
     1    2    1 1    
     2   39    1 1    
     3   40    1 1    
     4   41    1 1    
     5    3    2 ar   
     6   15    2 ar   
     7    4    3 ar   
     8   28    3 1    
     9    5    4 1    
    10   13    4 ar   
    11    6    5 1    
    12    7    5 1    
    13    8    5 1    
    14   42    6 1    
    15   43    6 1    
    16   44    6 1    
    17   45    7 1    
    18   46    7 1    
    19   47    7 1    
    20    9    8 1    
    21   29    8 1    
    22   30    8 1    
    23   10    9 1    
    24   31    9 1    
    25   32    9 1    
    26   11   10 1    
    27   12   10 1    
    28   13   10 1    
    29   48   11 1    
    30   49   11 1    
    31   50   11 1    
    32   51   12 1    
    33   52   12 1    
    34   53   12 1    
    35   14   13 ar   
    36   15   14 ar   
    37   33   14 1    
    38   16   15 1    
    39   17   16 ar   
    40   18   16 ar   
    41   22   17 ar   
    42   34   17 1    
    43   19   18 1    
    44   20   18 ar   
    45   54   19 1    
    46   21   20 ar   
    47   35   20 1    
    48   22   21 ar   
    49   36   21 1    
    50   23   22 1    
    51   24   23 2    
    52   37   23 1    
    53   25   24 1    
    54   38   24 1    
    55   26   25 ar   
    56   27   25 ar   
@<TRIPOS>SUBSTRUCTURE
     1 2E31        1 GROUP   
@<TRIPOS>SET

