#    Name: 4im7_NAI_1_INTS_M
#    Modification time : Tue Mar 25 04:08:44 2014

@<TRIPOS>MOLECULE
4im7_NAI_1_INTS_M
   69     0     9     0     0
SMALL
NO_CHARGES


@<TRIPOS>ATOM
      1 N          31.9125    6.8355   11.9210 N.am      2 SEC2        0.0000 
      2 N          31.6880    7.7370   10.7210 N.am      8 SEL2        0.0000 
      3 N          32.1370    5.9340   13.1210 N.am      5 SEP2        0.0000 
      4 CA         28.8315   12.1205   11.3315 C.3       3 GLC5        0.0000 
      5 CA         28.7390   10.1300   11.3540 C.3       9 GLL5        0.0000 
      6 CA         28.9240   14.1110   11.3090 C.3       6 GLP5        0.0000 
      7 O          25.1100    7.0490   13.1325 O.2       1 ALC1        0.0000 
      8 O          26.2870    7.7590   12.5760 O.2       7 ALL1        0.0000 
      9 O          23.9330    6.3390   13.6890 O.2       4 ALP1        0.0000 
     10 O          23.3280    8.8950   10.2410 O.2       1 ALC1        0.0000 
     11 O          24.3690    8.4420   10.9980 O.2       7 ALL1        0.0000 
     12 O          22.2870    9.3480    9.4840 O.2       4 ALP1        0.0000 
     13 CA         25.2615    9.6440   13.7750 C.3       3 GLC5        0.0000 
     14 CA         25.3370   10.5250   11.8510 C.3       9 GLL5        0.0000 
     15 CA         25.1860    8.7630   15.6990 C.3       6 GLP5        0.0000 
     16 CA         25.6145   11.9650   13.3130 C.3       3 GLC5        0.0000 
     17 CA         25.8920   13.4050   14.7750 C.3       6 GLP5        0.0000 
     18 CA         21.9275   12.5190    9.4030 C.3       3 GLC5        0.0000 
     19 CA         23.3090   13.3660   10.6760 C.3       9 GLL5        0.0000 
     20 CA         20.5460   11.6720    8.1300 C.3       6 GLP5        0.0000 
     21 CA         20.3005   13.7240   10.3785 C.3       3 GLC5        0.0000 
     22 CA         22.0930   14.1790   10.9430 C.3       9 GLL5        0.0000 
     23 CA         18.5080   13.2690    9.8140 C.3       6 GLP5        0.0000 
     24 CA         22.6365   15.7990   11.7880 C.3       3 GLC5        0.0000 
     25 CA         23.1800   17.4190   12.6330 C.3       6 GLP5        0.0000 
     26 CA         20.8005   11.9920   11.1360 C.3       3 GLC5        0.0000 
     27 CA         21.6550   12.8100   12.8310 C.3       9 GLL5        0.0000 
     28 CA         19.9460   11.1740    9.4410 C.3       6 GLP5        0.0000 
     29 CA         23.0545   13.3310   13.9775 C.3       3 GLC5        0.0000 
     30 CA         24.4540   13.8520   15.1240 C.3       6 GLP5        0.0000 
     31 CA         21.7660   11.7165   10.5235 C.3       3 GLC5        0.0000 
     32 CA         23.5860   12.2590   11.6060 C.3       9 GLL5        0.0000 
     33 CA         24.0200   13.0555   13.3650 C.3       3 GLC5        0.0000 
     34 N          32.9670    8.1365   14.1975 N.am      2 SEC2        0.0000 
     35 N          32.0850    9.0190   13.4940 N.am      8 SEL2        0.0000 
     36 N          33.8490    7.2540   14.9010 N.am      5 SEP2        0.0000 
     37 N          31.3675    8.7665   14.5655 N.am      2 SEC2        0.0000 
     38 N          30.6500    8.5140   15.6370 N.am      5 SEP2        0.0000 
     39 CA         32.8450   10.6800   14.8875 C.3       3 GLC5        0.0000 
     40 CA         31.3440   11.9350   13.7960 C.3       9 GLL5        0.0000 
     41 CA         34.3460    9.4250   15.9790 C.3       6 GLP5        0.0000 
     42 CA         30.3620   15.0460   13.5390 C.3       3 GLC5        0.0000 
     43 CA         32.3180   14.2780   13.9480 C.3       9 GLL5        0.0000 
     44 CA         28.4060   15.8140   13.1300 C.3       6 GLP5        0.0000 
     45 CA         33.7290   16.9120   15.7940 C.3       3 GLC5        0.0000 
     46 CA         32.9700   15.0320   15.0860 C.3       9 GLL5        0.0000 
     47 CA         34.4880   18.7920   16.5020 C.3       6 GLP5        0.0000 
     48 N          32.2125   17.0505   16.6380 N.am      2 SEC2        0.0000 
     49 N          32.0130   15.9650   15.6360 N.am      8 SEL2        0.0000 
     50 N          32.4120   18.1360   17.6400 N.am      5 SEP2        0.0000 
     51 O          30.6840   15.5765   15.9720 O.2       1 ALC1        0.0000 
     52 O          32.0130   15.9650   15.6360 O.2       7 ALL1        0.0000 
     53 O          29.3550   15.1880   16.3080 O.2       4 ALP1        0.0000 
     54 CA         33.6880   12.2985   17.1250 C.3       3 GLC5        0.0000 
     55 CA         33.2660   13.9350   16.1000 C.3       9 GLL5        0.0000 
     56 CA         34.1100   10.6620   18.1500 C.3       6 GLP5        0.0000 
     57 CA         26.1547    8.9878   13.7855 C.3       3 GLC5        0.0000 
     58 CA         27.5190    9.7780   12.1950 C.3       9 GLL5        0.0000 
     59 CA         28.4563    7.7587   12.7135 C.3       3 GLC5        0.0000 
     60 CA         29.7890    6.3050   13.5550 C.3       6 GLP5        0.0000 
     61 CA         30.3972   11.9075   15.8912 C.3       3 GLC5        0.0000 
     62 CA         29.3350   11.2680   17.5470 C.3       6 GLP5        0.0000 
     63 CA         30.1917   13.3290   12.7722 C.3       3 GLC5        0.0000 
     64 CA         31.5750   13.1590   14.6750 C.3       9 GLL5        0.0000 
     65 CA         35.1370   11.0538   15.5255 C.3       3 GLC5        0.0000 
     66 CA         35.2480   12.8500   15.0800 C.3       9 GLL5        0.0000 
     67 CA         35.6307   14.2960   18.8553 C.3       3 GLC5        0.0000 
     68 CA         35.4380   14.0220   17.0970 C.3       9 GLL5        0.0000 
     69 CA         35.1470   14.7000   20.5610 C.3       6 GLP5        0.0000 
@<TRIPOS>BOND
@<TRIPOS>SUBSTRUCTURE
     1 ALC1        7 GROUP        1 X    ALC  0     ROOT ALC X 1
     2 SEC2        1 GROUP        1 X    SEC  0     **** SEC X 2
     3 GLC5        4 GROUP        1 X    GLC  0     **** GLC X 6
     4 ALP1        9 GROUP        1 Y    ALP  0     ROOT ALP Y 8
     5 SEP2        3 GROUP        1 Y    SEP  0     **** SEP Y 9
     6 GLP5        6 GROUP        1 Y    GLP  0     **** GLP Y 13
     7 ALL1        8 GROUP        1 Z    ALL  0     ROOT ALL Z 15
     8 SEL2        2 GROUP        1 Z    SEL  0     **** SEL Z 16
     9 GLL5        5 GROUP        1 Z    GLL  0     **** GLL Z 20
@<TRIPOS>SET

