#    Name: 4im7_NAI_1_ligand
#    Modification time : Tue Mar 25 04:08:44 2014

@<TRIPOS>MOLECULE
4im7_NAI_1_ligand
   71    75     1     0     0
SMALL
NO_CHARGES


@<TRIPOS>ATOM
      1 PA         31.0070    9.0780   10.5550 P.3       1 NAI502      0.0000 
      2 O1A        30.6790    9.6370    9.1830 O.co2     1 NAI502      0.0000 
      3 O2A        31.6880    7.7370   10.7210 O.co2     1 NAI502      0.0000 
      4 O5B        29.6550    9.0430   11.4150 O.3       1 NAI502      0.0000 
      5 C5B        28.7390   10.1300   11.3540 C.3       1 NAI502      0.0000 
      6 C4B        27.5190    9.7780   12.1950 C.3       1 NAI502      0.0000 
      7 O4B        26.6520   10.9110   12.2760 O.3       1 NAI502      0.0000 
      8 C3B        26.7280    8.6470   11.5490 C.3       1 NAI502      0.0000 
      9 O3B        26.2870    7.7590   12.5760 O.3       1 NAI502      0.0000 
     10 C2B        25.5100    9.3150   10.9470 C.3       1 NAI502      0.0000 
     11 O2B        24.3690    8.4420   10.9980 O.3       1 NAI502      0.0000 
     12 C1B        25.3370   10.5250   11.8510 C.3       1 NAI502      0.0000 
     13 N9A        24.7070   11.6820   11.1740 N.pl3     1 NAI502      0.0000 
     14 C8A        25.1420   12.3320   10.0680 C.2       1 NAI502      0.0000 
     15 N7A        24.3000   13.3550    9.7530 N.2       1 NAI502      0.0000 
     16 C5A        23.3090   13.3660   10.6760 C.ar      1 NAI502      0.0000 
     17 C6A        22.0930   14.1790   10.9430 C.ar      1 NAI502      0.0000 
     18 N6A        21.7520   15.2200   10.1310 N.pl3     1 NAI502      0.0000 
     19 N1A        21.3310   13.8390   12.0190 N.ar      1 NAI502      0.0000 
     20 C2A        21.6550   12.8100   12.8310 C.ar      1 NAI502      0.0000 
     21 N3A        22.7400   12.0300   12.6460 N.ar      1 NAI502      0.0000 
     22 C4A        23.5860   12.2590   11.6060 C.ar      1 NAI502      0.0000 
     23 O3         31.8470   10.2440   11.2840 O.3       1 NAI502      0.0000 
     24 PN         32.7480   10.0400   12.6050 P.3       1 NAI502      0.0000 
     25 O1N        34.1960    9.8910   12.2010 O.co2     1 NAI502      0.0000 
     26 O2N        32.0850    9.0190   13.4940 O.co2     1 NAI502      0.0000 
     27 O5D        32.5980   11.5060   13.2600 O.3       1 NAI502      0.0000 
     28 C5D        31.3440   11.9350   13.7960 C.3       1 NAI502      0.0000 
     29 C4D        31.5750   13.1590   14.6750 C.3       1 NAI502      0.0000 
     30 O4D        32.4370   12.8060   15.7670 O.3       1 NAI502      0.0000 
     31 C3D        32.3180   14.2780   13.9480 C.3       1 NAI502      0.0000 
     32 O3D        31.4610   15.1380   13.1840 O.3       1 NAI502      0.0000 
     33 C2D        32.9700   15.0320   15.0860 C.3       1 NAI502      0.0000 
     34 O2D        32.0130   15.9650   15.6360 O.3       1 NAI502      0.0000 
     35 C1D        33.2660   13.9350   16.1000 C.3       1 NAI502      0.0000 
     36 N1N        34.6990   13.5800   16.0790 N.pl3     1 NAI502      0.0000 
     37 C2N        35.2480   12.8500   15.0800 C.2       1 NAI502      0.0000 
     38 C3N        36.6080   12.5150   15.0640 C.2       1 NAI502      0.0000 
     39 C7N        37.2760   11.6950   13.9740 C.2       1 NAI502      0.0000 
     40 O7N        36.5900   11.0920   13.1550 O.2       1 NAI502      0.0000 
     41 N7N        38.6310   11.6410   13.9230 N.am      1 NAI502      0.0000 
     42 C4N        37.4820   12.9750   16.1980 C.3       1 NAI502      0.0000 
     43 C5N        36.7910   13.7620   17.2020 C.2       1 NAI502      0.0000 
     44 C6N        35.4380   14.0220   17.0970 C.2       1 NAI502      0.0000 
     45 H          28.3999   10.3219   10.3342 H         1 NAI502      0.0000 
     46 H          29.1692   11.0499   11.7548 H         1 NAI502      0.0000 
     47 H          27.8385    9.4612   13.1640 H         1 NAI502      0.0000 
     48 H          27.2941    8.1970   10.8070 H         1 NAI502      0.0000 
     49 H          25.7548    9.6504    9.9779 H         1 NAI502      0.0000 
     50 H          24.7502   10.2302   12.7053 H         1 NAI502      0.0000 
     51 H          25.9458   12.1025    9.5644 H         1 NAI502      0.0000 
     52 H          20.8952   15.6867   10.3502 H         1 NAI502      0.0000 
     53 H          22.3888   15.4252    9.3877 H         1 NAI502      0.0000 
     54 H          21.0200   12.6036   13.6614 H         1 NAI502      0.0000 
     55 H          30.8802   11.1607   14.4122 H         1 NAI502      0.0000 
     56 H          30.6404   12.2145   13.0079 H         1 NAI502      0.0000 
     57 H          30.6479   13.5373   15.0311 H         1 NAI502      0.0000 
     58 H          33.0980   13.8301   13.3682 H         1 NAI502      0.0000 
     59 H          33.8547   15.4637   14.7639 H         1 NAI502      0.0000 
     60 H          32.9970   14.3193   17.0774 H         1 NAI502      0.0000 
     61 H          34.6539   12.5156   14.2847 H         1 NAI502      0.0000 
     62 H          39.1187   12.1550   14.6286 H         1 NAI502      0.0000 
     63 H          39.0220   11.0920   13.1843 H         1 NAI502      0.0000 
     64 H          38.3314   13.5560   15.7690 H         1 NAI502      0.0000 
     65 H          37.9478   12.0761   16.6650 H         1 NAI502      0.0000 
     66 H          37.3429   14.1183   17.9923 H         1 NAI502      0.0000 
     67 H          34.9904   14.5955   17.8641 H         1 NAI502      0.0000 
     68 H          25.3527    7.5110   12.3200 H         1 NAI502      0.0000 
     69 H          23.9030    8.5740   10.1231 H         1 NAI502      0.0000 
     70 H          31.4824   16.0159   13.6624 H         1 NAI502      0.0000 
     71 H          31.1716   15.4365   15.7483 H         1 NAI502      0.0000 
@<TRIPOS>BOND
     1    2    1 ar   
     2    3    1 ar   
     3    4    1 1    
     4   23    1 1    
     5    5    4 1    
     6    6    5 1    
     7   45    5 1    
     8   46    5 1    
     9    7    6 1    
    10    8    6 1    
    11   47    6 1    
    12   12    7 1    
    13    9    8 1    
    14   10    8 1    
    15   48    8 1    
    16   68    9 1    
    17   11   10 1    
    18   12   10 1    
    19   49   10 1    
    20   69   11 1    
    21   13   12 1    
    22   50   12 1    
    23   14   13 1    
    24   22   13 1    
    25   15   14 2    
    26   51   14 1    
    27   16   15 1    
    28   17   16 ar   
    29   22   16 ar   
    30   18   17 1    
    31   19   17 ar   
    32   52   18 1    
    33   53   18 1    
    34   20   19 ar   
    35   21   20 ar   
    36   54   20 1    
    37   22   21 ar   
    38   24   23 1    
    39   25   24 ar   
    40   26   24 ar   
    41   27   24 1    
    42   28   27 1    
    43   29   28 1    
    44   55   28 1    
    45   56   28 1    
    46   30   29 1    
    47   31   29 1    
    48   57   29 1    
    49   35   30 1    
    50   32   31 1    
    51   33   31 1    
    52   58   31 1    
    53   70   32 1    
    54   34   33 1    
    55   35   33 1    
    56   59   33 1    
    57   71   34 1    
    58   36   35 1    
    59   60   35 1    
    60   37   36 1    
    61   44   36 1    
    62   38   37 2    
    63   61   37 1    
    64   39   38 1    
    65   42   38 1    
    66   40   39 2    
    67   41   39 am   
    68   62   41 1    
    69   63   41 1    
    70   43   42 1    
    71   64   42 1    
    72   65   42 1    
    73   44   43 2    
    74   66   43 1    
    75   67   44 1    
@<TRIPOS>SUBSTRUCTURE
     1 NAI502      1 GROUP   
@<TRIPOS>SET

