#    Name: 2ycf_YCF_1_INTS_M
#    Modification time : Tue Mar 25 08:40:31 2014

@<TRIPOS>MOLECULE
2ycf_YCF_1_INTS_M
   84     0     9     0     0
SMALL
NO_CHARGES


@<TRIPOS>ATOM
      1 O          46.6800   22.5335  -10.7675 O.2       1 ALC1        0.0000 
      2 O          46.7270   22.9070  -12.1180 O.2       7 ALL1        0.0000 
      3 O          46.6330   22.1600   -9.4170 O.2       4 ALP1        0.0000 
      4 O          44.4915   15.4120   -5.8355 O.2       1 ALC1        0.0000 
      5 O          45.8540   14.9470   -6.1840 O.2       7 ALL1        0.0000 
      6 O          43.1290   15.8770   -5.4870 O.2       4 ALP1        0.0000 
      7 O          47.5955   10.3890    1.6315 O.2       1 ALC1        0.0000 
      8 O          47.0560   11.5380    0.4830 O.2       7 ALL1        0.0000 
      9 O          48.1350    9.2400    2.7800 O.2       4 ALP1        0.0000 
     10 O          47.1685   10.1695    0.6370 O.2       1 ALC1        0.0000 
     11 O          47.2810    8.8010    0.7910 O.2       4 ALP1        0.0000 
     12 O          47.4925   10.3570    2.7990 O.2       1 ALC1        0.0000 
     13 O          46.8500   11.4740    2.8180 O.2       7 ALL1        0.0000 
     14 O          47.0655   10.1375    1.8045 O.2       1 ALC1        0.0000 
     15 CA         49.3095   17.1670  -13.3580 C.3       3 GLC5        0.0000 
     16 CA         47.5420   18.3330  -14.0280 C.3       9 GLL5        0.0000 
     17 CA         51.0770   16.0010  -12.6880 C.3       6 GLP5        0.0000 
     18 CA         47.6190   16.8340  -15.2705 C.3       3 GLC5        0.0000 
     19 CA         47.6960   15.3350  -16.5130 C.3       6 GLP5        0.0000 
     20 CA         45.6665   17.5555  -13.4790 C.3       3 GLC5        0.0000 
     21 CA         43.7910   16.7780  -12.9300 C.3       6 GLP5        0.0000 
     22 CA         48.0550   17.0795   -7.9725 C.3       3 GLC5        0.0000 
     23 CA         46.2350   16.8830   -9.1600 C.3       9 GLL5        0.0000 
     24 CA         49.8750   17.2760   -6.7850 C.3       6 GLP5        0.0000 
     25 CA         44.8460   15.2220   -8.9840 C.3       3 GLC5        0.0000 
     26 CA         43.4570   13.5610   -8.8080 C.3       6 GLP5        0.0000 
     27 CA         49.1670   17.9610  -11.0170 C.3       3 GLC5        0.0000 
     28 CA         47.3190   16.9690  -11.3500 C.3       9 GLL5        0.0000 
     29 CA         51.0150   18.9530  -10.6840 C.3       6 GLP5        0.0000 
     30 CA         49.1980   16.4850  -12.0190 C.3       3 GLC5        0.0000 
     31 CA         44.5105   12.0340   -1.9685 C.3       3 GLC5        0.0000 
     32 CA         45.7780   13.3420   -2.9150 C.3       9 GLL5        0.0000 
     33 CA         43.2430   10.7260   -1.0220 C.3       6 GLP5        0.0000 
     34 CA         48.3340   13.5225   -2.0990 C.3       3 GLC5        0.0000 
     35 CA         46.8970   12.5000   -2.9360 C.3       9 GLL5        0.0000 
     36 CA         49.7710   14.5450   -1.2620 C.3       6 GLP5        0.0000 
     37 CA         45.5330   11.0035   -2.0415 C.3       3 GLC5        0.0000 
     38 CA         44.1690    9.5070   -1.1470 C.3       6 GLP5        0.0000 
     39 CA         49.4560   12.3220   -5.0550 C.3       3 GLC5        0.0000 
     40 CA         47.6910   12.4740   -4.1020 C.3       9 GLL5        0.0000 
     41 CA         51.2210   12.1700   -6.0080 C.3       6 GLP5        0.0000 
     42 CA         46.1885   11.1300   -4.7650 C.3       3 GLC5        0.0000 
     43 CA         44.6860    9.7860   -5.4280 C.3       6 GLP5        0.0000 
     44 CA         48.4860   12.1580   -6.3865 C.3       3 GLC5        0.0000 
     45 CA         47.3700   13.2740   -5.2140 C.3       9 GLL5        0.0000 
     46 CA         49.6020   11.0420   -7.5590 C.3       6 GLP5        0.0000 
     47 CA         48.9125   12.4960   -1.6010 C.3       3 GLC5        0.0000 
     48 CA         48.0540   10.4470   -1.9400 C.3       9 GLL5        0.0000 
     49 CA         49.7135   10.4590   -0.6170 C.3       3 GLC5        0.0000 
     50 CA         51.3730   10.4710    0.7060 C.3       6 GLP5        0.0000 
     51 CA         46.1115    9.9770   -1.5435 C.3       3 GLC5        0.0000 
     52 OD1        47.4925   10.3570    2.7990 O.co2     2 ASC3        0.0000 
     53 OD1        46.6480   12.0810    1.6420 O.co2     8 ASL3        0.0000 
     54 OD1        48.1350    9.2400    2.7800 O.co2     5 ASP3        0.0000 
     55 OD1        47.0655   10.1375    1.8045 O.co2     2 ASC3        0.0000 
     56 OD1        47.2810    8.8010    0.7910 O.co2     5 ASP3        0.0000 
     57 OD1        45.2035   11.4015    1.4940 O.co2     2 ASC3        0.0000 
     58 OD1        43.7590   10.7220    1.3460 O.co2     5 ASP3        0.0000 
     59 O          44.2765   13.1315    3.0280 O.2       1 ALC1        0.0000 
     60 O          45.5150   13.7630    2.7930 O.2       7 ALL1        0.0000 
     61 O          43.0380   12.5000    3.2630 O.2       4 ALP1        0.0000 
     62 CA         45.0972   17.6578  -11.9982 C.3       3 GLC5        0.0000 
     63 CA         46.0110   18.8340  -10.5680 C.3       9 GLL5        0.0000 
     64 CA         47.7129   19.4754  -10.0151 C.3       3 GLC5        0.0000 
     65 CA         49.3570   20.5980   -9.8080 C.3       6 GLP5        0.0000 
     66 CA         44.8877   17.1517  -11.0995 C.3       3 GLC5        0.0000 
     67 CA         45.7340   18.1680   -9.3780 C.3       9 GLL5        0.0000 
     68 CA         43.9038   17.3563   -8.8180 C.3       3 GLC5        0.0000 
     69 CA         41.8230   17.1870   -8.3670 C.3       6 GLP5        0.0000 
     70 CA         45.4822   16.7035  -11.8403 C.3       3 GLC5        0.0000 
     71 CA         47.0280   16.2890  -10.1510 C.3       9 GLL5        0.0000 
     72 CA         46.0793   12.7800   -6.9655 C.3       3 GLC5        0.0000 
     73 CA         46.2410   14.1060   -5.1900 C.3       9 GLL5        0.0000 
     74 CA         45.3530   11.8700   -8.7290 C.3       6 GLP5        0.0000 
     75 CA         47.2300   14.7235   -2.4820 C.3       3 GLC5        0.0000 
     76 CA         45.4700   14.1360   -4.0170 C.3       9 GLL5        0.0000 
     77 CA         48.8360   15.7080   -1.4980 C.3       6 GLP5        0.0000 
     78 CA         45.0928   11.9935   -4.1357 C.3       3 GLC5        0.0000 
     79 CA         43.8480   11.0660   -5.3460 C.3       6 GLP5        0.0000 
     80 CA         49.1347   13.6075   -3.5495 C.3       3 GLC5        0.0000 
     81 CA         50.7390   14.3410   -2.4410 C.3       6 GLP5        0.0000 
     82 CA         47.4744   15.5193   -4.8639 C.3       3 GLC5        0.0000 
     83 CA         48.3360   17.3410   -4.8190 C.3       6 GLP5        0.0000 
     84 CA         45.2304   12.3818   -5.1274 C.3       3 GLC5        0.0000 
@<TRIPOS>BOND
@<TRIPOS>SUBSTRUCTURE
     1 ALC1        1 GROUP        1 X    ALC  0     ROOT ALC X 1
     2 ASC3       52 GROUP        1 X    ASC  0     **** ASC X 3
     3 GLC5       15 GROUP        1 X    GLC  0     **** GLC X 6
     4 ALP1        3 GROUP        1 Y    ALP  0     ROOT ALP Y 8
     5 ASP3       54 GROUP        1 Y    ASP  0     **** ASP Y 10
     6 GLP5       17 GROUP        1 Y    GLP  0     **** GLP Y 13
     7 ALL1        2 GROUP        1 Z    ALL  0     ROOT ALL Z 15
     8 ASL3       53 GROUP        1 Z    ASL  0     **** ASL Z 17
     9 GLL5       16 GROUP        1 Z    GLL  0     **** GLL Z 20
@<TRIPOS>SET

