#    Name: 2ycf_YCF_1_ligand
#    Modification time : Tue Mar 25 08:40:31 2014

@<TRIPOS>MOLECULE
2ycf_YCF_1_ligand
   58    59     1     0     0
SMALL
NO_CHARGES


@<TRIPOS>ATOM
      1 NAA        46.7270   22.9070  -12.1180 N.pl3     1 YCF600      0.0000 
      2 NAB        47.3660   23.2680  -14.2880 N.pl3     1 YCF600      0.0000 
      3 NAC        47.2310   21.1070  -13.5160 N.pl3     1 YCF600      0.0000 
      4 NAD        46.9940   20.3110  -12.6010 N.2       1 YCF600      0.0000 
      5 NAE        45.9050   16.3120   -7.9750 N.am      1 YCF600      0.0000 
      6 NAF        45.8540   14.9470   -6.1840 N.am      1 YCF600      0.0000 
      7 NAG        46.8190   12.1420   -0.5790 N.2       1 YCF600      0.0000 
      8 NAH        47.0560   11.5380    0.4830 N.pl3     1 YCF600      0.0000 
      9 NAI        45.9740   13.2180    1.6260 N.pl3     1 YCF600      0.0000 
     10 NAJ        46.8500   11.4740    2.8180 N.pl3     1 YCF600      0.0000 
     11 CAK        47.1110   22.4230  -13.3010 C.cat     1 YCF600      0.0000 
     12 CAL        47.0690   18.9820  -12.7220 C.2       1 YCF600      0.0000 
     13 CAM        47.5420   18.3330  -14.0280 C.3       1 YCF600      0.0000 
     14 CAN        46.7960   18.2410  -11.5650 C.ar      1 YCF600      0.0000 
     15 CAO        46.0110   18.8340  -10.5680 C.ar      1 YCF600      0.0000 
     16 CAP        45.7340   18.1680   -9.3780 C.ar      1 YCF600      0.0000 
     17 CAQ        46.2350   16.8830   -9.1600 C.ar      1 YCF600      0.0000 
     18 CAR        47.0280   16.2890  -10.1510 C.ar      1 YCF600      0.0000 
     19 CAS        47.3190   16.9690  -11.3500 C.ar      1 YCF600      0.0000 
     20 CAT        46.4870   15.2830   -7.3270 C.2       1 YCF600      0.0000 
     21 CAU        46.2410   14.1060   -5.1900 C.ar      1 YCF600      0.0000 
     22 CAV        45.4700   14.1360   -4.0170 C.ar      1 YCF600      0.0000 
     23 CAW        45.7780   13.3420   -2.9150 C.ar      1 YCF600      0.0000 
     24 CAX        46.8970   12.5000   -2.9360 C.ar      1 YCF600      0.0000 
     25 CAY        47.6910   12.4740   -4.1020 C.ar      1 YCF600      0.0000 
     26 CAZ        47.3700   13.2740   -5.2140 C.ar      1 YCF600      0.0000 
     27 CBA        47.2040   11.7190   -1.8050 C.2       1 YCF600      0.0000 
     28 CBB        48.0540   10.4470   -1.9400 C.3       1 YCF600      0.0000 
     29 CBC        46.6480   12.0810    1.6420 C.cat     1 YCF600      0.0000 
     30 OBD        47.4500   14.6570   -7.7720 O.2       1 YCF600      0.0000 
     31 OBE        47.2400   24.6030  -14.0670 O.3       1 YCF600      0.0000 
     32 OBF        45.5150   13.7630    2.7930 O.3       1 YCF600      0.0000 
     33 H          46.5719   22.2327  -11.3961 H         1 YCF600      0.0000 
     34 H          46.6289   23.9005  -12.0599 H         1 YCF600      0.0000 
     35 H          47.6599   22.9306  -15.2261 H         1 YCF600      0.0000 
     36 H          47.5318   20.7960  -14.4864 H         1 YCF600      0.0000 
     37 H          45.0281   16.7587   -7.4672 H         1 YCF600      0.0000 
     38 H          44.8671   15.4291   -6.0294 H         1 YCF600      0.0000 
     39 H          47.5640   10.6155    0.5219 H         1 YCF600      0.0000 
     40 H          45.7806   13.7181    0.7285 H         1 YCF600      0.0000 
     41 H          47.3420   10.6040    2.7853 H         1 YCF600      0.0000 
     42 H          46.4908   11.9450    3.6237 H         1 YCF600      0.0000 
     43 H          45.6321   19.7843  -10.7229 H         1 YCF600      0.0000 
     44 H          45.1591   18.6215   -8.6560 H         1 YCF600      0.0000 
     45 H          47.4051   15.3417  -10.0038 H         1 YCF600      0.0000 
     46 H          47.9122   16.5239  -12.0542 H         1 YCF600      0.0000 
     47 H          44.6480   14.7696   -3.9746 H         1 YCF600      0.0000 
     48 H          45.1806   13.3718   -2.0767 H         1 YCF600      0.0000 
     49 H          48.5163   11.8606   -4.1380 H         1 YCF600      0.0000 
     50 H          47.9680   13.2472   -6.0485 H         1 YCF600      0.0000 
     51 H          48.4698   18.6176  -14.2694 H         1 YCF600      0.0000 
     52 H          47.5484   17.3350  -13.9657 H         1 YCF600      0.0000 
     53 H          46.9516   18.5748  -14.7980 H         1 YCF600      0.0000 
     54 H          48.2673   10.2425   -2.8953 H         1 YCF600      0.0000 
     55 H          48.9254   10.5295   -1.4563 H         1 YCF600      0.0000 
     56 H          47.5860    9.6462   -1.5663 H         1 YCF600      0.0000 
     57 H          47.8174   25.1804  -13.4896 H         1 YCF600      0.0000 
     58 H          44.6243   13.3348    2.9457 H         1 YCF600      0.0000 
@<TRIPOS>BOND
     1   11    1 ar   
     2   33    1 1    
     3   34    1 1    
     4   11    2 ar   
     5   31    2 1    
     6   35    2 1    
     7    4    3 1    
     8   11    3 ar   
     9   36    3 1    
    10   12    4 2    
    11   17    5 1    
    12   20    5 am   
    13   37    5 1    
    14   20    6 am   
    15   21    6 1    
    16   38    6 1    
    17    8    7 1    
    18   27    7 2    
    19   29    8 ar   
    20   39    8 1    
    21   29    9 ar   
    22   32    9 1    
    23   40    9 1    
    24   29   10 ar   
    25   41   10 1    
    26   42   10 1    
    27   13   12 1    
    28   14   12 1    
    29   51   13 1    
    30   52   13 1    
    31   53   13 1    
    32   15   14 ar   
    33   19   14 ar   
    34   16   15 ar   
    35   43   15 1    
    36   17   16 ar   
    37   44   16 1    
    38   18   17 ar   
    39   19   18 ar   
    40   45   18 1    
    41   46   19 1    
    42   30   20 2    
    43   22   21 ar   
    44   26   21 ar   
    45   23   22 ar   
    46   47   22 1    
    47   24   23 ar   
    48   48   23 1    
    49   25   24 ar   
    50   27   24 1    
    51   26   25 ar   
    52   49   25 1    
    53   50   26 1    
    54   28   27 1    
    55   54   28 1    
    56   55   28 1    
    57   56   28 1    
    58   57   31 1    
    59   58   32 1    
@<TRIPOS>SUBSTRUCTURE
     1 YCF600      1 GROUP   
@<TRIPOS>SET

