#    Name: 3GR2_1_CAVITY_N1_6.mol2
#    Modification time : Mon Mar 10 20:01:38 2014

@<TRIPOS>MOLECULE
3GR2_1_CAVITY_N1_6.mol2
   81     0     6     0     0
SMALL
NO_CHARGES


@<TRIPOS>ATOM
      1 OG        -41.4724    5.7592    8.0611 O.2       1 SER1        0.0000 
      2 O         -42.4477    5.5991    9.1894 O.2       2 ALA2        0.0000 
      3 O         -43.4230    5.4390   10.3178 O.2       2 ALA2        0.0000 
      4 OG        -41.8497    4.4032    7.5426 O.2       1 SER1        0.0000 
      5 OG        -42.8249    4.2431    8.6709 O.2       1 SER1        0.0000 
      6 O         -43.8002    4.0829    9.7993 O.2       2 ALA2        0.0000 
      7 N         -43.2022    2.8870    8.1524 N.2       2 ALA2        0.0000 
      8 CA        -44.1775    2.7269    9.2808 C.3       5 GLY6        0.0000 
      9 DU        -35.6618    8.6998   13.5007 H         6 CUB7        0.0000 
     10 O         -34.0885    7.6640   10.7255 O.2       2 ALA2        0.0000 
     11 O         -35.0638    7.5039   11.8538 O.2       2 ALA2        0.0000 
     12 DU        -36.0390    7.3437   12.9822 H         6 CUB7        0.0000 
     13 DU        -37.0143    7.1836   14.1106 H         6 CUB7        0.0000 
     14 CZ        -34.4657    6.3080   10.2070 C.ar      4 PHE5        0.0000 
     15 CZ        -35.4410    6.1478   11.3353 C.ar      4 PHE5        0.0000 
     16 DU        -36.4163    5.9877   12.4637 H         6 CUB7        0.0000 
     17 N         -37.3915    5.8276   13.5921 N.2       2 ALA2        0.0000 
     18 N         -38.3668    5.6674   14.7204 N.2       2 ALA2        0.0000 
     19 CZ        -35.8182    4.7918   10.8168 C.ar      4 PHE5        0.0000 
     20 CA        -36.7935    4.6317   11.9452 C.3       5 GLY6        0.0000 
     21 CA        -37.7688    4.4715   13.0735 C.3       5 GLY6        0.0000 
     22 CA        -37.1707    3.2756   11.4267 C.3       5 GLY6        0.0000 
     23 O         -33.9883    6.8830   12.6952 O.2       2 ALA2        0.0000 
     24 O         -34.9636    6.7228   13.8236 O.2       2 ALA2        0.0000 
     25 CZ        -34.3656    5.5269   12.1767 C.ar      4 PHE5        0.0000 
     26 N         -35.3408    5.3668   13.3051 N.2       2 ALA2        0.0000 
     27 N         -35.7181    4.0108   12.7866 N.2       2 ALA2        0.0000 
     28 O         -39.7990    3.9424    7.2556 O.2       2 ALA2        0.0000 
     29 O         -40.7743    3.7823    8.3840 O.2       2 ALA2        0.0000 
     30 O         -41.7495    3.6222    9.5123 O.2       2 ALA2        0.0000 
     31 CA        -42.7248    3.4620   10.6407 C.3       5 GLY6        0.0000 
     32 N         -42.1268    2.2661    8.9938 N.2       2 ALA2        0.0000 
     33 N         -43.1020    2.1060   10.1222 N.2       2 ALA2        0.0000 
     34 CA        -35.2641    9.0660    7.9143 C.3       5 GLY6        0.0000 
     35 CA        -36.2393    8.9058    9.0427 C.3       5 GLY6        0.0000 
     36 CA        -37.2146    8.7457   10.1711 C.3       5 GLY6        0.0000 
     37 OG        -34.6660    7.8701    6.2675 O.2       1 SER1        0.0000 
     38 OG        -35.6413    7.7099    7.3958 O.2       1 SER1        0.0000 
     39 OG        -36.6166    7.5498    8.5242 O.2       1 SER1        0.0000 
     40 OG        -36.9938    6.1938    8.0057 O.2       1 SER1        0.0000 
     41 DU        -37.9691    6.0336    9.1340 H         6 CUB7        0.0000 
     42 DU        -38.9444    5.8735   10.2624 H         6 CUB7        0.0000 
     43 O         -39.9196    5.7133   11.3908 O.2       2 ALA2        0.0000 
     44 N         -37.3710    4.8377    7.4872 N.2       2 ALA2        0.0000 
     45 CA        -38.3463    4.6776    8.6155 C.3       5 GLY6        0.0000 
     46 CA        -39.3216    4.5174    9.7439 C.3       5 GLY6        0.0000 
     47 O         -40.2969    4.3573   10.8722 O.2       2 ALA2        0.0000 
     48 O         -38.7236    3.3215    8.0970 O.2       2 ALA2        0.0000 
     49 CA        -39.6988    3.1614    9.2254 C.3       5 GLY6        0.0000 
     50 O         -40.6741    3.0013   10.3537 O.2       2 ALA2        0.0000 
     51 CA        -41.0513    1.6452    9.8352 C.3       5 GLY6        0.0000 
     52 O         -42.0266    1.4851   10.9636 O.2       2 ALA2        0.0000 
     53 CA        -35.7619    9.4808   11.5310 C.3       5 GLY6        0.0000 
     54 N         -33.2134    8.6052    7.6274 N.2       2 ALA2        0.0000 
     55 CA        -34.1886    8.4451    8.7557 C.3       5 GLY6        0.0000 
     56 CA        -35.1639    8.2849    9.8841 C.3       5 GLY6        0.0000 
     57 CA        -36.1392    8.1248   11.0124 C.3       5 GLY6        0.0000 
     58 DU        -37.1144    7.9646   12.1408 H         6 CUB7        0.0000 
     59 OG        -34.5659    7.0890    8.2372 O.2       1 SER1        0.0000 
     60 CZ        -35.5411    6.9289    9.3656 C.ar      4 PHE5        0.0000 
     61 DU        -36.5164    6.7687   10.4939 H         6 CUB7        0.0000 
     62 DU        -38.4670    6.4485   12.7507 H         6 CUB7        0.0000 
     63 O         -39.4422    6.2883   13.8790 O.2       2 ALA2        0.0000 
     64 CZ        -35.9184    5.5729    8.8471 C.ar      4 PHE5        0.0000 
     65 CZ        -36.8937    5.4127    9.9754 C.ar      4 PHE5        0.0000 
     66 DU        -37.8689    5.2526   11.1038 H         6 CUB7        0.0000 
     67 O         -38.8442    5.0924   12.2321 O.2       2 ALA2        0.0000 
     68 CA        -37.2709    4.0567    9.4569 C.3       5 GLY6        0.0000 
     69 CA        -38.2462    3.8965   10.5853 C.3       5 GLY6        0.0000 
     70 CA        -39.5987    2.3804   11.1951 C.3       5 GLY6        0.0000 
     71 CA        -35.9622   11.0429    7.5914 C.3       5 GLY6        0.0000 
     72 CA        -36.9375   10.8828    8.7198 C.3       5 GLY6        0.0000 
     73 NZ        -36.3395    9.6869    7.0729 N.2       3 LYS4        0.0000 
     74 O         -40.9950    6.3342   10.5494 O.2       2 ALA2        0.0000 
     75 CA        -38.4465    5.4586    6.6458 C.3       5 GLY6        0.0000 
     76 CA        -39.4217    5.2985    7.7741 C.3       5 GLY6        0.0000 
     77 DU        -40.3970    5.1383    8.9025 H         6 CUB7        0.0000 
     78 CA        -41.3723    4.9782   10.0308 C.3       5 GLY6        0.0000 
     79 CA        -42.3476    4.8181   11.1592 C.3       5 GLY6        0.0000 
     80 O         -32.9129    6.2621   13.5366 O.2       2 ALA2        0.0000 
     81 N         -34.2654    4.7459   14.1465 N.2       2 ALA2        0.0000 
@<TRIPOS>BOND
@<TRIPOS>SUBSTRUCTURE
     1 SER1        1 GROUP   
     2 ALA2        2 GROUP   
     3 LYS4       73 GROUP   
     4 PHE5       14 GROUP   
     5 GLY6        8 GROUP   
     6 CUB7        9 GROUP   
@<TRIPOS>SET

