#    Name: 3gr2_GF4_1_ligand
#    Modification time : Tue Mar 25 12:52:21 2014

@<TRIPOS>MOLECULE
3gr2_GF4_1_ligand
   24    25     1     0     0
SMALL
NO_CHARGES


@<TRIPOS>ATOM
      1 O11       -36.5460    5.7220    9.5850 O.2       1 GF41        0.0000 
      2 C3        -37.1100    5.7140   10.7430 C.2       1 GF41        0.0000 
      3 C4        -36.5610    6.3630   11.9450 C.2       1 GF41        0.0000 
      4 C12       -35.2720    7.1290   12.0900 C.3       1 GF41        0.0000 
      5 C13       -34.2690    6.1600   12.6930 C.3       1 GF41        0.0000 
      6 C5        -37.5930    6.0490   12.9870 C.2       1 GF41        0.0000 
      7 C14       -37.5570    6.4660   14.4360 C.3       1 GF41        0.0000 
      8 N1        -38.5860    5.3240   12.4110 N.pl3     1 GF41        0.0000 
      9 N2        -38.2610    5.1410   11.0580 N.am      1 GF41        0.0000 
     10 C6        -39.0380    4.4600   10.2030 C.2       1 GF41        0.0000 
     11 N10       -40.0810    3.7240   10.6250 N.2       1 GF41        0.0000 
     12 N9        -40.6200    3.1840    9.4440 N.2       1 GF41        0.0000 
     13 N8        -39.8430    3.6390    8.3590 N.2       1 GF41        0.0000 
     14 N7        -38.8280    4.4610    8.8740 N.pl3     1 GF41        0.0000 
     15 H         -35.4107    7.9608   12.7534 H         1 GF41        0.0000 
     16 H         -34.9251    7.4515   11.1272 H         1 GF41        0.0000 
     17 H         -39.3724    4.9877   12.8272 H         1 GF41        0.0000 
     18 H         -38.1721    4.8942    8.3757 H         1 GF41        0.0000 
     19 H         -33.3734    6.5855   12.8229 H         1 GF41        0.0000 
     20 H         -34.5670    5.8255   13.5871 H         1 GF41        0.0000 
     21 H         -34.1311    5.3584   12.1113 H         1 GF41        0.0000 
     22 H         -36.7524    6.1041   14.9067 H         1 GF41        0.0000 
     23 H         -37.5322    7.4607   14.5357 H         1 GF41        0.0000 
     24 H         -38.3599    6.1413   14.9360 H         1 GF41        0.0000 
@<TRIPOS>BOND
     1    2    1 2    
     2    3    2 1    
     3    9    2 am   
     4    4    3 1    
     5    6    3 2    
     6    5    4 1    
     7   15    4 1    
     8   16    4 1    
     9   19    5 1    
    10   20    5 1    
    11   21    5 1    
    12    7    6 1    
    13    8    6 1    
    14   22    7 1    
    15   23    7 1    
    16   24    7 1    
    17    9    8 1    
    18   17    8 1    
    19   10    9 1    
    20   11   10 2    
    21   14   10 1    
    22   12   11 1    
    23   13   12 2    
    24   14   13 1    
    25   18   14 1    
@<TRIPOS>SUBSTRUCTURE
     1 GF41        1 GROUP   
@<TRIPOS>SET

