#    Name: 1h39_R03_2_INTS_M
#    Modification time : Tue Mar 25 04:28:32 2014

@<TRIPOS>MOLECULE
1h39_R03_2_INTS_M
   83     0     3     0     0
SMALL
NO_CHARGES


@<TRIPOS>ATOM
      1 CA         50.6740   15.7680   58.3070 C.3       1 GLC5        0.0000 
      2 CA         49.3350   16.1080   59.6090 C.3       3 GLL5        0.0000 
      3 CA         52.0130   15.4280   57.0050 C.3       2 GLP5        0.0000 
      4 CA         48.2285   14.6385   58.4970 C.3       1 GLC5        0.0000 
      5 CA         47.1220   13.1690   57.3850 C.3       2 GLP5        0.0000 
      6 CA         48.1960   17.9015   59.4800 C.3       1 GLC5        0.0000 
      7 CA         47.0570   19.6950   59.3510 C.3       2 GLP5        0.0000 
      8 CA         51.3200   15.1770   59.3195 C.3       1 GLC5        0.0000 
      9 CA         49.7550   15.3240   60.6130 C.3       3 GLL5        0.0000 
     10 CA         52.8850   15.0300   58.0260 C.3       2 GLP5        0.0000 
     11 CA         51.1600   14.6160   61.7645 C.3       1 GLC5        0.0000 
     12 CA         52.5650   13.9080   62.9160 C.3       2 GLP5        0.0000 
     13 CA         50.3880   13.4690   62.1210 C.3       1 GLC5        0.0000 
     14 CA         48.8980   14.2460   61.2510 C.3       3 GLL5        0.0000 
     15 CA         51.8780   12.6920   62.9910 C.3       2 GLP5        0.0000 
     16 CA         48.0100   13.7075   59.3180 C.3       1 GLC5        0.0000 
     17 CA         49.8740   13.5140   63.9115 C.3       1 GLC5        0.0000 
     18 CA         48.3230   14.8220   63.6070 C.3       3 GLL5        0.0000 
     19 CA         51.4250   12.2060   64.2160 C.3       2 GLP5        0.0000 
     20 CA         50.6345   15.1725   64.7075 C.3       1 GLC5        0.0000 
     21 CA         48.9040   16.1770   64.1100 C.3       3 GLL5        0.0000 
     22 CA         52.3650   14.1680   65.3050 C.3       2 GLP5        0.0000 
     23 CA         50.5870   15.1870   65.9935 C.3       1 GLC5        0.0000 
     24 CA         48.8090   16.2060   66.6820 C.3       3 GLL5        0.0000 
     25 CA         51.6150   17.5585   67.5750 C.3       1 GLC5        0.0000 
     26 CA         49.3900   17.3770   67.5280 C.3       3 GLL5        0.0000 
     27 CA         53.8400   17.7400   67.6220 C.3       2 GLP5        0.0000 
     28 CA         48.8470   20.0310   69.1425 C.3       1 GLC5        0.0000 
     29 CA         48.2830   18.1550   68.2960 C.3       3 GLL5        0.0000 
     30 CA         49.4110   21.9070   69.9890 C.3       2 GLP5        0.0000 
     31 CA         44.9365   15.8560   71.6480 C.3       1 GLC5        0.0000 
     32 CA         44.7340   18.0190   71.1070 C.3       3 GLL5        0.0000 
     33 CA         45.1390   13.6930   72.1890 C.3       2 GLP5        0.0000 
     34 CA         44.4565   18.8635   74.1615 C.3       1 GLC5        0.0000 
     35 CA         42.7770   19.8070   73.1830 C.3       3 GLL5        0.0000 
     36 CA         46.1360   17.9200   75.1400 C.3       2 GLP5        0.0000 
     37 CA         40.5965   17.1190   75.3505 C.3       1 GLC5        0.0000 
     38 CA         40.9440   18.5240   74.2400 C.3       3 GLL5        0.0000 
     39 CA         40.2490   15.7140   76.4610 C.3       2 GLP5        0.0000 
     40 CA         41.4465   17.7370   75.6770 C.3       1 GLC5        0.0000 
     41 CA         42.3240   18.6590   73.8970 C.3       3 GLL5        0.0000 
     42 CA         40.5690   16.8150   77.4570 C.3       2 GLP5        0.0000 
     43 CA         43.7550   17.9365   74.9800 C.3       1 GLC5        0.0000 
     44 CA         45.1860   17.2140   76.0630 C.3       2 GLP5        0.0000 
     45 CA         39.5835   20.2345   75.7885 C.3       1 GLC5        0.0000 
     46 CA         38.2120   19.3360   74.3280 C.3       3 GLL5        0.0000 
     47 CA         40.9550   21.1330   77.2490 C.3       2 GLP5        0.0000 
     48 CA         37.8995   18.0685   73.0795 C.3       1 GLC5        0.0000 
     49 CA         37.5870   16.8010   71.8310 C.3       2 GLP5        0.0000 
     50 CA         37.5445   19.8280   76.2080 C.3       1 GLC5        0.0000 
     51 CA         36.8770   20.3200   78.0880 C.3       2 GLP5        0.0000 
     52 CA         48.9050   21.5380   74.4170 C.3       1 GLC5        0.0000 
     53 CA         47.3220   21.6970   73.2080 C.3       3 GLL5        0.0000 
     54 CA         50.4880   21.3790   75.6260 C.3       2 GLP5        0.0000 
     55 CA         46.7290   19.8085   74.1740 C.3       1 GLC5        0.0000 
     56 CA         45.7655   23.1725   73.1265 C.3       1 GLC5        0.0000 
     57 CA         44.2090   24.6480   73.0450 C.3       2 GLP5        0.0000 
     58 CA         48.5850   22.6655   72.4140 C.3       1 GLC5        0.0000 
     59 CA         49.8480   23.6340   71.6200 C.3       2 GLP5        0.0000 
     60 CA         45.9825   12.1445   61.7040 C.3       1 GLC5        0.0000 
     61 CA         46.6100   14.0120   62.0750 C.3       3 GLL5        0.0000 
     62 CA         45.3550   10.2770   61.3330 C.3       2 GLP5        0.0000 
     63 CA         44.5045   14.0360   61.4880 C.3       1 GLC5        0.0000 
     64 CA         42.3990   14.0600   60.9010 C.3       2 GLP5        0.0000 
     65 CA         45.6160   13.0305   63.4640 C.3       1 GLC5        0.0000 
     66 CA         44.6220   12.0490   64.8530 C.3       2 GLP5        0.0000 
     67 CA         46.9797   17.4175   64.1455 C.3       1 GLC5        0.0000 
     68 CA         45.4340   18.3960   63.5550 C.3       2 GLP5        0.0000 
     69 CA         50.5023   15.7683   68.2410 C.3       1 GLC5        0.0000 
     70 CA         51.9050   14.7450   69.3770 C.3       2 GLP5        0.0000 
     71 CA         49.9623   19.0515   66.7340 C.3       1 GLC5        0.0000 
     72 CA         51.0880   20.3370   65.5560 C.3       2 GLP5        0.0000 
     73 CA         47.1425   15.8405   70.5500 C.3       1 GLC5        0.0000 
     74 CA         47.1100   18.1170   70.3920 C.3       3 GLL5        0.0000 
     75 CA         47.8190   13.8670   70.7360 C.3       2 GLP5        0.0000 
     76 CA         46.4650   18.7150   73.3798 C.3       1 GLC5        0.0000 
     77 CA         47.3420   19.2560   71.2320 C.3       3 GLL5        0.0000 
     78 CA         45.4975   18.2535   73.3308 C.3       1 GLC5        0.0000 
     79 CA         44.9840   19.1550   71.9360 C.3       3 GLL5        0.0000 
     80 CA         43.8000   16.5480   70.3337 C.3       1 GLC5        0.0000 
     81 CA         42.3220   15.3310   69.9460 C.3       2 GLP5        0.0000 
     82 CA         39.5520   17.4668   73.2785 C.3       1 GLC5        0.0000 
     83 CA         38.6300   15.9050   72.5000 C.3       2 GLP5        0.0000 
@<TRIPOS>BOND
@<TRIPOS>SUBSTRUCTURE
     1 GLC5        1 GROUP        1 X    GLC  0     ROOT GLC X 6
     2 GLP5        3 GROUP        1 Y    GLP  0     ROOT GLP Y 13
     3 GLL5        2 GROUP        1 Z    GLL  0     ROOT GLL Z 20
@<TRIPOS>SET

