#    Name: 1h39_R03_2_ligand
#    Modification time : Tue Mar 25 04:28:32 2014

@<TRIPOS>MOLECULE
1h39_R03_2_ligand
   58    60     1     0     0
SMALL
NO_CHARGES


@<TRIPOS>ATOM
      1 C3A        49.3350   16.1080   59.6090 C.2       1 R03800      0.0000 
      2 C2A        49.7550   15.3240   60.6130 C.2       1 R03800      0.0000 
      3 C1A        48.8980   14.2460   61.2510 C.3       1 R03800      0.0000 
      4 N1         47.8710   14.8010   62.1790 N.4       1 R03800      0.0000 
      5 C1B        48.3230   14.8220   63.6070 C.3       1 R03800      0.0000 
      6 C2B        48.9040   16.1770   64.1100 C.3       1 R03800      0.0000 
      7 C3B        48.1470   16.7010   65.3620 C.3       1 R03800      0.0000 
      8 C4B        48.8090   16.2060   66.6820 C.3       1 R03800      0.0000 
      9 C5B        49.3900   17.3770   67.5280 C.3       1 R03800      0.0000 
     10 C6B        48.2830   18.1550   68.2960 C.3       1 R03800      0.0000 
     11 O          48.1500   17.5850   69.6200 O.3       1 R03800      0.0000 
     12 C6C        47.1100   18.1170   70.3920 C.ar      1 R03800      0.0000 
     13 C7C        47.3420   19.2560   71.2320 C.ar      1 R03800      0.0000 
     14 C7P        46.2460   19.7640   72.0070 C.ar      1 R03800      0.0000 
     15 N1C        46.2160   20.8070   72.8570 N.pl3     1 R03800      0.0000 
     16 N2C        45.0630   20.8810   73.2970 N.2       1 R03800      0.0000 
     17 C3C        44.2450   19.9460   72.8160 C.2       1 R03800      0.0000 
     18 C3P        44.9840   19.1550   71.9360 C.ar      1 R03800      0.0000 
     19 C4C        44.7340   18.0190   71.1070 C.ar      1 R03800      0.0000 
     20 C5C        45.8220   17.5110   70.3360 C.ar      1 R03800      0.0000 
     21 C1D        42.7770   19.8070   73.1830 C.ar      1 R03800      0.0000 
     22 C6D        41.8340   20.8200   72.8170 C.ar      1 R03800      0.0000 
     23 C5D        40.4520   20.6870   73.1590 C.ar      1 R03800      0.0000 
     24 C4D        40.0040   19.5330   73.8740 C.ar      1 R03800      0.0000 
     25 C3D        40.9440   18.5240   74.2400 C.ar      1 R03800      0.0000 
     26 C2D        42.3240   18.6590   73.8970 C.ar      1 R03800      0.0000 
     27 BR27       38.2120   19.3360   74.3280 Br        1 R03800      0.0000 
     28 C1E        47.3220   21.6970   73.2080 C.3       1 R03800      0.0000 
     29 C1F        46.6100   14.0120   62.0750 C.3       1 R03800      0.0000 
     30 H          50.7099   15.4033   61.0277 H         1 R03800      0.0000 
     31 H          49.5547   13.5488   61.7961 H         1 R03800      0.0000 
     32 H          48.4052   13.6677   60.4528 H         1 R03800      0.0000 
     33 H          47.6446   15.8309   61.8758 H         1 R03800      0.0000 
     34 H          49.0988   14.0447   63.7688 H         1 R03800      0.0000 
     35 H          47.4780   14.5520   64.2744 H         1 R03800      0.0000 
     36 H          48.8223   16.9119   63.3134 H         1 R03800      0.0000 
     37 H          49.9521   16.0381   64.3622 H         1 R03800      0.0000 
     38 H          47.1207   16.3473   65.3291 H         1 R03800      0.0000 
     39 H          48.1535   17.7870   65.3510 H         1 R03800      0.0000 
     40 H          49.6144   15.5161   66.4350 H         1 R03800      0.0000 
     41 H          48.0625   15.6796   67.2746 H         1 R03800      0.0000 
     42 H          49.9104   18.0660   66.8650 H         1 R03800      0.0000 
     43 H          50.1010   16.9732   68.2468 H         1 R03800      0.0000 
     44 H          47.3641   18.0662   67.7231 H         1 R03800      0.0000 
     45 H          48.5831   19.1986   68.3330 H         1 R03800      0.0000 
     46 H          48.2450   19.6861   71.2770 H         1 R03800      0.0000 
     47 H          43.8301   17.5960   71.0688 H         1 R03800      0.0000 
     48 H          45.6732   16.6967   69.7323 H         1 R03800      0.0000 
     49 H          42.1516   21.6440   72.3075 H         1 R03800      0.0000 
     50 H          39.7914   21.4096   72.8949 H         1 R03800      0.0000 
     51 H          40.6288   17.6994   74.7506 H         1 R03800      0.0000 
     52 H          42.9852   17.9327   74.1637 H         1 R03800      0.0000 
     53 H          48.0825   21.1982   73.6239 H         1 R03800      0.0000 
     54 H          47.6860   22.1711   72.4063 H         1 R03800      0.0000 
     55 H          47.0402   22.3997   73.8613 H         1 R03800      0.0000 
     56 H          46.7525   13.0511   62.3123 H         1 R03800      0.0000 
     57 H          45.9008   14.3629   62.6865 H         1 R03800      0.0000 
     58 H          46.2344   14.0325   61.1484 H         1 R03800      0.0000 
@<TRIPOS>BOND
     1    2    1 2    
     2    3    2 1    
     3   30    2 1    
     4    4    3 1    
     5   31    3 1    
     6   32    3 1    
     7    5    4 1    
     8   29    4 1    
     9   33    4 1    
    10    6    5 1    
    11   34    5 1    
    12   35    5 1    
    13    7    6 1    
    14   36    6 1    
    15   37    6 1    
    16    8    7 1    
    17   38    7 1    
    18   39    7 1    
    19    9    8 1    
    20   40    8 1    
    21   41    8 1    
    22   10    9 1    
    23   42    9 1    
    24   43    9 1    
    25   11   10 1    
    26   44   10 1    
    27   45   10 1    
    28   12   11 1    
    29   13   12 ar   
    30   20   12 ar   
    31   14   13 ar   
    32   46   13 1    
    33   15   14 1    
    34   18   14 ar   
    35   16   15 1    
    36   28   15 1    
    37   17   16 2    
    38   18   17 1    
    39   21   17 1    
    40   19   18 ar   
    41   20   19 ar   
    42   47   19 1    
    43   48   20 1    
    44   22   21 ar   
    45   26   21 ar   
    46   23   22 ar   
    47   49   22 1    
    48   24   23 ar   
    49   50   23 1    
    50   25   24 ar   
    51   27   24 1    
    52   26   25 ar   
    53   51   25 1    
    54   52   26 1    
    55   53   28 1    
    56   54   28 1    
    57   55   28 1    
    58   56   29 1    
    59   57   29 1    
    60   58   29 1    
@<TRIPOS>SUBSTRUCTURE
     1 R03800      1 GROUP   
@<TRIPOS>SET

