#    Name: 1nve_NAD_2_INTS_M
#    Modification time : Mon Mar 24 18:59:38 2014

@<TRIPOS>MOLECULE
1nve_NAD_2_INTS_M
   87     0     9     0     0
SMALL
NO_CHARGES


@<TRIPOS>ATOM
      1 N          32.2300  -61.5750   89.9325 N.am      2 SEC2        0.0000 
      2 N          32.0650  -61.4030   88.3080 N.am      8 SEL2        0.0000 
      3 N          32.3950  -61.7470   91.5570 N.am      5 SEP2        0.0000 
      4 CA         32.9935  -60.9990   85.0730 C.3       3 GLC5        0.0000 
      5 CA         31.3270  -59.5310   85.0260 C.3       9 GLL5        0.0000 
      6 CA         34.6600  -62.4670   85.1200 C.3       6 GLP5        0.0000 
      7 N          26.7380  -62.6835   83.3050 N.am      2 SEC2        0.0000 
      8 N          27.9680  -62.9400   84.1160 N.am      8 SEL2        0.0000 
      9 N          25.5080  -62.4270   82.4940 N.am      5 SEP2        0.0000 
     10 O          27.2465  -64.4285   84.6410 O.2       1 ALC1        0.0000 
     11 O          27.9680  -62.9400   84.1160 O.2       7 ALL1        0.0000 
     12 O          26.5250  -65.9170   85.1660 O.2       4 ALP1        0.0000 
     13 O          27.6565  -63.6630   85.3010 O.2       1 ALC1        0.0000 
     14 O          27.3450  -64.3860   86.4860 O.2       4 ALP1        0.0000 
     15 N          33.1245  -65.6980   84.0945 N.am      2 SEC2        0.0000 
     16 N          32.6170  -64.8010   83.1890 N.am      8 SEL2        0.0000 
     17 N          33.6320  -66.5950   85.0000 N.am      5 SEP2        0.0000 
     18 CA         33.4070  -64.1640   79.5190 C.3       3 GLC5        0.0000 
     19 CA         32.7420  -65.4990   80.7420 C.3       9 GLL5        0.0000 
     20 CA         34.0720  -62.8290   78.2960 C.3       6 GLP5        0.0000 
     21 O          34.8920  -65.7215   81.6560 O.2       1 ALC1        0.0000 
     22 O          33.9100  -66.1010   80.7030 O.2       7 ALL1        0.0000 
     23 O          35.8740  -65.3420   82.6090 O.2       4 ALP1        0.0000 
     24 O          34.8665  -66.4055   79.6825 O.2       1 ALC1        0.0000 
     25 O          35.8230  -66.7100   78.6620 O.2       4 ALP1        0.0000 
     26 N          32.2735  -66.3455   78.5115 N.am      2 SEC2        0.0000 
     27 N          31.9410  -65.5090   79.5940 N.am      8 SEL2        0.0000 
     28 N          32.6060  -67.1820   77.4290 N.am      5 SEP2        0.0000 
     29 CA         29.5090  -66.2155   78.6420 C.3       3 GLC5        0.0000 
     30 CA         30.7790  -64.7620   79.5930 C.3       9 GLL5        0.0000 
     31 CA         28.2390  -67.6690   77.6910 C.3       6 GLP5        0.0000 
     32 CA         31.5315  -65.7180   77.8630 C.3       3 GLC5        0.0000 
     33 CA         32.2840  -66.6740   76.1330 C.3       6 GLP5        0.0000 
     34 CA         32.4255  -63.7955   78.9445 C.3       3 GLC5        0.0000 
     35 CA         31.2775  -62.9180   79.2380 C.3       3 GLC5        0.0000 
     36 CA         31.7760  -61.0740   78.8830 C.3       6 GLP5        0.0000 
     37 CA         31.4395  -62.5660   80.2855 C.3       3 GLC5        0.0000 
     38 CA         31.1030  -64.0580   81.6880 C.3       9 GLL5        0.0000 
     39 N          34.8725  -61.4525   88.8980 N.am      2 SEC2        0.0000 
     40 N          35.0610  -60.5670   87.8770 N.am      8 SEL2        0.0000 
     41 N          34.6840  -62.3380   89.9190 N.am      5 SEP2        0.0000 
     42 N          35.8995  -61.3260   87.0750 N.am      2 SEC2        0.0000 
     43 N          36.7380  -62.0850   86.2730 N.am      5 SEP2        0.0000 
     44 CA         32.3940  -58.3530   94.4820 C.3       3 GLC5        0.0000 
     45 CA         33.5760  -57.2770   92.9600 C.3       9 GLL5        0.0000 
     46 CA         31.2120  -59.4290   96.0040 C.3       6 GLP5        0.0000 
     47 N          32.3715  -58.0365   94.9560 N.am      2 SEC2        0.0000 
     48 N          32.3740  -57.5430   93.6300 N.am      8 SEL2        0.0000 
     49 N          32.3690  -58.5300   96.2820 N.am      5 SEP2        0.0000 
     50 O          31.3100  -56.6765   92.9705 O.2       1 ALC1        0.0000 
     51 O          32.3740  -57.5430   93.6300 O.2       7 ALL1        0.0000 
     52 O          30.2460  -55.8100   92.3110 O.2       4 ALP1        0.0000 
     53 O          31.2640  -56.8285   94.0595 O.2       1 ALC1        0.0000 
     54 O          30.1540  -56.1140   94.4890 O.2       4 ALP1        0.0000 
     55 N          34.7310  -56.7310   96.8535 N.am      2 SEC2        0.0000 
     56 N          34.5070  -56.7840   95.2170 N.am      8 SEL2        0.0000 
     57 N          34.9550  -56.6780   98.4900 N.am      5 SEP2        0.0000 
     58 CA         35.1170  -60.2175   92.5290 C.3       3 GLC5        0.0000 
     59 CA         35.4180  -58.5750   93.7750 C.3       9 GLL5        0.0000 
     60 CA         34.8160  -61.8600   91.2830 C.3       6 GLP5        0.0000 
     61 CA         37.9025  -60.5360   93.8045 C.3       3 GLC5        0.0000 
     62 CA         37.2750  -59.3960   95.0400 C.3       9 GLL5        0.0000 
     63 CA         38.5300  -61.6760   92.5690 C.3       6 GLP5        0.0000 
     64 CA         31.8035  -58.9197   83.1268 C.3       3 GLC5        0.0000 
     65 CA         32.7710  -58.0130   81.7330 C.3       6 GLP5        0.0000 
     66 CA         29.5985  -64.4197   84.0228 C.3       3 GLC5        0.0000 
     67 CA         30.0040  -62.2790   83.0900 C.3       9 GLL5        0.0000 
     68 CA         29.5940  -66.5640   84.3500 C.3       6 GLP5        0.0000 
     69 CA         30.6285  -65.5055   83.0643 C.3       3 GLC5        0.0000 
     70 CA         33.4958  -66.2868   82.7578 C.3       3 GLC5        0.0000 
     71 CA         32.2230  -64.8360   81.8690 C.3       9 GLL5        0.0000 
     72 CA         34.5090  -67.4060   84.2100 C.3       6 GLP5        0.0000 
     73 CA         33.0710  -63.1340   81.5507 C.3       3 GLC5        0.0000 
     74 CA         34.4790  -61.8210   81.3230 C.3       6 GLP5        0.0000 
     75 CA         34.3165  -60.0725   91.2760 C.3       3 GLC5        0.0000 
     76 CA         33.7800  -58.1070   90.5210 C.3       9 GLL5        0.0000 
     77 CA         31.9375  -59.0500   91.2870 C.3       3 GLC5        0.0000 
     78 CA         33.8540  -58.4630   92.0170 C.3       9 GLL5        0.0000 
     79 CA         30.0580  -59.8150   91.3050 C.3       6 GLP5        0.0000 
     80 CA         39.5157  -60.3582   94.1687 C.3       3 GLC5        0.0000 
     81 CA         38.6140  -59.3330   95.4730 C.3       9 GLL5        0.0000 
     82 CA         39.9460  -61.8730   93.1270 C.3       6 GLP5        0.0000 
     83 CA         38.3933  -58.3912   91.4748 C.3       3 GLC5        0.0000 
     84 CA         39.1300  -57.8020   93.6950 C.3       9 GLL5        0.0000 
     85 CA         38.2870  -58.9160   89.5370 C.3       6 GLP5        0.0000 
     86 CA         38.5147  -59.7713   92.9908 C.3       3 GLC5        0.0000 
     87 CA         37.8690  -57.9310   93.1300 C.3       9 GLL5        0.0000 
@<TRIPOS>BOND
@<TRIPOS>SUBSTRUCTURE
     1 ALC1       10 GROUP        1 X    ALC  0     ROOT ALC X 1
     2 SEC2        1 GROUP        1 X    SEC  0     **** SEC X 2
     3 GLC5        4 GROUP        1 X    GLC  0     **** GLC X 6
     4 ALP1       12 GROUP        1 Y    ALP  0     ROOT ALP Y 8
     5 SEP2        3 GROUP        1 Y    SEP  0     **** SEP Y 9
     6 GLP5        6 GROUP        1 Y    GLP  0     **** GLP Y 13
     7 ALL1       11 GROUP        1 Z    ALL  0     ROOT ALL Z 15
     8 SEL2        2 GROUP        1 Z    SEL  0     **** SEL Z 16
     9 GLL5        5 GROUP        1 Z    GLL  0     **** GLL Z 20
@<TRIPOS>SET

