#    Name: 1nve_NAD_2_ligand
#    Modification time : Mon Mar 24 18:59:38 2014

@<TRIPOS>MOLECULE
1nve_NAD_2_ligand
   70    74     1     0     0
SMALL
NO_CHARGES


@<TRIPOS>ATOM
      1 PA         31.7560  -60.1760   87.5790 P.3       1 NAD401      0.0000 
      2 O1A        32.0650  -61.4030   88.3080 O.co2     1 NAD401      0.0000 
      3 O2A        30.5560  -59.4120   87.9590 O.co2     1 NAD401      0.0000 
      4 O5B        31.6830  -60.5790   86.0150 O.3       1 NAD401      0.0000 
      5 C5B        31.3270  -59.5310   85.0260 C.3       1 NAD401      0.0000 
      6 C4B        30.3450  -60.1220   84.0150 C.3       1 NAD401      0.0000 
      7 O4B        30.9040  -61.1430   83.2350 O.3       1 NAD401      0.0000 
      8 C3B        29.0630  -60.7500   84.5580 C.3       1 NAD401      0.0000 
      9 O3B        28.0600  -60.3050   84.0110 O.3       1 NAD401      0.0000 
     10 C2B        29.2020  -62.2720   84.3010 C.3       1 NAD401      0.0000 
     11 O2B        27.9680  -62.9400   84.1160 O.3       1 NAD401      0.0000 
     12 C1B        30.0040  -62.2790   83.0900 C.3       1 NAD401      0.0000 
     13 N9A        30.9430  -63.3720   82.8370 N.pl3     1 NAD401      0.0000 
     14 C8A        31.8490  -63.8920   83.7560 C.2       1 NAD401      0.0000 
     15 N7A        32.6170  -64.8010   83.1890 N.2       1 NAD401      0.0000 
     16 C5A        32.2230  -64.8360   81.8690 C.ar      1 NAD401      0.0000 
     17 C6A        32.7420  -65.4990   80.7420 C.ar      1 NAD401      0.0000 
     18 N6A        33.9100  -66.1010   80.7030 N.pl3     1 NAD401      0.0000 
     19 N1A        31.9410  -65.5090   79.5940 N.ar      1 NAD401      0.0000 
     20 C2A        30.7790  -64.7620   79.5930 C.ar      1 NAD401      0.0000 
     21 N3A        30.2790  -63.9690   80.5490 N.ar      1 NAD401      0.0000 
     22 C4A        31.1030  -64.0580   81.6880 C.ar      1 NAD401      0.0000 
     23 O3         33.0180  -59.1680   87.6120 O.3       1 NAD401      0.0000 
     24 PN         34.5040  -59.2660   88.1850 P.3       1 NAD401      0.0000 
     25 O1N        35.0610  -60.5670   87.8770 O.co2     1 NAD401      0.0000 
     26 O2N        35.1270  -57.9740   87.7220 O.co2     1 NAD401      0.0000 
     27 O5D        34.1550  -59.2370   89.7710 O.3       1 NAD401      0.0000 
     28 C5D        33.7800  -58.1070   90.5210 C.3       1 NAD401      0.0000 
     29 C4D        33.8540  -58.4630   92.0170 C.3       1 NAD401      0.0000 
     30 O4D        35.1890  -58.9390   92.3740 O.3       1 NAD401      0.0000 
     31 C3D        33.5760  -57.2770   92.9600 C.3       1 NAD401      0.0000 
     32 O3D        32.3740  -57.5430   93.6300 O.3       1 NAD401      0.0000 
     33 C2D        34.8000  -57.1960   93.8680 C.3       1 NAD401      0.0000 
     34 O2D        34.5070  -56.7840   95.2170 O.3       1 NAD401      0.0000 
     35 C1D        35.4180  -58.5750   93.7750 C.3       1 NAD401      0.0000 
     36 N1N        36.8880  -58.6240   93.9490 N.pl3     1 NAD401      0.0000 
     37 C2N        37.2750  -59.3960   95.0400 C.ar      1 NAD401      0.0000 
     38 C3N        38.6140  -59.3330   95.4730 C.ar      1 NAD401      0.0000 
     39 C7N        39.1990  -60.3180   96.5230 C.2       1 NAD401      0.0000 
     40 O7N        38.5050  -61.2560   96.9220 O.2       1 NAD401      0.0000 
     41 N7N        40.4760  -60.1220   96.9770 N.am      1 NAD401      0.0000 
     42 C4N        39.5570  -58.3540   94.9480 C.ar      1 NAD401      0.0000 
     43 C5N        39.1300  -57.8020   93.6950 C.ar      1 NAD401      0.0000 
     44 C6N        37.8690  -57.9310   93.1300 C.ar      1 NAD401      0.0000 
     45 H          32.2111  -59.1918   84.4962 H         1 NAD401      0.0000 
     46 H          30.8547  -58.6875   85.5188 H         1 NAD401      0.0000 
     47 H          30.0154  -59.3045   83.3334 H         1 NAD401      0.0000 
     48 H          29.1265  -60.6478   85.6511 H         1 NAD401      0.0000 
     49 H          29.7912  -62.6633   85.1083 H         1 NAD401      0.0000 
     50 H          29.4043  -62.0894   82.2156 H         1 NAD401      0.0000 
     51 H          31.8796  -63.5960   84.6884 H         1 NAD401      0.0000 
     52 H          34.1437  -66.5527   79.8420 H         1 NAD401      0.0000 
     53 H          34.4582  -66.0523   81.5379 H         1 NAD401      0.0000 
     54 H          30.1882  -64.8402   78.6637 H         1 NAD401      0.0000 
     55 H          32.7553  -57.7869   90.3145 H         1 NAD401      0.0000 
     56 H          34.4449  -57.2547   90.3576 H         1 NAD401      0.0000 
     57 H          33.1293  -59.2350   92.2361 H         1 NAD401      0.0000 
     58 H          33.5437  -56.4009   92.3473 H         1 NAD401      0.0000 
     59 H          35.5005  -56.5075   93.3783 H         1 NAD401      0.0000 
     60 H          34.9164  -59.2490   94.3980 H         1 NAD401      0.0000 
     61 H          36.6106  -59.9962   95.5205 H         1 NAD401      0.0000 
     62 H          40.7957  -60.7579   97.6794 H         1 NAD401      0.0000 
     63 H          40.9769  -59.3602   96.5663 H         1 NAD401      0.0000 
     64 H          40.3658  -58.1148   95.3971 H         1 NAD401      0.0000 
     65 H          39.8637  -57.2426   93.1605 H         1 NAD401      0.0000 
     66 H          37.6235  -57.5883   92.2389 H         1 NAD401      0.0000 
     67 H          27.6115  -61.1015   83.6055 H         1 NAD401      0.0000 
     68 H          27.8092  -63.4319   84.9721 H         1 NAD401      0.0000 
     69 H          31.7390  -56.8393   93.3113 H         1 NAD401      0.0000 
     70 H          33.5165  -56.8859   95.3092 H         1 NAD401      0.0000 
@<TRIPOS>BOND
     1    2    1 ar   
     2    3    1 ar   
     3    4    1 1    
     4   23    1 1    
     5    5    4 1    
     6    6    5 1    
     7   45    5 1    
     8   46    5 1    
     9    7    6 1    
    10    8    6 1    
    11   47    6 1    
    12   12    7 1    
    13    9    8 1    
    14   10    8 1    
    15   48    8 1    
    16   67    9 1    
    17   11   10 1    
    18   12   10 1    
    19   49   10 1    
    20   68   11 1    
    21   13   12 1    
    22   50   12 1    
    23   14   13 1    
    24   22   13 1    
    25   15   14 2    
    26   51   14 1    
    27   16   15 1    
    28   17   16 ar   
    29   22   16 ar   
    30   18   17 1    
    31   19   17 ar   
    32   52   18 1    
    33   53   18 1    
    34   20   19 ar   
    35   21   20 ar   
    36   54   20 1    
    37   22   21 ar   
    38   24   23 1    
    39   25   24 ar   
    40   26   24 ar   
    41   27   24 1    
    42   28   27 1    
    43   29   28 1    
    44   55   28 1    
    45   56   28 1    
    46   30   29 1    
    47   31   29 1    
    48   57   29 1    
    49   35   30 1    
    50   32   31 1    
    51   33   31 1    
    52   58   31 1    
    53   69   32 1    
    54   34   33 1    
    55   35   33 1    
    56   59   33 1    
    57   70   34 1    
    58   36   35 1    
    59   60   35 1    
    60   37   36 ar   
    61   44   36 ar   
    62   38   37 ar   
    63   61   37 1    
    64   39   38 1    
    65   42   38 ar   
    66   40   39 2    
    67   41   39 am   
    68   62   41 1    
    69   63   41 1    
    70   43   42 ar   
    71   64   42 1    
    72   44   43 ar   
    73   65   43 1    
    74   66   44 1    
@<TRIPOS>SUBSTRUCTURE
     1 NAD401      1 GROUP   
@<TRIPOS>SET

