#    Name: 3qiz_QI2_1_INTS_M
#    Modification time : Mon Apr  7 19:35:46 2014

@<TRIPOS>MOLECULE
3qiz_QI2_1_INTS_M
   55     0     9     0     0
SMALL
NO_CHARGES


@<TRIPOS>ATOM
      1 Zn        -12.4320   34.0160  -14.9365 Zn        2 ZIC7        0.0000 
      2 Zn        -11.6740   33.3320  -15.0120 Zn        8 ZIL7        0.0000 
      3 Zn        -13.1900   34.7000  -14.8610 Zn        5 ZIP7        0.0000 
      4 O         -11.5730   31.8420  -14.2680 O.2       1 ALC1        0.0000 
      5 O         -11.6740   33.3320  -15.0120 O.2       7 ALL1        0.0000 
      6 O         -11.4720   30.3520  -13.5240 O.2       4 ALP1        0.0000 
      7 O         -11.0675   32.7700  -13.9785 O.2       1 ALC1        0.0000 
      8 O         -10.4610   32.2080  -12.9450 O.2       4 ALP1        0.0000 
      9 O          -9.2860   32.9320  -15.5315 O.2       1 ALC1        0.0000 
     10 O         -10.4880   33.6850  -15.4160 O.2       7 ALL1        0.0000 
     11 O          -8.0840   32.1790  -15.6470 O.2       4 ALP1        0.0000 
     12 Zn        -12.0965   35.3275  -15.2940 Zn        2 ZIC7        0.0000 
     13 Zn        -11.0030   35.9550  -15.7270 Zn        8 ZIL7        0.0000 
     14 CA        -10.3655   37.9995  -15.8705 C.3       3 GLC5        0.0000 
     15 CA         -8.5370   36.8630  -15.6940 C.3       9 GLL5        0.0000 
     16 CA        -12.1940   39.1360  -16.0470 C.3       6 GLP5        0.0000 
     17 CA        -10.6230   38.0245  -14.4190 C.3       3 GLC5        0.0000 
     18 CA         -8.6640   37.0080  -14.1110 C.3       9 GLL5        0.0000 
     19 CA        -12.5820   39.0410  -14.7270 C.3       6 GLP5        0.0000 
     20 CA         -6.1015   41.0795  -11.1035 C.3       3 GLC5        0.0000 
     21 CA         -6.0660   41.7740  -12.6300 C.3       9 GLL5        0.0000 
     22 CA         -6.1370   40.3850   -9.5770 C.3       6 GLP5        0.0000 
     23 CA         -7.1435   34.1385  -11.4365 C.3       3 GLC5        0.0000 
     24 CA         -8.6440   35.6210  -12.0360 C.3       9 GLL5        0.0000 
     25 CA         -5.6430   32.6560  -10.8370 C.3       6 GLP5        0.0000 
     26 CA         -7.2350   36.8165  -10.8275 C.3       3 GLC5        0.0000 
     27 CA         -5.8260   38.0120   -9.6190 C.3       6 GLP5        0.0000 
     28 CA         -8.1985   34.7790  -10.4080 C.3       3 GLC5        0.0000 
     29 CA         -7.7530   33.9370   -8.7800 C.3       6 GLP5        0.0000 
     30 CA        -10.7590   34.8970  -11.9655 C.3       3 GLC5        0.0000 
     31 CA        -12.8740   34.1730  -11.8950 C.3       6 GLP5        0.0000 
     32 CA        -10.0070   44.5925  -16.4925 C.3       3 GLC5        0.0000 
     33 CA         -9.0330   43.9610  -17.6250 C.3       9 GLL5        0.0000 
     34 CA        -10.9810   45.2240  -15.3600 C.3       6 GLP5        0.0000 
     35 CA         -6.1810   38.9652  -15.1082 C.3       3 GLC5        0.0000 
     36 CA         -7.9880   38.3530  -13.6500 C.3       9 GLL5        0.0000 
     37 CA         -5.0520   39.6020  -16.7160 C.3       6 GLP5        0.0000 
     38 CA         -5.6126   40.9436  -14.4908 C.3       3 GLC5        0.0000 
     39 CA         -6.6920   40.6430  -12.9700 C.3       9 GLL5        0.0000 
     40 CA         -4.8520   40.9650  -16.1370 C.3       6 GLP5        0.0000 
     41 CA         -7.0411   42.9767  -12.7989 C.3       3 GLC5        0.0000 
     42 CA         -7.3640   44.7360  -12.7170 C.3       6 GLP5        0.0000 
     43 CA         -7.1717   39.6450  -18.9037 C.3       3 GLC5        0.0000 
     44 CA         -9.0740   40.1600  -19.3070 C.3       9 GLL5        0.0000 
     45 CA         -5.2920   39.8320  -18.1890 C.3       6 GLP5        0.0000 
     46 CA         -7.8150   43.2267  -20.5165 C.3       3 GLC5        0.0000 
     47 CA         -9.5420   43.7880  -20.4330 C.3       9 GLL5        0.0000 
     48 CA         -6.2130   43.5920  -20.8970 C.3       6 GLP5        0.0000 
     49 CA         -7.0600   40.4002  -17.9225 C.3       3 GLC5        0.0000 
     50 CA         -8.8240   41.6100  -17.3730 C.3       9 GLL5        0.0000 
     51 CA        -10.6901   43.9509  -18.5661 C.3       3 GLC5        0.0000 
     52 CA         -9.0550   42.7410  -18.1770 C.3       9 GLL5        0.0000 
     53 CA        -12.1450   44.9410  -18.0450 C.3       6 GLP5        0.0000 
     54 CA         -7.3891   43.6716  -18.1135 C.3       3 GLC5        0.0000 
     55 CA         -5.7920   44.2750  -18.5270 C.3       6 GLP5        0.0000 
@<TRIPOS>BOND
@<TRIPOS>SUBSTRUCTURE
     1 ALC1        4 GROUP        1 X    ALC  0     ROOT ALC X 1
     2 ZIC7        1 GROUP        1 X    ZIC  0     **** ZIC X 5
     3 GLC5       14 GROUP        1 X    GLC  0     **** GLC X 6
     4 ALP1        6 GROUP        1 Y    ALP  0     ROOT ALP Y 8
     5 ZIP7        3 GROUP        1 Y    ZIP  0     **** ZIP Y 12
     6 GLP5       16 GROUP        1 Y    GLP  0     **** GLP Y 13
     7 ALL1        5 GROUP        1 Z    ALL  0     ROOT ALL Z 15
     8 ZIL7        2 GROUP        1 Z    ZIL  0     **** ZIL Z 19
     9 GLL5       15 GROUP        1 Z    GLL  0     **** GLL Z 20
@<TRIPOS>SET

