#    Name: 3qiz_QI2_1_ligand
#    Modification time : Mon Apr  7 19:35:46 2014

@<TRIPOS>MOLECULE
3qiz_QI2_1_ligand
   64    65     1     0     0
SMALL
NO_CHARGES


@<TRIPOS>ATOM
      1 OAA       -11.6740   33.3320  -15.0120 O.3       1 QI2432      0.0000 
      2 NAB       -10.4880   33.6850  -15.4160 N.am      1 QI2432      0.0000 
      3 CAC       -10.2110   35.0390  -15.7730 C.2       1 QI2432      0.0000 
      4 OAD       -11.0030   35.9550  -15.7270 O.2       1 QI2432      0.0000 
      5 CAE        -8.8520   35.4810  -16.2400 C.3       1 QI2432      0.0000 
      6 CAF        -8.5370   36.8630  -15.6940 C.3       1 QI2432      0.0000 
      7 CAG        -8.6640   37.0080  -14.1110 C.3       1 QI2432      0.0000 
      8 CAH        -7.9880   38.3530  -13.6500 C.ar      1 QI2432      0.0000 
      9 CAI        -8.7030   39.5010  -13.6470 C.ar      1 QI2432      0.0000 
     10 CAJ        -8.0490   40.6790  -13.2930 C.ar      1 QI2432      0.0000 
     11 CAK        -9.2730   35.6540  -17.6910 C.3       1 QI2432      0.0000 
     12 OAL        -8.1770   35.8080  -13.3500 O.3       1 QI2432      0.0000 
     13 CAM        -6.6320   38.3040  -13.3510 C.ar      1 QI2432      0.0000 
     14 CAN        -5.9900   39.4800  -12.9870 C.ar      1 QI2432      0.0000 
     15 CAO        -6.6920   40.6430  -12.9700 C.ar      1 QI2432      0.0000 
     16 FAP        -6.0660   41.7740  -12.6300 F         1 QI2432      0.0000 
     17 CAQ        -8.2810   35.6040  -18.8230 C.3       1 QI2432      0.0000 
     18 CAR        -8.6440   35.6210  -12.0360 C.3       1 QI2432      0.0000 
     19 CAS        -8.9950   34.4310  -20.7560 C.3       1 QI2432      0.0000 
     20 NAT        -8.8520   35.7620  -20.1710 N.4       1 QI2432      0.0000 
     21 CAU       -10.1720   36.4230  -20.1210 C.3       1 QI2432      0.0000 
     22 CAV       -10.2770   37.9470  -20.1560 C.3       1 QI2432      0.0000 
     23 CAW        -9.0290   38.7560  -19.9300 C.3       1 QI2432      0.0000 
     24 CAX        -9.0740   40.1600  -19.3070 C.ar      1 QI2432      0.0000 
     25 CAY        -9.2950   41.2970  -20.1160 C.ar      1 QI2432      0.0000 
     26 CAZ        -9.2890   42.5730  -19.5620 C.ar      1 QI2432      0.0000 
     27 CBA        -9.5420   43.7880  -20.4330 C.3       1 QI2432      0.0000 
     28 CBB        -8.8320   40.3270  -17.9390 C.ar      1 QI2432      0.0000 
     29 CBC        -8.8240   41.6100  -17.3730 C.ar      1 QI2432      0.0000 
     30 CBD        -9.0550   42.7410  -18.1770 C.ar      1 QI2432      0.0000 
     31 FBE        -9.0330   43.9610  -17.6250 F         1 QI2432      0.0000 
     32 H          -9.6939   33.0126  -15.4988 H         1 QI2432      0.0000 
     33 H          -8.1626   34.7932  -16.1385 H         1 QI2432      0.0000 
     34 H          -9.2111   37.6094  -16.1428 H         1 QI2432      0.0000 
     35 H          -7.5088   37.1508  -15.9642 H         1 QI2432      0.0000 
     36 H          -9.7536   37.1396  -13.9172 H         1 QI2432      0.0000 
     37 H          -9.6934   39.5237  -13.8938 H         1 QI2432      0.0000 
     38 H          -8.5599   41.5662  -13.2697 H         1 QI2432      0.0000 
     39 H          -9.8496   36.6381  -17.7674 H         1 QI2432      0.0000 
     40 H         -10.0947   34.8886  -17.9049 H         1 QI2432      0.0000 
     41 H          -6.1205   37.4243  -13.3980 H         1 QI2432      0.0000 
     42 H          -4.9923   39.4567  -12.7350 H         1 QI2432      0.0000 
     43 H          -7.7258   34.6364  -18.7612 H         1 QI2432      0.0000 
     44 H          -7.5079   36.3913  -18.6478 H         1 QI2432      0.0000 
     45 H          -8.1765   36.3467  -20.7790 H         1 QI2432      0.0000 
     46 H         -10.7312   36.0689  -19.1956 H         1 QI2432      0.0000 
     47 H         -10.8217   36.0220  -20.9646 H         1 QI2432      0.0000 
     48 H         -11.0532   38.2582  -19.4032 H         1 QI2432      0.0000 
     49 H         -10.7265   38.2407  -21.1448 H         1 QI2432      0.0000 
     50 H          -8.4721   38.8446  -20.9216 H         1 QI2432      0.0000 
     51 H          -8.3036   38.1336  -19.3073 H         1 QI2432      0.0000 
     52 H          -9.4611   41.1700  -21.1235 H         1 QI2432      0.0000 
     53 H          -8.6592   39.5068  -17.3454 H         1 QI2432      0.0000 
     54 H          -8.6493   41.7263  -16.3692 H         1 QI2432      0.0000 
     55 H          -8.2584   34.7983  -11.6184 H         1 QI2432      0.0000 
     56 H          -8.4044   36.3903  -11.4437 H         1 QI2432      0.0000 
     57 H          -9.6390   35.5264  -12.0054 H         1 QI2432      0.0000 
     58 H          -8.1163   33.9584  -20.8230 H         1 QI2432      0.0000 
     59 H          -9.5999   33.8493  -20.2122 H         1 QI2432      0.0000 
     60 H          -9.3779   34.4702  -21.6790 H         1 QI2432      0.0000 
     61 H          -9.5126   44.6364  -19.9045 H         1 QI2432      0.0000 
     62 H          -8.8608   43.8719  -21.1603 H         1 QI2432      0.0000 
     63 H         -10.4385   43.7485  -20.8742 H         1 QI2432      0.0000 
     64 H         -11.5220   32.8632  -14.1419 H         1 QI2432      0.0000 
@<TRIPOS>BOND
     1    2    1 1    
     2   64    1 1    
     3    3    2 am   
     4   32    2 1    
     5    4    3 2    
     6    5    3 1    
     7    6    5 1    
     8   11    5 1    
     9   33    5 1    
    10    7    6 1    
    11   34    6 1    
    12   35    6 1    
    13    8    7 1    
    14   12    7 1    
    15   36    7 1    
    16    9    8 ar   
    17   13    8 ar   
    18   10    9 ar   
    19   37    9 1    
    20   15   10 ar   
    21   38   10 1    
    22   17   11 1    
    23   39   11 1    
    24   40   11 1    
    25   18   12 1    
    26   14   13 ar   
    27   41   13 1    
    28   15   14 ar   
    29   42   14 1    
    30   16   15 1    
    31   20   17 1    
    32   43   17 1    
    33   44   17 1    
    34   55   18 1    
    35   56   18 1    
    36   57   18 1    
    37   20   19 1    
    38   58   19 1    
    39   59   19 1    
    40   60   19 1    
    41   21   20 1    
    42   45   20 1    
    43   22   21 1    
    44   46   21 1    
    45   47   21 1    
    46   23   22 1    
    47   48   22 1    
    48   49   22 1    
    49   24   23 1    
    50   50   23 1    
    51   51   23 1    
    52   25   24 ar   
    53   28   24 ar   
    54   26   25 ar   
    55   52   25 1    
    56   27   26 1    
    57   30   26 ar   
    58   61   27 1    
    59   62   27 1    
    60   63   27 1    
    61   29   28 ar   
    62   53   28 1    
    63   30   29 ar   
    64   54   29 1    
    65   31   30 1    
@<TRIPOS>SUBSTRUCTURE
     1 QI2432      1 GROUP   
@<TRIPOS>SET

