#    Name: 3zra_ORB_1_INTS_M
#    Modification time : Tue Mar 25 03:50:54 2014

@<TRIPOS>MOLECULE
3zra_ORB_1_INTS_M
   73     0     6     0     0
SMALL
NO_CHARGES


@<TRIPOS>ATOM
      1 CA          9.7640    9.3980    5.7255 C.3       2 GLC5        0.0000 
      2 CA          9.8580    7.7100    4.6880 C.3       6 GLL5        0.0000 
      3 CA          9.6700   11.0860    6.7630 C.3       4 GLP5        0.0000 
      4 CA          9.7400    9.0885    3.4640 C.3       2 GLC5        0.0000 
      5 CA          9.6220   10.4670    2.2400 C.3       4 GLP5        0.0000 
      6 CA          8.3070    6.4965    3.7695 C.3       2 GLC5        0.0000 
      7 CA          6.7560    5.2830    2.8510 C.3       4 GLP5        0.0000 
      8 CA         11.3875    9.0145    5.1755 C.3       2 GLC5        0.0000 
      9 CA         12.9170   10.3190    5.6630 C.3       4 GLP5        0.0000 
     10 CA         13.0145    4.3805    3.8345 C.3       2 GLC5        0.0000 
     11 CA         13.4250    6.2260    4.7650 C.3       6 GLL5        0.0000 
     12 CA         12.6040    2.5350    2.9040 C.3       4 GLP5        0.0000 
     13 CA         15.0915    6.8825    4.2135 C.3       2 GLC5        0.0000 
     14 CA         16.7580    7.5390    3.6620 C.3       4 GLP5        0.0000 
     15 CA         12.7395    6.9460    9.2590 C.3       2 GLC5        0.0000 
     16 CA         10.6810    6.7950    8.9330 C.3       6 GLL5        0.0000 
     17 CA         14.7980    7.0970    9.5850 C.3       4 GLP5        0.0000 
     18 CA         10.8995    6.7790   11.6515 C.3       2 GLC5        0.0000 
     19 CA          9.7310    6.8310    9.9370 C.3       6 GLL5        0.0000 
     20 CA         12.0680    6.7270   13.3660 C.3       4 GLP5        0.0000 
     21 CA          6.1945    6.5725    7.3315 C.3       2 GLC5        0.0000 
     22 CA          8.0730    6.1160    8.3410 C.3       6 GLL5        0.0000 
     23 CA          4.3160    7.0290    6.3220 C.3       4 GLP5        0.0000 
     24 CA          9.5485    4.8775    5.6480 C.3       2 GLC5        0.0000 
     25 CA          9.0160    6.0630    7.3340 C.3       6 GLL5        0.0000 
     26 CA         10.0810    3.6920    3.9620 C.3       4 GLP5        0.0000 
     27 CA          7.0210    8.7385    9.0485 C.3       2 GLC5        0.0000 
     28 CA          6.3650    7.6290   10.4060 C.3       6 GLL5        0.0000 
     29 CA          7.6770    9.8480    7.6910 C.3       4 GLP5        0.0000 
     30 CA          4.8000    7.1275    8.8715 C.3       2 GLC5        0.0000 
     31 CA          3.2350    6.6260    7.3370 C.3       4 GLP5        0.0000 
     32 CA          4.2825    7.7000   11.2525 C.3       2 GLC5        0.0000 
     33 CA          2.2000    7.7710   12.0990 C.3       4 GLP5        0.0000 
     34 O           5.8110    5.3285    9.6130 O.2       1 ALC1        0.0000 
     35 O           6.6710    5.2240   10.7190 O.2       5 ALL1        0.0000 
     36 O           4.9510    5.4330    8.5070 O.2       3 ALP1        0.0000 
     37 CA          8.4635    1.5985   11.0350 C.3       2 GLC5        0.0000 
     38 CA          8.5260    3.3540   10.0490 C.3       6 GLL5        0.0000 
     39 CA          8.4010   -0.1570   12.0210 C.3       4 GLP5        0.0000 
     40 CA          7.5380    0.9325    7.5650 C.3       2 GLC5        0.0000 
     41 CA          6.9060    2.6910    8.1800 C.3       6 GLL5        0.0000 
     42 CA          8.1700   -0.8260    6.9500 C.3       4 GLP5        0.0000 
     43 CA          5.0600    2.4800    9.4000 C.3       2 GLC5        0.0000 
     44 CA          3.2140    2.2690   10.6200 C.3       4 GLP5        0.0000 
     45 CA          5.4650    2.6095    7.3550 C.3       2 GLC5        0.0000 
     46 CA          4.0240    2.5280    6.5300 C.3       4 GLP5        0.0000 
     47 CA         11.4475    5.2650   12.3050 C.3       2 GLC5        0.0000 
     48 CA         10.8270    3.8030   11.2440 C.3       6 GLL5        0.0000 
     49 CA         10.3720    4.0405   13.1855 C.3       2 GLC5        0.0000 
     50 CA          9.9170    4.2780   15.1270 C.3       4 GLP5        0.0000 
     51 CA         15.3145    6.7780    6.1210 C.3       2 GLC5        0.0000 
     52 CA         14.7380    5.0760    6.4040 C.3       6 GLL5        0.0000 
     53 CA         16.4620    8.1790    6.0280 C.3       4 GLP5        0.0000 
     54 CA         11.0317    4.8775    5.3598 C.3       2 GLC5        0.0000 
     55 CA         12.5780    5.7510    6.9410 C.3       6 GLL5        0.0000 
     56 CA         14.0852    6.3305    8.0813 C.3       2 GLC5        0.0000 
     57 CA         10.3253    5.5005    4.4708 C.3       2 GLC5        0.0000 
     58 CA         11.2810    6.9080    5.2710 C.3       6 GLL5        0.0000 
     59 CA         15.2610    4.6418    5.0477 C.3       2 GLC5        0.0000 
     60 CA         16.7260    3.4820    4.6060 C.3       4 GLP5        0.0000 
     61 CA          8.6755    8.0440    7.5847 C.3       2 GLC5        0.0000 
     62 CA         10.3320    6.4170    7.6230 C.3       6 GLL5        0.0000 
     63 CA          9.7815    8.8745    9.3395 C.3       2 GLC5        0.0000 
     64 CA          9.3570   10.9360    9.2440 C.3       4 GLP5        0.0000 
     65 CA          7.9620    8.0783    8.3395 C.3       2 GLC5        0.0000 
     66 CA          8.4210    6.5010    9.6350 C.3       6 GLL5        0.0000 
     67 CA          6.9118    8.2447   11.8962 C.3       2 GLC5        0.0000 
     68 CA          6.9560    9.4150   13.2350 C.3       4 GLP5        0.0000 
     69 CA          9.6260    1.4808    9.2505 C.3       2 GLC5        0.0000 
     70 CA         10.8590   -0.1740    9.0810 C.3       4 GLP5        0.0000 
     71 CA          7.2865    1.1050    9.7242 C.3       2 GLC5        0.0000 
     72 CA          8.2600    2.9170    8.7910 C.3       6 GLL5        0.0000 
     73 CA          6.9900   -0.5940   10.9630 C.3       4 GLP5        0.0000 
@<TRIPOS>BOND
@<TRIPOS>SUBSTRUCTURE
     1 ALC1       34 GROUP        1 X    ALC  0     ROOT ALC X 1
     2 GLC5        1 GROUP        1 X    GLC  0     **** GLC X 6
     3 ALP1       36 GROUP        1 Y    ALP  0     ROOT ALP Y 8
     4 GLP5        3 GROUP        1 Y    GLP  0     **** GLP Y 13
     5 ALL1       35 GROUP        1 Z    ALL  0     ROOT ALL Z 15
     6 GLL5        2 GROUP        1 Z    GLL  0     **** GLL Z 20
@<TRIPOS>SET

