#    Name: 3zra_ORB_1_ligand
#    Modification time : Tue Mar 25 03:50:54 2014

@<TRIPOS>MOLECULE
3zra_ORB_1_ligand
   44    46     1     0     0
SMALL
NO_CHARGES


@<TRIPOS>ATOM
      1 F2         14.7380    5.0760    6.4040 F         1 ORB1000     0.0000 
      2 C2         13.5960    5.6780    6.0240 C.ar      1 ORB1000     0.0000 
      3 C3         12.5780    5.7510    6.9410 C.ar      1 ORB1000     0.0000 
      4 C4         11.3870    6.3750    6.5740 C.ar      1 ORB1000     0.0000 
      5 C5         11.2810    6.9080    5.2710 C.ar      1 ORB1000     0.0000 
      6 CL2         9.8580    7.7100    4.6880 Cl        1 ORB1000     0.0000 
      7 N6         12.2920    6.8130    4.4260 N.ar      1 ORB1000     0.0000 
      8 C1         13.4250    6.2260    4.7650 C.ar      1 ORB1000     0.0000 
      9 C7         10.3320    6.4170    7.6230 C.ar      1 ORB1000     0.0000 
     10 C12        10.6810    6.7950    8.9330 C.ar      1 ORB1000     0.0000 
     11 C11         9.7310    6.8310    9.9370 C.ar      1 ORB1000     0.0000 
     12 C10         8.4210    6.5010    9.6350 C.ar      1 ORB1000     0.0000 
     13 C9          8.0730    6.1160    8.3410 C.ar      1 ORB1000     0.0000 
     14 C8          9.0160    6.0630    7.3340 C.ar      1 ORB1000     0.0000 
     15 C13         7.3700    6.5200   10.7090 C.3       1 ORB1000     0.0000 
     16 C25         6.3650    7.6290   10.4060 C.3       1 ORB1000     0.0000 
     17 N14         6.6710    5.2240   10.7190 N.pl3     1 ORB1000     0.0000 
     18 S15         7.3680    3.8370   11.2900 S.o2      1 ORB1000     0.0000 
     19 O16         8.1100    4.2110   12.4410 O.2       1 ORB1000     0.0000 
     20 O17         6.3440    2.8650   11.3450 O.2       1 ORB1000     0.0000 
     21 C18         8.5260    3.3540   10.0490 C.2       1 ORB1000     0.0000 
     22 C22         8.2600    2.9170    8.7910 C.2       1 ORB1000     0.0000 
     23 C24         6.9060    2.6910    8.1800 C.3       1 ORB1000     0.0000 
     24 O21         9.4450    2.7150    8.1940 O.3       1 ORB1000     0.0000 
     25 N20        10.3670    2.9720    8.9390 N.2       1 ORB1000     0.0000 
     26 C19         9.9470    3.3850   10.0990 C.2       1 ORB1000     0.0000 
     27 C23        10.8270    3.8030   11.2440 C.3       1 ORB1000     0.0000 
     28 H          12.6814    5.3578    7.8793 H         1 ORB1000     0.0000 
     29 H          14.2244    6.1597    4.0895 H         1 ORB1000     0.0000 
     30 H          11.6618    7.0467    9.1360 H         1 ORB1000     0.0000 
     31 H           9.9920    7.0979   10.8906 H         1 ORB1000     0.0000 
     32 H           7.0870    5.8662    8.1373 H         1 ORB1000     0.0000 
     33 H           8.7583    5.7694    6.3893 H         1 ORB1000     0.0000 
     34 H           7.8235    6.7115   11.6528 H         1 ORB1000     0.0000 
     35 H           5.7415    5.1019   10.3851 H         1 ORB1000     0.0000 
     36 H           6.8026    8.5275   10.3713 H         1 ORB1000     0.0000 
     37 H           5.9121    7.4894    9.5254 H         1 ORB1000     0.0000 
     38 H           5.6470    7.6793   11.1002 H         1 ORB1000     0.0000 
     39 H           6.9738    2.3631    7.2377 H         1 ORB1000     0.0000 
     40 H           6.3773    2.0120    8.6894 H         1 ORB1000     0.0000 
     41 H           6.3628    3.5304    8.1598 H         1 ORB1000     0.0000 
     42 H          11.7972    3.7279   11.0134 H         1 ORB1000     0.0000 
     43 H          10.6620    4.7522   11.5119 H         1 ORB1000     0.0000 
     44 H          10.6740    3.2387   12.0552 H         1 ORB1000     0.0000 
@<TRIPOS>BOND
     1    2    1 1    
     2    3    2 ar   
     3    8    2 ar   
     4    4    3 ar   
     5   28    3 1    
     6    5    4 ar   
     7    9    4 1    
     8    6    5 1    
     9    7    5 ar   
    10    8    7 ar   
    11   29    8 1    
    12   10    9 ar   
    13   14    9 ar   
    14   11   10 ar   
    15   30   10 1    
    16   12   11 ar   
    17   31   11 1    
    18   13   12 ar   
    19   15   12 1    
    20   14   13 ar   
    21   32   13 1    
    22   33   14 1    
    23   16   15 1    
    24   17   15 1    
    25   34   15 1    
    26   36   16 1    
    27   37   16 1    
    28   38   16 1    
    29   18   17 1    
    30   35   17 1    
    31   19   18 2    
    32   20   18 2    
    33   21   18 1    
    34   22   21 2    
    35   26   21 1    
    36   23   22 1    
    37   24   22 1    
    38   39   23 1    
    39   40   23 1    
    40   41   23 1    
    41   25   24 1    
    42   26   25 2    
    43   27   26 1    
    44   42   27 1    
    45   43   27 1    
    46   44   27 1    
@<TRIPOS>SUBSTRUCTURE
     1 ORB1000     1 GROUP   
@<TRIPOS>SET

