#    Name: 4axa_RKD_1_INTS_M
#    Modification time : Tue Mar 25 06:21:20 2014

@<TRIPOS>MOLECULE
4axa_RKD_1_INTS_M
   67     0    12     0     0
SMALL
NO_CHARGES


@<TRIPOS>ATOM
      1 OD1        10.7625    7.2285    5.2470 O.co2     3 ASC3        0.0000 
      2 OD1        10.3670    7.2050    3.8540 O.co2    11 ASL3        0.0000 
      3 OD1        11.1580    7.2520    6.6400 O.co2     7 ASP3        0.0000 
      4 O          10.7625    7.2285    5.2470 O.2       1 ALC1        0.0000 
      5 O          10.3670    7.2050    3.8540 O.2       9 ALL1        0.0000 
      6 O          11.1580    7.2520    6.6400 O.2       5 ALP1        0.0000 
      7 O          10.7055    5.9800    4.1520 O.2       1 ALC1        0.0000 
      8 O          11.0440    4.7550    4.4500 O.2       5 ALP1        0.0000 
      9 CA         11.8100   12.2995    4.6400 C.3       4 GLC5        0.0000 
     10 CA         11.8940   11.8410    2.6190 C.3      12 GLL5        0.0000 
     11 CA         11.7260   12.7580    6.6610 C.3       8 GLP5        0.0000 
     12 CA         12.4370   14.5925    2.0015 C.3       4 GLC5        0.0000 
     13 CA         12.4950   12.6720    1.7070 C.3      12 GLL5        0.0000 
     14 CA         12.3790   16.5130    2.2960 C.3       8 GLP5        0.0000 
     15 CA         15.0950   13.0330    0.4105 C.3       4 GLC5        0.0000 
     16 CA         13.4240   13.3150   -0.7320 C.3      12 GLL5        0.0000 
     17 CA         16.7660   12.7510    1.5530 C.3       8 GLP5        0.0000 
     18 CA         14.0930   15.1110   -0.6525 C.3       4 GLC5        0.0000 
     19 CA         14.7620   16.9070   -0.5730 C.3       8 GLP5        0.0000 
     20 CA         13.1100   14.5295   -2.2395 C.3       4 GLC5        0.0000 
     21 CA         12.7960   15.7440   -3.7470 C.3       8 GLP5        0.0000 
     22 CA          7.7200    7.7625    3.3415 C.3       4 GLC5        0.0000 
     23 CA          8.5300    9.4390    2.1050 C.3      12 GLL5        0.0000 
     24 CA          6.9100    6.0860    4.5780 C.3       8 GLP5        0.0000 
     25 CA          6.3280    7.6890    2.7800 C.3       4 GLC5        0.0000 
     26 CA          7.1470    9.5100    2.0910 C.3      12 GLL5        0.0000 
     27 CA          5.5090    5.8680    3.4690 C.3       8 GLP5        0.0000 
     28 CA          6.4085    8.3990    0.6230 C.3       4 GLC5        0.0000 
     29 CA          5.6700    7.2880   -0.8450 C.3       8 GLP5        0.0000 
     30 CA          8.5085   11.9805    3.6155 C.3       4 GLC5        0.0000 
     31 CA          8.5360   10.1170    4.3920 C.3      12 GLL5        0.0000 
     32 CA          8.4810   13.8440    2.8390 C.3       8 GLP5        0.0000 
     33 CA          5.2330    7.9140    3.3380 C.3       4 GLC5        0.0000 
     34 CA          4.9570    9.9600    3.2070 C.3      12 GLL5        0.0000 
     35 N           1.5750    9.5440    4.4375 N.am      2 SEC2        0.0000 
     36 N           2.8350   10.0770    3.9340 N.am     10 SEL2        0.0000 
     37 N           0.3150    9.0110    4.9410 N.am      6 SEP2        0.0000 
     38 O           1.6305   10.1370    1.9945 O.2       1 ALC1        0.0000 
     39 O           2.8710   10.0410    2.5840 O.2       9 ALL1        0.0000 
     40 O           0.3900   10.2330    1.4050 O.2       5 ALP1        0.0000 
     41 CA          3.3945   10.7635    0.4110 C.3       4 GLC5        0.0000 
     42 CA          4.1250    9.9700    2.1200 C.3      12 GLL5        0.0000 
     43 CA          2.6640   11.5570   -1.2980 C.3       8 GLP5        0.0000 
     44 CA         13.4387   13.0433    3.3635 C.3       4 GLC5        0.0000 
     45 CA         14.6830   13.8300    4.5640 C.3       8 GLP5        0.0000 
     46 CA         14.6720   12.6073    1.3077 C.3       4 GLC5        0.0000 
     47 CA         10.7510   12.8697    1.2803 C.3       4 GLC5        0.0000 
     48 CA          8.9240   13.2760    1.4980 C.3       8 GLP5        0.0000 
     49 CA         10.4285   11.9355    0.9852 C.3       4 GLC5        0.0000 
     50 CA         12.2360   11.0150    0.0160 C.3      12 GLL5        0.0000 
     51 CA         11.2411   12.5380   -1.0748 C.3       4 GLC5        0.0000 
     52 CA          9.8430   13.1760   -2.0790 C.3       8 GLP5        0.0000 
     53 CA          8.4706   11.4130    1.9418 C.3       4 GLC5        0.0000 
     54 CA          7.4957   11.6200    5.8342 C.3       4 GLC5        0.0000 
     55 CA          7.1570   10.1890    4.3810 C.3      12 GLL5        0.0000 
     56 CA          7.1450   13.0870    7.2820 C.3       8 GLP5        0.0000 
     57 CA          6.9086    8.5479    5.0072 C.3       4 GLC5        0.0000 
     58 CA          6.1510    7.0180    5.9160 C.3       8 GLP5        0.0000 
     59 CA          6.4274   11.8181    3.2430 C.3       4 GLC5        0.0000 
     60 CA          6.4360    9.8880    3.2290 C.3      12 GLL5        0.0000 
     61 CA          6.9780   13.6370    2.9800 C.3       8 GLP5        0.0000 
     62 CA          3.8610   11.6025    2.5732 C.3       4 GLC5        0.0000 
     63 CA          3.1810   13.2400    2.4830 C.3       8 GLP5        0.0000 
     64 CA          4.5170    8.4415    1.3522 C.3       4 GLC5        0.0000 
     65 CA          4.4930    6.9180    0.0410 C.3       8 GLP5        0.0000 
     66 CA         10.0756   11.8555    2.1750 C.3       4 GLC5        0.0000 
     67 CA         10.7820    9.6600    3.2710 C.3      12 GLL5        0.0000 
@<TRIPOS>BOND
@<TRIPOS>SUBSTRUCTURE
     1 ALC1        4 GROUP        1 X    ALC  0     ROOT ALC X 1
     2 SEC2       35 GROUP        1 X    SEC  0     **** SEC X 2
     3 ASC3        1 GROUP        1 X    ASC  0     **** ASC X 3
     4 GLC5        9 GROUP        1 X    GLC  0     **** GLC X 6
     5 ALP1        6 GROUP        1 Y    ALP  0     ROOT ALP Y 8
     6 SEP2       37 GROUP        1 Y    SEP  0     **** SEP Y 9
     7 ASP3        3 GROUP        1 Y    ASP  0     **** ASP Y 10
     8 GLP5       11 GROUP        1 Y    GLP  0     **** GLP Y 13
     9 ALL1        5 GROUP        1 Z    ALL  0     ROOT ALL Z 15
    10 SEL2       36 GROUP        1 Z    SEL  0     **** SEL Z 16
    11 ASL3        2 GROUP        1 Z    ASL  0     **** ASL Z 17
    12 GLL5       10 GROUP        1 Z    GLL  0     **** GLL Z 20
@<TRIPOS>SET

