#    Name: 4axa_RKD_1_ligand
#    Modification time : Tue Mar 25 06:21:20 2014

@<TRIPOS>MOLECULE
4axa_RKD_1_ligand
   39    41     1     0     0
SMALL
NO_CHARGES


@<TRIPOS>ATOM
      1 N1         10.3670    7.2050    3.8540 N.4       1 RKD1351     0.0000 
      2 C2         11.0950    8.1630    2.9800 C.3       1 RKD1351     0.0000 
      3 C4         11.4510   10.5790    2.2470 C.ar      1 RKD1351     0.0000 
      4 C5         11.8940   11.8410    2.6190 C.ar      1 RKD1351     0.0000 
      5 C6         12.4950   12.6720    1.7070 C.ar      1 RKD1351     0.0000 
      6 C7         12.6610   12.2550    0.4180 C.ar      1 RKD1351     0.0000 
      7 O7         11.2700    9.9320    4.5830 O.3       1 RKD1351     0.0000 
      8 CL8        13.4240   13.3150   -0.7320 Cl        1 RKD1351     0.0000 
      9 C9         12.2360   11.0150    0.0160 C.ar      1 RKD1351     0.0000 
     10 C10        11.6300   10.1750    0.9290 C.ar      1 RKD1351     0.0000 
     11 C11         9.2450    9.7410    3.2550 C.ar      1 RKD1351     0.0000 
     12 C12         8.5300    9.4390    2.1050 C.ar      1 RKD1351     0.0000 
     13 C13         7.1470    9.5100    2.0910 C.ar      1 RKD1351     0.0000 
     14 C14         6.4360    9.8880    3.2290 C.ar      1 RKD1351     0.0000 
     15 C15         7.1570   10.1890    4.3810 C.ar      1 RKD1351     0.0000 
     16 C16         8.5360   10.1170    4.3920 C.ar      1 RKD1351     0.0000 
     17 C17         4.9570    9.9600    3.2070 C.2       1 RKD1351     0.0000 
     18 C18         4.1100   10.0260    4.3000 C.2       1 RKD1351     0.0000 
     19 N19         2.8350   10.0770    3.9340 N.2       1 RKD1351     0.0000 
     20 N20         2.8710   10.0410    2.5840 N.pl3     1 RKD1351     0.0000 
     21 C21         4.1250    9.9700    2.1200 C.2       1 RKD1351     0.0000 
     22 C60        10.7820    9.6600    3.2710 C.3       1 RKD1351     0.0000 
     23 H          10.8540    7.9725    1.9182 H         1 RKD1351     0.0000 
     24 H          12.1866    8.0243    3.0850 H         1 RKD1351     0.0000 
     25 H          11.7660   12.1532    3.5999 H         1 RKD1351     0.0000 
     26 H          12.8194   13.6092    1.9984 H         1 RKD1351     0.0000 
     27 H          12.3657   10.7084   -0.9584 H         1 RKD1351     0.0000 
     28 H          11.3060    9.2392    0.6347 H         1 RKD1351     0.0000 
     29 H           9.0374    9.1573    1.2477 H         1 RKD1351     0.0000 
     30 H           6.6295    9.2796    1.2240 H         1 RKD1351     0.0000 
     31 H           6.6484   10.4700    5.2381 H         1 RKD1351     0.0000 
     32 H           9.0563   10.3460    5.2597 H         1 RKD1351     0.0000 
     33 H           4.4440   10.0326    5.2272 H         1 RKD1351     0.0000 
     34 H           2.0636   10.0646    2.0123 H         1 RKD1351     0.0000 
     35 H           4.4047    9.9326    1.2068 H         1 RKD1351     0.0000 
     36 H           9.4867    6.9391    3.4612 H         1 RKD1351     0.0000 
     37 H          10.8889    6.3645    3.9994 H         1 RKD1351     0.0000 
     38 H          10.1800    7.5936    4.7562 H         1 RKD1351     0.0000 
     39 H          11.9432    9.2147    4.7625 H         1 RKD1351     0.0000 
@<TRIPOS>BOND
     1    2    1 1    
     2   36    1 1    
     3   37    1 1    
     4   38    1 1    
     5   22    2 1    
     6   23    2 1    
     7   24    2 1    
     8    4    3 ar   
     9   10    3 ar   
    10   22    3 1    
    11    5    4 ar   
    12   25    4 1    
    13    6    5 ar   
    14   26    5 1    
    15    8    6 1    
    16    9    6 ar   
    17   22    7 1    
    18   39    7 1    
    19   10    9 ar   
    20   27    9 1    
    21   28   10 1    
    22   12   11 ar   
    23   16   11 ar   
    24   22   11 1    
    25   13   12 ar   
    26   29   12 1    
    27   14   13 ar   
    28   30   13 1    
    29   15   14 ar   
    30   17   14 1    
    31   16   15 ar   
    32   31   15 1    
    33   32   16 1    
    34   18   17 1    
    35   21   17 2    
    36   19   18 2    
    37   33   18 1    
    38   20   19 1    
    39   21   20 1    
    40   34   20 1    
    41   35   21 1    
@<TRIPOS>SUBSTRUCTURE
     1 RKD1351     1 GROUP   
@<TRIPOS>SET

