#    Name: 3S9T_1_CAVITY_N1_ALL.mol2
#    Modification time : Mon Mar 10 23:11:32 2014

@<TRIPOS>MOLECULE
3S9T_1_CAVITY_N1_ALL.mol2
   77     0     6     0     0
SMALL
NO_CHARGES


@<TRIPOS>ATOM
      1 CA         -1.3413    5.8312   14.1290 C.3       5 GLY6        0.0000 
      2 CZ         -2.3623    6.9279   14.1995 C.ar      4 PHE5        0.0000 
      3 N          -0.6727    4.4990   12.6196 N.2       2 ALA2        0.0000 
      4 DU         -1.6937    5.5956   12.6902 H         6 CUB7        0.0000 
      5 CZ         -2.7147    6.6922   12.7607 C.ar      4 PHE5        0.0000 
      6 CZ         -0.0041    3.1668   11.1103 C.ar      4 PHE5        0.0000 
      7 DU         -3.0672    6.4566   11.3219 H         6 CUB7        0.0000 
      8 CA         -0.3566    2.9311    9.6715 C.3       5 GLY6        0.0000 
      9 CA         -2.3821    4.8353   14.5471 C.3       5 GLY6        0.0000 
     10 CZ         -3.4031    5.9319   14.6176 C.ar      4 PHE5        0.0000 
     11 OG         -2.7345    4.5997   13.1082 O.2       1 SER1        0.0000 
     12 CZ         -3.7556    5.6963   13.1788 C.ar      4 PHE5        0.0000 
     13 OG         -1.0450    2.1708   11.5284 O.2       1 SER1        0.0000 
     14 OG         -2.0660    3.2674   11.5989 O.2       1 SER1        0.0000 
     15 DU         -3.0870    4.3640   11.6694 H         6 CUB7        0.0000 
     16 DU         -4.1080    5.4606   11.7399 H         6 CUB7        0.0000 
     17 CZ         -5.1290    6.5572   11.8104 C.ar      4 PHE5        0.0000 
     18 O          -1.3974    1.9352   10.0895 O.2       2 ALA2        0.0000 
     19 O          -2.4184    3.0318   10.1600 O.2       2 ALA2        0.0000 
     20 O          -3.4395    4.1284   10.2306 O.2       2 ALA2        0.0000 
     21 O          -4.4605    5.2250   10.3011 O.2       2 ALA2        0.0000 
     22 O          -5.4815    6.3216   10.3716 O.2       2 ALA2        0.0000 
     23 O          -3.7919    3.8927    8.7917 O.2       2 ALA2        0.0000 
     24 OG         -3.4229    3.8393   14.9651 O.2       1 SER1        0.0000 
     25 CA         -4.4439    4.9359   15.0357 C.3       5 GLY6        0.0000 
     26 CZ         -5.4649    6.0325   15.1062 C.ar      4 PHE5        0.0000 
     27 OG         -3.7753    3.6037   13.5263 O.2       1 SER1        0.0000 
     28 O          -4.7964    4.7003   13.5968 O.2       2 ALA2        0.0000 
     29 CZ         -5.8174    5.7969   13.6674 C.ar      4 PHE5        0.0000 
     30 OG         -2.0858    1.1748   11.9464 O.2       1 SER1        0.0000 
     31 OG         -3.1068    2.2715   12.0169 O.2       1 SER1        0.0000 
     32 O          -4.1278    3.3681   12.0875 O.2       2 ALA2        0.0000 
     33 O          -5.1488    4.4647   12.1580 O.2       2 ALA2        0.0000 
     34 O          -6.1699    5.5613   12.2285 O.2       2 ALA2        0.0000 
     35 O          -7.1909    6.6579   12.2990 O.2       2 ALA2        0.0000 
     36 O          -2.4382    0.9392   10.5076 O.2       2 ALA2        0.0000 
     37 O          -3.4593    2.0358   10.5781 O.2       2 ALA2        0.0000 
     38 O          -4.4803    3.1324   10.6486 O.2       2 ALA2        0.0000 
     39 CA         -4.1112    3.0790   16.8220 C.3       5 GLY6        0.0000 
     40 CA         -6.1533    5.2722   16.9631 C.3       5 GLY6        0.0000 
     41 OG         -4.4637    2.8434   15.3832 O.2       1 SER1        0.0000 
     42 CA         -5.4847    3.9400   15.4537 C.3       5 GLY6        0.0000 
     43 CA         -6.5057    5.0366   15.5243 C.3       5 GLY6        0.0000 
     44 OG         -3.7951    1.5111   13.8738 O.2       1 SER1        0.0000 
     45 OG         -4.8162    2.6077   13.9444 O.2       1 SER1        0.0000 
     46 O          -5.8372    3.7043   14.0149 O.2       2 ALA2        0.0000 
     47 CA         -6.8582    4.8010   14.0854 C.3       5 GLY6        0.0000 
     48 CA         -3.1266    0.1789   12.3645 C.3       5 GLY6        0.0000 
     49 OG         -4.1476    1.2755   12.4350 O.2       1 SER1        0.0000 
     50 O          -5.1686    2.3721   12.5055 O.2       2 ALA2        0.0000 
     51 CA         -2.4580   -1.1534   10.8551 C.3       5 GLY6        0.0000 
     52 O          -3.4790   -0.0567   10.9257 O.2       2 ALA2        0.0000 
     53 N          -4.5001    1.0399   10.9962 N.2       2 ALA2        0.0000 
     54 O          -5.5211    2.1365   11.0667 O.2       2 ALA2        0.0000 
     55 O          -3.8315   -0.2924    9.4868 O.2       2 ALA2        0.0000 
     56 N          -4.8525    0.8042    9.5573 N.2       2 ALA2        0.0000 
     57 CA         -5.8206    3.4153   18.7495 C.3       5 GLY6        0.0000 
     58 CA         -5.1520    2.0831   17.2401 C.3       5 GLY6        0.0000 
     59 CA         -6.1731    3.1797   17.3106 C.3       5 GLY6        0.0000 
     60 CA         -7.1941    4.2763   17.3812 C.3       5 GLY6        0.0000 
     61 OD1        -4.4835    0.7508   15.7308 O.3       3 ASP3        0.0000 
     62 OD1        -5.5045    1.8474   15.8013 O.3       3 ASP3        0.0000 
     63 CA         -6.5255    2.9440   15.8718 C.3       5 GLY6        0.0000 
     64 CA         -7.5465    4.0406   15.9423 C.3       5 GLY6        0.0000 
     65 N          -5.8570    1.6118   14.3624 N.2       2 ALA2        0.0000 
     66 CA         -6.8780    2.7084   14.4330 C.3       5 GLY6        0.0000 
     67 CA         -3.1464   -1.9137   12.7120 C.3       5 GLY6        0.0000 
     68 CA         -4.1674   -0.8171   12.7826 C.3       5 GLY6        0.0000 
     69 N          -5.1884    0.2795   12.8531 N.2       2 ALA2        0.0000 
     70 CA         -3.4988   -2.1493   11.2732 C.3       5 GLY6        0.0000 
     71 CA         -4.5199   -1.0527   11.3437 C.3       5 GLY6        0.0000 
     72 CA         -5.5409    0.0439   11.4142 C.3       5 GLY6        0.0000 
     73 CZ         -5.8404    1.3227   19.0970 C.ar      4 PHE5        0.0000 
     74 CZ         -6.1929    1.0871   17.6582 C.ar      4 PHE5        0.0000 
     75 CA         -7.2139    2.1837   17.7287 C.3       5 GLY6        0.0000 
     76 OD1        -6.5453    0.8515   16.2193 O.3       3 ASP3        0.0000 
     77 CA         -7.5663    1.9481   16.2899 C.3       5 GLY6        0.0000 
@<TRIPOS>BOND
@<TRIPOS>SUBSTRUCTURE
     1 SER1       11 GROUP   
     2 ALA2        3 GROUP   
     3 ASP3       61 GROUP   
     4 PHE5        2 GROUP   
     5 GLY6        1 GROUP   
     6 CUB7        4 GROUP   
@<TRIPOS>SET

