#    Name: 3s9t_E49_1_INTS_M
#    Modification time : Tue Mar 25 12:21:22 2014

@<TRIPOS>MOLECULE
3s9t_E49_1_INTS_M
   39     0    12     0     0
SMALL
NO_CHARGES


@<TRIPOS>ATOM
      1 CA         -0.5190    1.3785    9.4945 C.3       4 GLC5        0.0000 
      2 CA         -1.9310    2.5010   10.7070 C.3      12 GLL5        0.0000 
      3 CA          0.8930    0.2560    8.2820 C.3       8 GLP5        0.0000 
      4 CA         -2.2565    0.5715   13.1195 C.3       4 GLC5        0.0000 
      5 CA         -3.0800    1.9640   12.0540 C.3      12 GLL5        0.0000 
      6 CA         -1.4330   -0.8210   14.1850 C.3       8 GLP5        0.0000 
      7 CA         -3.9445    7.6520   14.2410 C.3       4 GLC5        0.0000 
      8 CA         -2.1700    6.7310   13.7960 C.3      12 GLL5        0.0000 
      9 CA         -5.7190    8.5730   14.6860 C.3       8 GLP5        0.0000 
     10 CA         -1.8670    6.1780   15.7975 C.3       4 GLC5        0.0000 
     11 CA         -1.5640    5.6250   17.7990 C.3       8 GLP5        0.0000 
     12 CA         -7.7620    5.1725   15.3685 C.3       4 GLC5        0.0000 
     13 CA         -5.9330    4.6360   15.1350 C.3      12 GLL5        0.0000 
     14 CA         -9.5910    5.7090   15.6020 C.3       8 GLP5        0.0000 
     15 N          -4.0505    0.6305   18.5150 N.am      2 SEC2        0.0000 
     16 N          -5.3560    1.0460   17.9540 N.am     10 SEL2        0.0000 
     17 N          -2.7450    0.2150   19.0760 N.am      6 SEP2        0.0000 
     18 O          -4.4600   -1.3025   16.8025 O.2       1 ALC1        0.0000 
     19 O          -5.2970   -0.5060   16.0580 O.2       9 ALL1        0.0000 
     20 O          -3.6230   -2.0990   17.5470 O.2       5 ALP1        0.0000 
     21 Zn         -5.9755   -1.1040   15.6600 Zn        3 ZIC7        0.0000 
     22 Zn         -5.2970   -0.5060   16.0580 Zn       11 ZIL7        0.0000 
     23 Zn         -6.6540   -1.7020   15.2620 Zn        7 ZIP7        0.0000 
     24 CA         -8.2200    4.7635   16.5300 C.3       4 GLC5        0.0000 
     25 CA         -6.8490    3.8180   17.4580 C.3      12 GLL5        0.0000 
     26 CA         -6.8820    5.5430   18.0630 C.3       4 GLC5        0.0000 
     27 CA         -6.9150    7.2680   18.6680 C.3       8 GLP5        0.0000 
     28 CA         -8.2845    3.4540   18.3730 C.3       4 GLC5        0.0000 
     29 CA         -9.7200    3.0900   19.2880 C.3       8 GLP5        0.0000 
     30 CA         -5.3825    4.5645   18.0490 C.3       4 GLC5        0.0000 
     31 CA         -3.9160    5.3110   18.6400 C.3       8 GLP5        0.0000 
     32 CA         -6.5250    4.1795   19.5950 C.3       4 GLC5        0.0000 
     33 CA         -6.2010    4.5410   21.7320 C.3       8 GLP5        0.0000 
     34 CA         -0.1927    6.1900   14.4050 C.3       4 GLC5        0.0000 
     35 CA          1.5140    6.0050   15.6500 C.3       8 GLP5        0.0000 
     36 CA         -7.8887    3.0660   15.3460 C.3       4 GLC5        0.0000 
     37 CA         -6.1970    3.4920   15.9250 C.3      12 GLL5        0.0000 
     38 CA         -9.8610    3.2480   14.9110 C.3       8 GLP5        0.0000 
     39 CA         -4.9905    4.6875   17.0850 C.3       4 GLC5        0.0000 
@<TRIPOS>BOND
@<TRIPOS>SUBSTRUCTURE
     1 ALC1       18 GROUP        1 X    ALC  0     ROOT ALC X 1
     2 SEC2       15 GROUP        1 X    SEC  0     **** SEC X 2
     3 ZIC7       21 GROUP        1 X    ZIC  0     **** ZIC X 5
     4 GLC5        1 GROUP        1 X    GLC  0     **** GLC X 6
     5 ALP1       20 GROUP        1 Y    ALP  0     ROOT ALP Y 8
     6 SEP2       17 GROUP        1 Y    SEP  0     **** SEP Y 9
     7 ZIP7       23 GROUP        1 Y    ZIP  0     **** ZIP Y 12
     8 GLP5        3 GROUP        1 Y    GLP  0     **** GLP Y 13
     9 ALL1       19 GROUP        1 Z    ALL  0     ROOT ALL Z 15
    10 SEL2       16 GROUP        1 Z    SEL  0     **** SEL Z 16
    11 ZIL7       22 GROUP        1 Z    ZIL  0     **** ZIL Z 19
    12 GLL5        2 GROUP        1 Z    GLL  0     **** GLL Z 20
@<TRIPOS>SET

