#    Name: 3s9t_E49_1_ligand
#    Modification time : Tue Mar 25 12:21:22 2014

@<TRIPOS>MOLECULE
3s9t_E49_1_ligand
   36    37     1     0     0
SMALL
NO_CHARGES


@<TRIPOS>ATOM
      1 N1         -0.7740    4.7670   10.2150 N.ar      1 E49266      0.0000 
      2 C2         -1.5170    4.1500   11.1130 C.ar      1 E49266      0.0000 
      3 N3         -1.8890    4.7280   12.2580 N.ar      1 E49266      0.0000 
      4 C4         -1.6290    6.0190   12.5240 C.ar      1 E49266      0.0000 
      5 C5         -0.8950    6.7040   11.5700 C.ar      1 E49266      0.0000 
      6 C6         -0.4370    6.0630   10.4120 C.ar      1 E49266      0.0000 
      7 S7         -1.9310    2.5010   10.7070 S.3       1 E49266      0.0000 
      8 C8         -3.0800    1.9640   12.0540 C.3       1 E49266      0.0000 
      9 C9         -4.2280    2.9630   12.2230 C.2       1 E49266      0.0000 
     10 O10        -4.6780    3.6070   11.2120 O.2       1 E49266      0.0000 
     11 C11        -2.1700    6.7310   13.7960 C.3       1 E49266      0.0000 
     12 C12         0.4060    6.7420    9.4440 C.3       1 E49266      0.0000 
     13 C13        -4.8440    3.1210   13.5860 C.ar      1 E49266      0.0000 
     14 C14        -5.0590    2.0850   14.4560 C.ar      1 E49266      0.0000 
     15 C15        -5.6360    2.2760   15.6370 C.ar      1 E49266      0.0000 
     16 C16        -6.1970    3.4920   15.9250 C.ar      1 E49266      0.0000 
     17 C17        -5.9330    4.6360   15.1350 C.ar      1 E49266      0.0000 
     18 C18        -5.4280    4.3590   13.9570 C.ar      1 E49266      0.0000 
     19 S19        -5.9540    0.8350   16.6890 S.o2      1 E49266      0.0000 
     20 O20        -7.4580    0.7840   16.7220 O.2       1 E49266      0.0000 
     21 O22        -5.3560    1.0460   17.9540 O.2       1 E49266      0.0000 
     22 N23        -5.2970   -0.5060   16.0580 N.pl3     1 E49266      0.0000 
     23 CL21       -6.8490    3.8180   17.4580 Cl        1 E49266      0.0000 
     24 H          -0.6777    7.7067   11.7088 H         1 E49266      0.0000 
     25 H          -2.4230    1.9129   12.8873 H         1 E49266      0.0000 
     26 H          -3.3847    1.0076   11.7060 H         1 E49266      0.0000 
     27 H          -4.7528    1.1203   14.1646 H         1 E49266      0.0000 
     28 H          -6.1315    5.5455   15.4900 H         1 E49266      0.0000 
     29 H          -5.4372    5.1025   13.1808 H         1 E49266      0.0000 
     30 H          -4.5969   -0.9558   16.6125 H         1 E49266      0.0000 
     31 H          -1.8442    6.2928   14.6338 H         1 E49266      0.0000 
     32 H          -1.8840    7.6884   13.8357 H         1 E49266      0.0000 
     33 H          -3.1694    6.7219   13.8300 H         1 E49266      0.0000 
     34 H           1.2959    6.2959    9.3489 H         1 E49266      0.0000 
     35 H          -0.0116    6.7596    8.5355 H         1 E49266      0.0000 
     36 H           0.5805    7.6915    9.7048 H         1 E49266      0.0000 
@<TRIPOS>BOND
     1    2    1 ar   
     2    6    1 ar   
     3    3    2 ar   
     4    7    2 1    
     5    4    3 ar   
     6    5    4 ar   
     7   11    4 1    
     8    6    5 ar   
     9   24    5 1    
    10   12    6 1    
    11    8    7 1    
    12    9    8 1    
    13   25    8 1    
    14   26    8 1    
    15   10    9 2    
    16   13    9 1    
    17   31   11 1    
    18   32   11 1    
    19   33   11 1    
    20   34   12 1    
    21   35   12 1    
    22   36   12 1    
    23   14   13 ar   
    24   18   13 ar   
    25   15   14 ar   
    26   27   14 1    
    27   16   15 ar   
    28   19   15 1    
    29   17   16 ar   
    30   23   16 1    
    31   18   17 ar   
    32   28   17 1    
    33   29   18 1    
    34   20   19 2    
    35   21   19 2    
    36   22   19 1    
    37   30   22 1    
@<TRIPOS>SUBSTRUCTURE
     1 E49266      1 GROUP   
@<TRIPOS>SET

