#    Name: 1svg_I04_1_INTS_M
#    Modification time : Tue Mar 25 02:48:59 2014

@<TRIPOS>MOLECULE
1svg_I04_1_INTS_M
  107     0    12     0     0
SMALL
NO_CHARGES


@<TRIPOS>ATOM
      1 CA         18.4750   12.7125   -2.5985 C.3       4 GLC5        0.0000 
      2 CA         17.1040   12.0200   -3.4210 C.3      12 GLL5        0.0000 
      3 CA         19.8460   13.4050   -1.7760 C.3       8 GLP5        0.0000 
      4 CA         17.3645   13.4220   -4.2875 C.3       4 GLC5        0.0000 
      5 CA         17.6250   14.8240   -5.1540 C.3       8 GLP5        0.0000 
      6 CA         18.3255   12.1670   -6.3825 C.3       4 GLC5        0.0000 
      7 CA         18.0500   10.2530   -6.9860 C.3      12 GLL5        0.0000 
      8 CA         18.6010   14.0810   -5.7790 C.3       8 GLP5        0.0000 
      9 CA         19.2930   11.4405   -7.9335 C.3       4 GLC5        0.0000 
     10 CA         20.5360   12.6280   -8.8810 C.3       8 GLP5        0.0000 
     11 CA         17.2625   10.0015   -9.0165 C.3       4 GLC5        0.0000 
     12 CA         16.4750    9.7500  -11.0470 C.3       8 GLP5        0.0000 
     13 CA         18.3405    8.5120   -6.4810 C.3       4 GLC5        0.0000 
     14 CA         18.6310    6.7710   -5.9760 C.3       8 GLP5        0.0000 
     15 CA         13.0340   13.7155   -5.4140 C.3       4 GLC5        0.0000 
     16 CA         13.7500   11.8590   -4.8680 C.3      12 GLL5        0.0000 
     17 CA         12.3180   15.5720   -5.9600 C.3       8 GLP5        0.0000 
     18 N          11.4205   11.6185   -3.6905 N.am      2 SEC2        0.0000 
     19 N          12.5420   12.2190   -4.6090 N.am     10 SEL2        0.0000 
     20 N          10.2990   11.0180   -2.7720 N.am      6 SEP2        0.0000 
     21 O          11.7475   11.7680   -5.4990 O.2       1 ALC1        0.0000 
     22 O          12.5420   12.2190   -4.6090 O.2       9 ALL1        0.0000 
     23 O          10.9530   11.3170   -6.3890 O.2       5 ALP1        0.0000 
     24 CA         13.8495   13.9595   -3.7650 C.3       4 GLC5        0.0000 
     25 CA         14.8190   12.1390   -3.9570 C.3      12 GLL5        0.0000 
     26 CA         12.8800   15.7800   -3.5730 C.3       8 GLP5        0.0000 
     27 N          16.4320   14.7645   -2.1630 N.am      2 SEC2        0.0000 
     28 N          15.3150   13.8970   -2.6300 N.am     10 SEL2        0.0000 
     29 N          17.5490   15.6320   -1.6960 N.am      6 SEP2        0.0000 
     30 CA         13.3970   13.3005    2.3880 C.3       4 GLC5        0.0000 
     31 CA         12.5920   13.0820    0.3790 C.3      12 GLL5        0.0000 
     32 CA         14.2020   13.5190    4.3970 C.3       8 GLP5        0.0000 
     33 CA         12.2590   14.6650    1.4645 C.3       4 GLC5        0.0000 
     34 CA         11.9260   16.2480    2.5500 C.3       8 GLP5        0.0000 
     35 O          10.5725    9.4625    0.5365 O.2       1 ALC1        0.0000 
     36 O          11.0620   10.1800    2.0090 O.2       9 ALL1        0.0000 
     37 O          10.0830    8.7450   -0.9360 O.2       5 ALP1        0.0000 
     38 O          11.2610    8.9760    1.1760 O.2       1 ALC1        0.0000 
     39 O          11.4600    7.7720    0.3430 O.2       5 ALP1        0.0000 
     40 CA          9.5350   11.2640    2.3865 C.3       4 GLC5        0.0000 
     41 CA         10.5010    9.6830    3.2260 C.3      12 GLL5        0.0000 
     42 CA          8.5690   12.8450    1.5470 C.3       8 GLP5        0.0000 
     43 CA         13.0400    5.0480    4.1620 C.3       4 GLC5        0.0000 
     44 CA         12.2660    6.8630    3.5850 C.3      12 GLL5        0.0000 
     45 CA         13.8140    3.2330    4.7390 C.3       8 GLP5        0.0000 
     46 OD1        11.2745    7.1925    1.5265 O.co2     3 ASC3        0.0000 
     47 OD1        11.0890    6.6130    2.7100 O.co2    11 ASL3        0.0000 
     48 OD1        11.4600    7.7720    0.3430 O.co2     7 ASP3        0.0000 
     49 CA          9.4750    6.1140    5.3060 C.3       4 GLC5        0.0000 
     50 CA          9.8640    7.0860    3.3330 C.3      12 GLL5        0.0000 
     51 CA          9.0860    5.1420    7.2790 C.3       8 GLP5        0.0000 
     52 O           8.4280    8.8085    4.8650 O.2       1 ALC1        0.0000 
     53 O           8.1940    8.7520    3.4130 O.2       9 ALL1        0.0000 
     54 O           8.6620    8.8650    6.3170 O.2       5 ALP1        0.0000 
     55 N           6.9005    8.0315    0.4270 N.am      2 SEC2        0.0000 
     56 N           7.2880    8.9940    1.3350 N.am     10 SEL2        0.0000 
     57 N           6.5130    7.0690   -0.4810 N.am      6 SEP2        0.0000 
     58 CA          4.5435    9.7915    0.3015 C.3       4 GLC5        0.0000 
     59 CA          4.6850    9.0500    2.2800 C.3      12 GLL5        0.0000 
     60 CA          4.4020   10.5330   -1.6770 C.3       8 GLP5        0.0000 
     61 CA          2.5035    8.1760    1.0695 C.3       4 GLC5        0.0000 
     62 CA          3.4040    9.1320    2.7500 C.3      12 GLL5        0.0000 
     63 CA          1.6030    7.2200   -0.6110 C.3       8 GLP5        0.0000 
     64 CA          1.4880    9.7995    3.5110 C.3       4 GLC5        0.0000 
     65 CA         -0.4280   10.4670    4.2720 C.3       8 GLP5        0.0000 
     66 CA          2.0200    7.7085    2.9865 C.3       4 GLC5        0.0000 
     67 CA          0.6360    6.2850    3.2230 C.3       8 GLP5        0.0000 
     68 N           1.7435    8.7995    4.6460 N.am      2 SEC2        0.0000 
     69 N           3.1600    9.2440    4.1130 N.am     10 SEL2        0.0000 
     70 N           0.3270    8.3550    5.1790 N.am      6 SEP2        0.0000 
     71 CA          3.5585   10.9915    4.0005 C.3       4 GLC5        0.0000 
     72 CA          4.2120    9.2980    5.0180 C.3      12 GLL5        0.0000 
     73 CA          2.9050   12.6850    2.9830 C.3       8 GLP5        0.0000 
     74 CA         14.8173   12.5700   -7.6197 C.3       4 GLC5        0.0000 
     75 CA         14.0600   11.1780   -6.0920 C.3      12 GLL5        0.0000 
     76 CA         14.9330   14.1560   -9.0000 C.3       8 GLP5        0.0000 
     77 CA         13.6394    9.7492   -6.3459 C.3       4 GLC5        0.0000 
     78 CA         13.0530    8.0770   -7.1380 C.3       8 GLP5        0.0000 
     79 CA         14.9725   12.1852   -0.0343 C.3       4 GLC5        0.0000 
     80 CA         13.6060   11.0960   -1.2660 C.3      12 GLL5        0.0000 
     81 CA         16.2230   12.5940    1.3470 C.3       8 GLP5        0.0000 
     82 CA         11.7545   11.9943   -1.7212 C.3       4 GLC5        0.0000 
     83 CA         13.8380   12.4570   -1.5650 C.3      12 GLL5        0.0000 
     84 CA          9.7870   12.2120   -2.0270 C.3       8 GLP5        0.0000 
     85 CA         13.2273   14.3675   -2.3592 C.3       4 GLC5        0.0000 
     86 CA         14.4272   11.9100    0.8073 C.3       4 GLC5        0.0000 
     87 CA         12.3790   11.7320    0.6820 C.3      12 GLL5        0.0000 
     88 CA         11.2093   11.7190   -0.8798 C.3       4 GLC5        0.0000 
     89 CA         14.5872   12.9307    0.5867 C.3       4 GLC5        0.0000 
     90 CA         11.3693   12.7398   -1.1002 C.3       4 GLC5        0.0000 
     91 CA         13.3110   13.4530   -0.7260 C.3      12 GLL5        0.0000 
     92 CA         10.5273   12.6260    1.0388 C.3       4 GLC5        0.0000 
     93 CA         11.2357   10.8235    5.1345 C.3       4 GLC5        0.0000 
     94 CA         11.4040   12.1710    6.5530 C.3       8 GLP5        0.0000 
     95 CA          8.7658    6.6780    1.9570 C.3       4 GLC5        0.0000 
     96 CA          9.5190    8.5300    2.8830 C.3      12 GLL5        0.0000 
     97 CA          7.8400    5.5480    0.8060 C.3       8 GLP5        0.0000 
     98 CA          6.1463   11.1025    3.5335 C.3       4 GLC5        0.0000 
     99 CA          5.7780    9.1120    3.1660 C.3      12 GLL5        0.0000 
    100 CA          6.6440   13.0420    3.2120 C.3       8 GLP5        0.0000 
    101 CA          3.4747   10.8880    2.7490 C.3       4 GLC5        0.0000 
    102 CA          4.4974    7.5297    2.9792 C.3       4 GLC5        0.0000 
    103 CA          4.6770    5.9530    3.2220 C.3       8 GLP5        0.0000 
    104 CA          4.7562   11.0110    5.8455 C.3       4 GLC5        0.0000 
    105 CA          5.5190    9.2140    4.5440 C.3      12 GLL5        0.0000 
    106 CA          4.6470   12.7660    6.9100 C.3       8 GLP5        0.0000 
    107 CA          4.7713    7.6045    4.0015 C.3       4 GLC5        0.0000 
@<TRIPOS>BOND
@<TRIPOS>SUBSTRUCTURE
     1 ALC1       21 GROUP        1 X    ALC  0     ROOT ALC X 1
     2 SEC2       18 GROUP        1 X    SEC  0     **** SEC X 2
     3 ASC3       46 GROUP        1 X    ASC  0     **** ASC X 3
     4 GLC5        1 GROUP        1 X    GLC  0     **** GLC X 6
     5 ALP1       23 GROUP        1 Y    ALP  0     ROOT ALP Y 8
     6 SEP2       20 GROUP        1 Y    SEP  0     **** SEP Y 9
     7 ASP3       48 GROUP        1 Y    ASP  0     **** ASP Y 10
     8 GLP5        3 GROUP        1 Y    GLP  0     **** GLP Y 13
     9 ALL1       22 GROUP        1 Z    ALL  0     ROOT ALL Z 15
    10 SEL2       19 GROUP        1 Z    SEL  0     **** SEL Z 16
    11 ASL3       47 GROUP        1 Z    ASL  0     **** ASL Z 17
    12 GLL5        2 GROUP        1 Z    GLL  0     **** GLL Z 20
@<TRIPOS>SET

