#    Name: 1svg_I04_1_ligand
#    Modification time : Tue Mar 25 02:48:59 2014

@<TRIPOS>MOLECULE
1svg_I04_1_ligand
   63    66     1     0     0
SMALL
NO_CHARGES


@<TRIPOS>ATOM
      1 F96        17.1040   12.0200   -3.4210 F         1 I04351      0.0000 
      2 C76        16.1080   11.7360   -4.2890 C.ar      1 I04351      0.0000 
      3 C75        16.3970   11.0580   -5.4640 C.ar      1 I04351      0.0000 
      4 O95        17.7050   10.6830   -5.6690 O.3       1 I04351      0.0000 
      5 C98        18.0500   10.2530   -6.9860 C.3       1 I04351      0.0000 
      6 C74        15.3430   10.7900   -6.3870 C.ar      1 I04351      0.0000 
      7 C73        14.0600   11.1780   -6.0920 C.ar      1 I04351      0.0000 
      8 C72        13.7500   11.8590   -4.8680 C.ar      1 I04351      0.0000 
      9 O92        12.5420   12.2190   -4.6090 O.3       1 I04351      0.0000 
     10 C71        14.8190   12.1390   -3.9570 C.ar      1 I04351      0.0000 
     11 C61        14.6480   12.8520   -2.7220 C.2       1 I04351      0.0000 
     12 O62        15.3150   13.8970   -2.6300 O.2       1 I04351      0.0000 
     13 C54        13.8380   12.4570   -1.5650 C.ar      1 I04351      0.0000 
     14 C55        13.6060   11.0960   -1.2660 C.ar      1 I04351      0.0000 
     15 C56        12.8840   10.7200   -0.1470 C.ar      1 I04351      0.0000 
     16 C53        13.3110   13.4530   -0.7260 C.ar      1 I04351      0.0000 
     17 C52        12.5920   13.0820    0.3790 C.ar      1 I04351      0.0000 
     18 C51        12.3790   11.7320    0.6820 C.ar      1 I04351      0.0000 
     19 C42        11.6290   11.4110    1.8830 C.2       1 I04351      0.0000 
     20 O43        11.5290   12.2580    2.7560 O.2       1 I04351      0.0000 
     21 N41        11.0620   10.1800    2.0090 N.am      1 I04351      0.0000 
     22 C37        10.5010    9.6830    3.2260 C.3       1 I04351      0.0000 
     23 C36        11.6340    9.2690    4.2060 C.3       1 I04351      0.0000 
     24 C35        12.6890    8.3300    3.5950 C.3       1 I04351      0.0000 
     25 C34        12.2660    6.8630    3.5850 C.3       1 I04351      0.0000 
     26 N33        11.0890    6.6130    2.7100 N.4       1 I04351      0.0000 
     27 C32         9.8640    7.0860    3.3330 C.3       1 I04351      0.0000 
     28 C31         9.5190    8.5300    2.8830 C.3       1 I04351      0.0000 
     29 N23         8.1940    8.7520    3.4130 N.am      1 I04351      0.0000 
     30 C21         7.1140    8.9730    2.5750 C.2       1 I04351      0.0000 
     31 O22         7.2880    8.9940    1.3350 O.2       1 I04351      0.0000 
     32 C14         5.7780    9.1120    3.1660 C.ar      1 I04351      0.0000 
     33 C13         4.6850    9.0500    2.2800 C.ar      1 I04351      0.0000 
     34 C12         3.4040    9.1320    2.7500 C.ar      1 I04351      0.0000 
     35 N11         3.1600    9.2440    4.1130 N.ar      1 I04351      0.0000 
     36 C16         4.2120    9.2980    5.0180 C.ar      1 I04351      0.0000 
     37 C15         5.5190    9.2140    4.5440 C.ar      1 I04351      0.0000 
     38 H          15.5681   10.3071   -7.2626 H         1 I04351      0.0000 
     39 H          13.2832   10.9883   -6.7469 H         1 I04351      0.0000 
     40 H          13.9883   10.3763   -1.9033 H         1 I04351      0.0000 
     41 H          12.7203    9.7444    0.0744 H         1 I04351      0.0000 
     42 H          13.4712   14.4383   -0.9515 H         1 I04351      0.0000 
     43 H          12.1933   13.8030    1.0099 H         1 I04351      0.0000 
     44 H          11.0207    9.5347    1.1762 H         1 I04351      0.0000 
     45 H           9.9163   10.4690    3.7138 H         1 I04351      0.0000 
     46 H          11.1777    8.7773    5.0777 H         1 I04351      0.0000 
     47 H          12.1316   10.1808    4.5678 H         1 I04351      0.0000 
     48 H          13.6238    8.4323    4.1643 H         1 I04351      0.0000 
     49 H          12.8943    8.6536    2.5647 H         1 I04351      0.0000 
     50 H          12.0383    6.5590    4.6184 H         1 I04351      0.0000 
     51 H          13.1209    6.2561    3.2487 H         1 I04351      0.0000 
     52 H           9.9497    7.0942    4.4275 H         1 I04351      0.0000 
     53 H           9.0103    6.4472    3.0715 H         1 I04351      0.0000 
     54 H           9.4210    8.4832    1.7710 H         1 I04351      0.0000 
     55 H           8.0770    8.7408    4.4355 H         1 I04351      0.0000 
     56 H           4.8721    8.9415    1.2696 H         1 I04351      0.0000 
     57 H           2.6033    9.1113    2.0936 H         1 I04351      0.0000 
     58 H           4.0315    9.3980    6.0190 H         1 I04351      0.0000 
     59 H           6.3086    9.2263    5.2060 H         1 I04351      0.0000 
     60 H          19.0151    9.9997   -7.0531 H         1 I04351      0.0000 
     61 H          17.5172    9.4550   -7.2676 H         1 I04351      0.0000 
     62 H          17.8870   10.9688   -7.6650 H         1 I04351      0.0000 
     63 H          12.1018   12.3091   -5.5024 H         1 I04351      0.0000 
@<TRIPOS>BOND
     1    2    1 1    
     2    3    2 ar   
     3   10    2 ar   
     4    4    3 1    
     5    6    3 ar   
     6    5    4 1    
     7   60    5 1    
     8   61    5 1    
     9   62    5 1    
    10    7    6 ar   
    11   38    6 1    
    12    8    7 ar   
    13   39    7 1    
    14    9    8 1    
    15   10    8 ar   
    16   63    9 1    
    17   11   10 1    
    18   12   11 2    
    19   13   11 1    
    20   14   13 ar   
    21   16   13 ar   
    22   15   14 ar   
    23   40   14 1    
    24   18   15 ar   
    25   41   15 1    
    26   17   16 ar   
    27   42   16 1    
    28   18   17 ar   
    29   43   17 1    
    30   19   18 1    
    31   20   19 2    
    32   21   19 am   
    33   22   21 1    
    34   44   21 1    
    35   23   22 1    
    36   28   22 1    
    37   45   22 1    
    38   24   23 1    
    39   46   23 1    
    40   47   23 1    
    41   25   24 1    
    42   48   24 1    
    43   49   24 1    
    44   26   25 1    
    45   50   25 1    
    46   51   25 1    
    47   27   26 1    
    48   28   27 1    
    49   52   27 1    
    50   53   27 1    
    51   29   28 1    
    52   54   28 1    
    53   30   29 am   
    54   55   29 1    
    55   31   30 2    
    56   32   30 1    
    57   33   32 ar   
    58   37   32 ar   
    59   34   33 ar   
    60   56   33 1    
    61   35   34 ar   
    62   57   34 1    
    63   36   35 ar   
    64   37   36 ar   
    65   58   36 1    
    66   59   37 1    
@<TRIPOS>SUBSTRUCTURE
     1 I04351      1 GROUP   
@<TRIPOS>SET

