#    Name: 2hf8_GSP_2_INTS_M
#    Modification time : Tue Mar 25 16:19:09 2014

@<TRIPOS>MOLECULE
2hf8_GSP_2_INTS_M
   84     0    15     0     0
SMALL
NO_CHARGES


@<TRIPOS>ATOM
      1 N           3.9955   26.4130  -22.2780 N.am      2 SEC2        0.0000 
      2 N           5.1600   27.3810  -21.8140 N.am     12 SEL2        0.0000 
      3 N           2.8310   25.4450  -22.7420 N.am      7 SEP2        0.0000 
      4 CA          2.7650   25.1320  -20.4515 C.3       5 GLC5        0.0000 
      5 CA          4.0420   26.1830  -19.6550 C.3      15 GLL5        0.0000 
      6 CA          1.4880   24.0810  -21.2480 C.3      10 GLP5        0.0000 
      7 CA          3.7065   26.0460  -21.8365 C.3       5 GLC5        0.0000 
      8 CA          3.3710   25.9090  -24.0180 C.3      10 GLP5        0.0000 
      9 CA          3.0970   27.8550  -19.0945 C.3       5 GLC5        0.0000 
     10 CA          2.1520   29.5270  -18.5340 C.3      10 GLP5        0.0000 
     11 CA          2.5675   25.8880  -18.3625 C.3       5 GLC5        0.0000 
     12 CA          1.0930   25.5930  -17.0700 C.3      10 GLP5        0.0000 
     13 N           8.0645   26.0195  -20.5830 N.am      2 SEC2        0.0000 
     14 N           6.4800   25.6090  -20.5030 N.am     12 SEL2        0.0000 
     15 N           9.6490   26.4300  -20.6630 N.am      7 SEP2        0.0000 
     16 O           6.3885   24.9375  -19.2605 O.2       1 ALC1        0.0000 
     17 O           6.4800   25.6090  -20.5030 O.2      11 ALL1        0.0000 
     18 O           6.2970   24.2660  -18.0180 O.2       6 ALP1        0.0000 
     19 Zn          6.4740   28.7365  -19.6020 Zn        4 ZIC7        0.0000 
     20 Zn          6.0950   27.8450  -19.4390 Zn       14 ZIL7        0.0000 
     21 Zn          6.8530   29.6280  -19.7650 Zn        9 ZIP7        0.0000 
     22 NZ          2.6010   28.7735  -20.7180 N.4       3 LYC4        0.0000 
     23 NZ          3.3050   29.0980  -21.9050 N.4      13 LYL4        0.0000 
     24 NZ          1.8970   28.4490  -19.5310 N.4       8 LYP4        0.0000 
     25 N           2.7555   29.5800  -23.2400 N.am      2 SEC2        0.0000 
     26 N           3.3050   29.0980  -21.9050 N.am     12 SEL2        0.0000 
     27 N           2.2060   30.0620  -24.5750 N.am      7 SEP2        0.0000 
     28 N           3.1345   30.4920  -22.2785 N.am      2 SEC2        0.0000 
     29 N           2.9640   31.8860  -22.6520 N.am      7 SEP2        0.0000 
     30 N           2.6010   28.7735  -20.7180 N.am      2 SEC2        0.0000 
     31 N           1.8970   28.4490  -19.5310 N.am      7 SEP2        0.0000 
     32 Zn          6.2060   29.7730  -20.5775 Zn        4 ZIC7        0.0000 
     33 Zn          5.5590   29.9180  -21.3900 Zn       14 ZIL7        0.0000 
     34 N           5.5115   31.3725  -21.4350 N.am      2 SEC2        0.0000 
     35 N           5.5590   29.9180  -21.3900 N.am     12 SEL2        0.0000 
     36 N           5.4640   32.8270  -21.4800 N.am      7 SEP2        0.0000 
     37 N           6.5870   32.4870  -24.0885 N.am      2 SEC2        0.0000 
     38 N           6.3700   31.0590  -24.4010 N.am     12 SEL2        0.0000 
     39 N           6.8040   33.9150  -23.7760 N.am      7 SEP2        0.0000 
     40 N           7.9620   31.5135  -24.4590 N.am      2 SEC2        0.0000 
     41 N           9.5540   31.9680  -24.5170 N.am      7 SEP2        0.0000 
     42 NZ          8.8435   29.4965  -23.6900 N.4       3 LYC4        0.0000 
     43 NZ          7.5660   28.9770  -23.9180 N.4      13 LYL4        0.0000 
     44 NZ         10.4150   31.2680  -23.7920 N.4       8 LYP4        0.0000 
     45 N           8.8435   29.4965  -23.6900 N.am      2 SEC2        0.0000 
     46 N           7.5660   28.9770  -23.9180 N.am     12 SEL2        0.0000 
     47 N          10.1210   30.0160  -23.4620 N.am      7 SEP2        0.0000 
     48 CA          4.7125   26.8370  -25.1735 C.3       5 GLC5        0.0000 
     49 CA          6.0540   27.7650  -26.3290 C.3      15 GLL5        0.0000 
     50 O           8.6935   27.4925  -30.5750 O.2       1 ALC1        0.0000 
     51 O           8.5240   27.6120  -28.9490 O.2      11 ALL1        0.0000 
     52 O           8.8630   27.3730  -32.2010 O.2       6 ALP1        0.0000 
     53 CA          7.1055   31.7300  -28.8030 C.3       5 GLC5        0.0000 
     54 CA          7.2960   29.6770  -28.8460 C.3      15 GLL5        0.0000 
     55 CA          6.9150   33.7830  -28.7600 C.3      10 GLP5        0.0000 
     56 CA          3.8690   28.6600  -29.2275 C.3       5 GLC5        0.0000 
     57 CA          6.0080   29.2090  -29.4940 C.3      15 GLL5        0.0000 
     58 CA          1.7300   28.1110  -28.9610 C.3      10 GLP5        0.0000 
     59 N           2.1895   32.1300  -28.7470 N.am      2 SEC2        0.0000 
     60 N           3.4830   31.8320  -29.3930 N.am     12 SEL2        0.0000 
     61 N           0.8960   32.4280  -28.1010 N.am      7 SEP2        0.0000 
     62 CA          3.6085   33.6005  -30.1940 C.3       5 GLC5        0.0000 
     63 CA          3.4770   31.5090  -30.7130 C.3      15 GLL5        0.0000 
     64 CA          3.7400   35.6920  -29.6750 C.3      10 GLP5        0.0000 
     65 N           0.3070   32.3635  -31.3315 N.am      2 SEC2        0.0000 
     66 N           1.9140   32.8540  -31.6520 N.am     12 SEL2        0.0000 
     67 N          -1.3000   31.8730  -31.0110 N.am      7 SEP2        0.0000 
     68 N           1.9905   34.2505  -31.5780 N.am      2 SEC2        0.0000 
     69 N           2.0670   35.6470  -31.5040 N.am      7 SEP2        0.0000 
     70 O           1.9970   31.7250  -34.0270 O.2       1 ALC1        0.0000 
     71 O           2.9680   31.4290  -33.0610 O.2      11 ALL1        0.0000 
     72 O           1.0260   32.0210  -34.9930 O.2       6 ALP1        0.0000 
     73 O           2.6540   31.1580  -34.7025 O.2       1 ALC1        0.0000 
     74 O           2.3400   30.8870  -36.3440 O.2       6 ALP1        0.0000 
     75 O           5.1775   29.1255  -35.1595 O.2       1 ALC1        0.0000 
     76 O           4.1330   29.8960  -34.4360 O.2      11 ALL1        0.0000 
     77 O           6.2220   28.3550  -35.8830 O.2       6 ALP1        0.0000 
     78 O           3.2365   30.3915  -35.3900 O.2       1 ALC1        0.0000 
     79 CA          7.4622   26.0874  -27.3750 C.3       5 GLC5        0.0000 
     80 CA          6.4520   27.6720  -27.7990 C.3      15 GLL5        0.0000 
     81 CA          7.9280   24.1030  -27.1640 C.3      10 GLP5        0.0000 
     82 CA          2.2650   30.2972  -30.7157 C.3       5 GLC5        0.0000 
     83 CA          4.4170   30.5040  -30.9160 C.3      15 GLL5        0.0000 
     84 CA          0.5830   29.5880  -30.6170 C.3      10 GLP5        0.0000 
@<TRIPOS>BOND
@<TRIPOS>SUBSTRUCTURE
     1 ALC1       16 GROUP        1 X    ALC  0     ROOT ALC X 1
     2 SEC2        1 GROUP        1 X    SEC  0     **** SEC X 2
     3 LYC4       22 GROUP        1 X    LYC  0     **** LYC X 4
     4 ZIC7       19 GROUP        1 X    ZIC  0     **** ZIC X 5
     5 GLC5        4 GROUP        1 X    GLC  0     **** GLC X 6
     6 ALP1       18 GROUP        1 Y    ALP  0     ROOT ALP Y 8
     7 SEP2        3 GROUP        1 Y    SEP  0     **** SEP Y 9
     8 LYP4       24 GROUP        1 Y    LYP  0     **** LYP Y 11
     9 ZIP7       21 GROUP        1 Y    ZIP  0     **** ZIP Y 12
    10 GLP5        6 GROUP        1 Y    GLP  0     **** GLP Y 13
    11 ALL1       17 GROUP        1 Z    ALL  0     ROOT ALL Z 15
    12 SEL2        2 GROUP        1 Z    SEL  0     **** SEL Z 16
    13 LYL4       23 GROUP        1 Z    LYL  0     **** LYL Z 18
    14 ZIL7       20 GROUP        1 Z    ZIL  0     **** ZIL Z 19
    15 GLL5        5 GROUP        1 Z    GLL  0     **** GLL Z 20
@<TRIPOS>SET

