#    Name: 2hf8_GSP_2_ligand
#    Modification time : Tue Mar 25 16:19:09 2014

@<TRIPOS>MOLECULE
2hf8_GSP_2_ligand
   45    47     1     0     0
SMALL
NO_CHARGES


@<TRIPOS>ATOM
      1 PG          5.4840   26.7750  -20.3540 P.3       1 GSP300      0.0000 
      2 O3B         5.1600   27.3810  -21.8140 O.3       1 GSP300      0.0000 
      3 S1G         4.0420   26.1830  -19.6550 S.2       1 GSP300      0.0000 
      4 O2G         6.4800   25.6090  -20.5030 O.3       1 GSP300      0.0000 
      5 O3G         6.0950   27.8450  -19.4390 O.3       1 GSP300      0.0000 
      6 PB          4.7540   28.9160  -22.1230 P.3       1 GSP300      0.0000 
      7 O1B         3.3050   29.0980  -21.9050 O.co2     1 GSP300      0.0000 
      8 O2B         5.5590   29.9180  -21.3900 O.co2     1 GSP300      0.0000 
      9 PA          6.3180   29.5870  -24.4400 P.3       1 GSP300      0.0000 
     10 O1A         6.3700   31.0590  -24.4010 O.co2     1 GSP300      0.0000 
     11 O2A         7.5660   28.9770  -23.9180 O.co2     1 GSP300      0.0000 
     12 O3A         5.0090   29.0210  -23.7030 O.3       1 GSP300      0.0000 
     13 O5'         6.0620   29.1260  -25.9550 O.3       1 GSP300      0.0000 
     14 C5'         6.0540   27.7650  -26.3290 C.3       1 GSP300      0.0000 
     15 C4'         6.4520   27.6720  -27.7990 C.3       1 GSP300      0.0000 
     16 O4'         5.4490   28.2690  -28.5980 O.3       1 GSP300      0.0000 
     17 C3'         7.7400   28.4250  -28.1080 C.3       1 GSP300      0.0000 
     18 O3'         8.5240   27.6120  -28.9490 O.3       1 GSP300      0.0000 
     19 C2'         7.2960   29.6770  -28.8460 C.3       1 GSP300      0.0000 
     20 O2'         8.2280   30.0850  -29.8190 O.3       1 GSP300      0.0000 
     21 C1'         6.0080   29.2090  -29.4940 C.3       1 GSP300      0.0000 
     22 N9          4.9900   30.2460  -29.7060 N.pl3     1 GSP300      0.0000 
     23 C8          4.4030   31.0610  -28.7660 C.2       1 GSP300      0.0000 
     24 N7          3.4830   31.8320  -29.3930 N.2       1 GSP300      0.0000 
     25 C5          3.4770   31.5090  -30.7130 C.2       1 GSP300      0.0000 
     26 C6          2.7480   31.9720  -31.8050 C.2       1 GSP300      0.0000 
     27 O6          1.9140   32.8540  -31.6520 O.2       1 GSP300      0.0000 
     28 N1          2.9680   31.4290  -33.0610 N.am      1 GSP300      0.0000 
     29 C2          3.9100   30.4260  -33.2340 C.2       1 GSP300      0.0000 
     30 N2          4.1330   29.8960  -34.4360 N.pl3     1 GSP300      0.0000 
     31 N3          4.6280   29.9720  -32.1510 N.2       1 GSP300      0.0000 
     32 C4          4.4170   30.5040  -30.9160 C.2       1 GSP300      0.0000 
     33 H           5.0659   27.3116  -26.2235 H         1 GSP300      0.0000 
     34 H           6.7688   27.1725  -25.7537 H         1 GSP300      0.0000 
     35 H           6.5911   26.6405  -28.0631 H         1 GSP300      0.0000 
     36 H           8.2016   28.6914  -27.2069 H         1 GSP300      0.0000 
     37 H           7.0502   30.4154  -28.1270 H         1 GSP300      0.0000 
     38 H           6.2484   28.7205  -30.4250 H         1 GSP300      0.0000 
     39 H           4.6167   31.0718  -27.8325 H         1 GSP300      0.0000 
     40 H           2.4290   31.7721  -33.8709 H         1 GSP300      0.0000 
     41 H           3.3520   29.8769  -35.0602 H         1 GSP300      0.0000 
     42 H           5.0613   29.5651  -34.6057 H         1 GSP300      0.0000 
     43 H           6.4589   25.1366  -19.6219 H         1 GSP300      0.0000 
     44 H           8.7004   28.1717  -29.7587 H         1 GSP300      0.0000 
     45 H           7.6765   30.4588  -30.5647 H         1 GSP300      0.0000 
@<TRIPOS>BOND
     1    2    1 1    
     2    3    1 2    
     3    4    1 1    
     4    5    1 1    
     5    6    2 1    
     6   43    4 1    
     7    7    6 ar   
     8    8    6 ar   
     9   12    6 1    
    10   10    9 ar   
    11   11    9 ar   
    12   12    9 1    
    13   13    9 1    
    14   14   13 1    
    15   15   14 1    
    16   33   14 1    
    17   34   14 1    
    18   16   15 1    
    19   17   15 1    
    20   35   15 1    
    21   21   16 1    
    22   18   17 1    
    23   19   17 1    
    24   36   17 1    
    25   44   18 1    
    26   20   19 1    
    27   21   19 1    
    28   37   19 1    
    29   45   20 1    
    30   22   21 1    
    31   38   21 1    
    32   23   22 1    
    33   32   22 1    
    34   24   23 2    
    35   39   23 1    
    36   25   24 1    
    37   26   25 1    
    38   32   25 2    
    39   27   26 2    
    40   28   26 am   
    41   29   28 1    
    42   40   28 1    
    43   30   29 1    
    44   31   29 2    
    45   41   30 1    
    46   42   30 1    
    47   32   31 1    
@<TRIPOS>SUBSTRUCTURE
     1 GSP300      1 GROUP   
@<TRIPOS>SET

