#    Name: 3f0b_53R_1_INTS_M
#    Modification time : Tue Mar 25 03:00:19 2014

@<TRIPOS>MOLECULE
3f0b_53R_1_INTS_M
   79     0     9     0     0
SMALL
NO_CHARGES


@<TRIPOS>ATOM
      1 CA        -35.0215   -7.8025   41.6020 C.3       3 GLC5        0.0000 
      2 CA        -35.6820   -9.6590   40.8070 C.3       9 GLL5        0.0000 
      3 CA        -34.3610   -5.9460   42.3970 C.3       6 GLP5        0.0000 
      4 CA        -32.4205  -17.2420   38.1075 C.3       3 GLC5        0.0000 
      5 CA        -34.0350  -16.6100   39.2830 C.3       9 GLL5        0.0000 
      6 CA        -30.8060  -17.8740   36.9320 C.3       6 GLP5        0.0000 
      7 CA        -34.9025  -16.5575   40.9910 C.3       3 GLC5        0.0000 
      8 CA        -35.7700  -16.5050   42.6990 C.3       6 GLP5        0.0000 
      9 CA        -35.6540  -17.5900   38.1745 C.3       3 GLC5        0.0000 
     10 CA        -37.2730  -18.5700   37.0660 C.3       6 GLP5        0.0000 
     11 CA        -34.9225  -14.8985   38.4990 C.3       3 GLC5        0.0000 
     12 CA        -35.8100  -13.1870   37.7150 C.3       6 GLP5        0.0000 
     13 CA        -29.7530  -16.4105   41.5810 C.3       3 GLC5        0.0000 
     14 CA        -31.3410  -15.1670   41.3380 C.3       9 GLL5        0.0000 
     15 CA        -28.1650  -17.6540   41.8240 C.3       6 GLP5        0.0000 
     16 CA        -29.2895  -11.8295   40.2365 C.3       3 GLC5        0.0000 
     17 CA        -28.4710  -11.6800   41.8810 C.3       9 GLL5        0.0000 
     18 CA        -30.1080  -11.9790   38.5920 C.3       6 GLP5        0.0000 
     19 CA        -30.1525   -9.9760   44.8260 C.3       3 GLC5        0.0000 
     20 CA        -29.6830   -9.3680   43.0900 C.3       9 GLL5        0.0000 
     21 CA        -30.6220  -10.5840   46.5620 C.3       6 GLP5        0.0000 
     22 CA        -31.3730   -8.5520   43.4080 C.3       3 GLC5        0.0000 
     23 CA        -33.0630   -7.7360   43.7260 C.3       6 GLP5        0.0000 
     24 N         -28.4520   -6.9645   42.4795 N.am      2 SEC2        0.0000 
     25 N         -28.0360   -8.0410   41.7880 N.am      8 SEL2        0.0000 
     26 N         -28.8680   -5.8880   43.1710 N.am      5 SEP2        0.0000 
     27 CA        -26.7195   -8.3360   38.7590 C.3       3 GLC5        0.0000 
     28 CA        -27.0080   -7.9310   40.9280 C.3       9 GLL5        0.0000 
     29 CA        -26.4310   -8.7410   36.5900 C.3       6 GLP5        0.0000 
     30 CA        -25.0985   -8.5860   40.7040 C.3       3 GLC5        0.0000 
     31 CA        -23.1890   -9.2410   40.4800 C.3       6 GLP5        0.0000 
     32 CA        -26.1275   -7.3800   42.4955 C.3       3 GLC5        0.0000 
     33 CA        -25.2470   -6.8290   44.0630 C.3       6 GLP5        0.0000 
     34 CA        -28.4325   -7.7310   40.0160 C.3       3 GLC5        0.0000 
     35 CA        -29.8570   -7.5310   39.1040 C.3       6 GLP5        0.0000 
     36 O         -27.1755   -5.6520   41.1925 O.2       1 ALC1        0.0000 
     37 O         -26.5270   -6.7330   40.6100 O.2       7 ALL1        0.0000 
     38 O         -27.8240   -4.5710   41.7750 O.2       4 ALP1        0.0000 
     39 O         -25.7400   -5.8500   39.7345 O.2       1 ALC1        0.0000 
     40 O         -24.9530   -4.9670   38.8590 O.2       4 ALP1        0.0000 
     41 CA        -26.6585   -9.5010   38.6200 C.3       3 GLC5        0.0000 
     42 CA        -26.8860  -10.2610   40.6500 C.3       9 GLL5        0.0000 
     43 CA        -25.0375   -9.7510   40.5650 C.3       3 GLC5        0.0000 
     44 CA        -28.3715   -8.8960   39.8770 C.3       3 GLC5        0.0000 
     45 O         -25.2635  -11.1440   39.3105 O.2       1 ALC1        0.0000 
     46 O         -26.3020  -11.3190   40.0880 O.2       7 ALL1        0.0000 
     47 O         -24.2250  -10.9690   38.5330 O.2       4 ALP1        0.0000 
     48 O         -26.1185  -12.8455   39.9630 O.2       1 ALC1        0.0000 
     49 O         -25.9350  -14.3720   39.8380 O.2       4 ALP1        0.0000 
     50 CA        -33.4775   -8.8923   42.1467 C.3       3 GLC5        0.0000 
     51 CA        -33.4610  -10.5950   40.6180 C.3       9 GLL5        0.0000 
     52 CA        -32.5995   -9.4718   39.1038 C.3       3 GLC5        0.0000 
     53 CA        -34.3230   -9.5020   40.5170 C.3       9 GLL5        0.0000 
     54 CA        -31.3070   -8.8950   37.6400 C.3       6 GLP5        0.0000 
     55 CA        -34.2130  -11.2063   39.1073 C.3       3 GLC5        0.0000 
     56 CA        -34.5340  -12.3640   37.6470 C.3       6 GLP5        0.0000 
     57 CA        -36.3201  -11.7167   39.6036 C.3       3 GLC5        0.0000 
     58 CA        -37.0210  -12.2930   38.0540 C.3       6 GLP5        0.0000 
     59 CA        -32.9830  -14.5880   42.5798 C.3       3 GLC5        0.0000 
     60 CA        -33.0840  -12.9570   41.1070 C.3       9 GLL5        0.0000 
     61 CA        -33.4630  -16.2630   43.6690 C.3       6 GLP5        0.0000 
     62 CA        -33.1993  -15.4968   42.0930 C.3       3 GLC5        0.0000 
     63 CA        -32.5030  -15.2840   40.5730 C.3       9 GLL5        0.0000 
     64 CA        -33.9877  -12.8272   39.2034 C.3       3 GLC5        0.0000 
     65 CA        -33.3680  -14.1770   40.4610 C.3       9 GLL5        0.0000 
     66 CA        -32.3305  -15.4128   42.6658 C.3       3 GLC5        0.0000 
     67 CA        -28.7972  -16.0085   42.4232 C.3       3 GLC5        0.0000 
     68 CA        -29.8220  -13.7380   42.8720 C.3       9 GLL5        0.0000 
     69 CA        -29.8410  -13.2668   40.6688 C.3       3 GLC5        0.0000 
     70 CA        -30.2670  -13.3270   38.7680 C.3       6 GLP5        0.0000 
     71 CA        -27.5352  -14.4800   42.8377 C.3       3 GLC5        0.0000 
     72 CA        -25.6410  -14.5970   42.6530 C.3       6 GLP5        0.0000 
     73 CA        -27.1427  -12.7003   42.4525 C.3       3 GLC5        0.0000 
     74 CA        -29.0080  -12.6750   42.2670 C.3       9 GLL5        0.0000 
     75 CA        -25.5460  -13.2230   42.8310 C.3       6 GLP5        0.0000 
     76 CA        -28.6000  -11.9561   44.2976 C.3       3 GLC5        0.0000 
     77 CA        -28.2570  -11.4690   46.3700 C.3       6 GLP5        0.0000 
     78 CA        -29.4075   -8.5644   40.7797 C.3       3 GLC5        0.0000 
     79 CA        -27.9480  -10.3990   41.5340 C.3       9 GLL5        0.0000 
@<TRIPOS>BOND
@<TRIPOS>SUBSTRUCTURE
     1 ALC1       36 GROUP        1 X    ALC  0     ROOT ALC X 1
     2 SEC2       24 GROUP        1 X    SEC  0     **** SEC X 2
     3 GLC5        1 GROUP        1 X    GLC  0     **** GLC X 6
     4 ALP1       38 GROUP        1 Y    ALP  0     ROOT ALP Y 8
     5 SEP2       26 GROUP        1 Y    SEP  0     **** SEP Y 9
     6 GLP5        3 GROUP        1 Y    GLP  0     **** GLP Y 13
     7 ALL1       37 GROUP        1 Z    ALL  0     ROOT ALL Z 15
     8 SEL2       25 GROUP        1 Z    SEL  0     **** SEL Z 16
     9 GLL5        2 GROUP        1 Z    GLL  0     **** GLL Z 20
@<TRIPOS>SET

