#    Name: 3f0b_53R_1_ligand
#    Modification time : Tue Mar 25 03:00:19 2014

@<TRIPOS>MOLECULE
3f0b_53R_1_ligand
   49    51     1     0     0
SMALL
NO_CHARGES


@<TRIPOS>ATOM
      1 C20       -33.4610  -10.5950   40.6180 C.ar      1 53R158      0.0000 
      2 C21       -34.3230   -9.5020   40.5170 C.ar      1 53R158      0.0000 
      3 C22       -35.6820   -9.6590   40.8070 C.ar      1 53R158      0.0000 
      4 C23       -36.1750  -10.9070   41.2000 C.ar      1 53R158      0.0000 
      5 C24       -35.3100  -11.9980   41.3030 C.ar      1 53R158      0.0000 
      6 C25       -33.9460  -11.8510   41.0100 C.ar      1 53R158      0.0000 
      7 C18       -33.0840  -12.9570   41.1070 C.ar      1 53R158      0.0000 
      8 C19       -31.9220  -12.8690   41.8740 C.ar      1 53R158      0.0000 
      9 C17       -33.3680  -14.1770   40.4610 C.ar      1 53R158      0.0000 
     10 C16       -32.5030  -15.2840   40.5730 C.ar      1 53R158      0.0000 
     11 O17       -32.7530  -16.4800   39.9550 O.3       1 53R158      0.0000 
     12 C2        -34.0350  -16.6100   39.2830 C.3       1 53R158      0.0000 
     13 C15       -31.3410  -15.1670   41.3380 C.ar      1 53R158      0.0000 
     14 C14       -31.0550  -13.9580   41.9870 C.ar      1 53R158      0.0000 
     15 C12       -29.8220  -13.7380   42.8720 C.3       1 53R158      0.0000 
     16 C13       -29.0370  -14.9880   43.1730 C.3       1 53R158      0.0000 
     17 C11       -29.0080  -12.6750   42.2670 C.1       1 53R158      0.0000 
     18 C10       -28.4710  -11.6800   41.8810 C.1       1 53R158      0.0000 
     19 C6        -27.9480  -10.3990   41.5340 C.ar      1 53R158      0.0000 
     20 C5        -28.5180   -9.2560   42.1080 C.ar      1 53R158      0.0000 
     21 C8        -29.6830   -9.3680   43.0900 C.3       1 53R158      0.0000 
     22 N4        -28.0360   -8.0410   41.7880 N.ar      1 53R158      0.0000 
     23 C3        -27.0080   -7.9310   40.9280 C.ar      1 53R158      0.0000 
     24 N7        -26.5270   -6.7330   40.6100 N.pl3     1 53R158      0.0000 
     25 N2        -26.4610   -9.0200   40.3660 N.ar      1 53R158      0.0000 
     26 C1        -26.8860  -10.2610   40.6500 C.ar      1 53R158      0.0000 
     27 N9        -26.3020  -11.3190   40.0880 N.pl3     1 53R158      0.0000 
     28 H         -32.4608  -10.4813   40.4037 H         1 53R158      0.0000 
     29 H         -33.9622   -8.5863   40.2312 H         1 53R158      0.0000 
     30 H         -36.3181   -8.8573   40.7313 H         1 53R158      0.0000 
     31 H         -37.1724  -11.0200   41.4124 H         1 53R158      0.0000 
     32 H         -35.6714  -12.9148   41.5947 H         1 53R158      0.0000 
     33 H         -31.6997  -11.9882   42.3644 H         1 53R158      0.0000 
     34 H         -34.2261  -14.2614   39.8949 H         1 53R158      0.0000 
     35 H         -30.6990  -15.9593   41.4261 H         1 53R158      0.0000 
     36 H         -30.2146  -13.3401   43.8428 H         1 53R158      0.0000 
     37 H         -26.9585   -5.9517   41.0610 H         1 53R158      0.0000 
     38 H         -25.7772   -6.7213   39.9485 H         1 53R158      0.0000 
     39 H         -25.3374  -11.2127   39.8467 H         1 53R158      0.0000 
     40 H         -26.8810  -12.1239   39.9582 H         1 53R158      0.0000 
     41 H         -34.1453  -15.9294   38.5587 H         1 53R158      0.0000 
     42 H         -34.1426  -17.5093   38.8591 H         1 53R158      0.0000 
     43 H         -34.7999  -16.4909   39.9160 H         1 53R158      0.0000 
     44 H         -28.6938  -15.4208   42.3394 H         1 53R158      0.0000 
     45 H         -28.2444  -14.7983   43.7524 H         1 53R158      0.0000 
     46 H         -29.5922  -15.6694   43.6498 H         1 53R158      0.0000 
     47 H         -29.4393   -9.9085   43.8953 H         1 53R158      0.0000 
     48 H         -29.9799   -8.4711   43.4179 H         1 53R158      0.0000 
     49 H         -30.4794   -9.8060   42.6730 H         1 53R158      0.0000 
@<TRIPOS>BOND
     1    2    1 ar   
     2    6    1 ar   
     3   28    1 1    
     4    3    2 ar   
     5   29    2 1    
     6    4    3 ar   
     7   30    3 1    
     8    5    4 ar   
     9   31    4 1    
    10    6    5 ar   
    11   32    5 1    
    12    7    6 1    
    13    8    7 ar   
    14    9    7 ar   
    15   14    8 ar   
    16   33    8 1    
    17   10    9 ar   
    18   34    9 1    
    19   11   10 1    
    20   13   10 ar   
    21   12   11 1    
    22   41   12 1    
    23   42   12 1    
    24   43   12 1    
    25   14   13 ar   
    26   35   13 1    
    27   15   14 1    
    28   16   15 1    
    29   17   15 1    
    30   36   15 1    
    31   44   16 1    
    32   45   16 1    
    33   46   16 1    
    34   18   17 3    
    35   19   18 1    
    36   20   19 ar   
    37   26   19 ar   
    38   21   20 1    
    39   22   20 ar   
    40   47   21 1    
    41   48   21 1    
    42   49   21 1    
    43   23   22 ar   
    44   24   23 1    
    45   25   23 ar   
    46   37   24 1    
    47   38   24 1    
    48   26   25 ar   
    49   27   26 1    
    50   39   27 1    
    51   40   27 1    
@<TRIPOS>SUBSTRUCTURE
     1 53R158      1 GROUP   
@<TRIPOS>SET

