#    Name: 4IIN_1_CAVITY_N1_ALL.mol2
#    Modification time : Tue Mar 11 05:32:20 2014

@<TRIPOS>MOLECULE
4IIN_1_CAVITY_N1_ALL.mol2
   91     0     5     0     0
SMALL
NO_CHARGES


@<TRIPOS>ATOM
      1 DU         76.9739   29.3223   58.1614 H         5 CUB7        0.0000 
      2 O          78.7764   26.8535   61.4639 O.2       2 ALA2        0.0000 
      3 DU         76.5310   27.4445   59.0434 H         5 CUB7        0.0000 
      4 O          78.3110   30.5217   56.2843 O.2       2 ALA2        0.0000 
      5 CZ         78.9118   29.6988   57.3851 C.ar      3 PHE5        0.0000 
      6 CZ         79.5126   28.8759   58.4859 C.ar      3 PHE5        0.0000 
      7 CA         80.1135   28.0530   59.5868 C.3       4 GLY6        0.0000 
      8 N          77.2672   29.4669   56.0655 N.2       2 ALA2        0.0000 
      9 DU         77.8681   28.6440   57.1663 H         5 CUB7        0.0000 
     10 DU         78.4689   27.8210   58.2671 H         5 CUB7        0.0000 
     11 CA         79.0697   26.9981   59.3679 C.3       4 GLY6        0.0000 
     12 DU         76.8243   27.5891   56.9474 H         5 CUB7        0.0000 
     13 DU         77.4252   26.7662   58.0482 H         5 CUB7        0.0000 
     14 OG         78.0260   25.9433   59.1491 O.2       1 SER1        0.0000 
     15 DU         75.7806   26.5343   56.7286 H         5 CUB7        0.0000 
     16 DU         76.3814   25.7114   57.8294 H         5 CUB7        0.0000 
     17 CA         76.9823   24.8884   58.9302 C.3       4 GLY6        0.0000 
     18 DU         75.3377   24.6565   57.6105 H         5 CUB7        0.0000 
     19 CA         75.9385   23.8336   58.7113 C.3       4 GLY6        0.0000 
     20 CA         74.8948   22.7788   58.4925 C.3       4 GLY6        0.0000 
     21 N          79.8060   29.0205   56.3900 N.2       2 ALA2        0.0000 
     22 N          80.4068   28.1976   57.4908 N.2       2 ALA2        0.0000 
     23 CA         81.0077   27.3747   58.5916 C.3       4 GLY6        0.0000 
     24 CA         78.1614   28.7886   55.0703 C.3       4 GLY6        0.0000 
     25 DU         78.7623   27.9656   56.1711 H         5 CUB7        0.0000 
     26 DU         79.3631   27.1427   57.2720 H         5 CUB7        0.0000 
     27 OG         79.9639   26.3198   58.3728 O.2       1 SER1        0.0000 
     28 CA         77.1177   27.7337   54.8515 C.3       4 GLY6        0.0000 
     29 DU         77.7185   26.9108   55.9523 H         5 CUB7        0.0000 
     30 OG         78.3194   26.0879   57.0531 O.2       1 SER1        0.0000 
     31 CA         75.4731   27.5018   53.5318 C.3       4 GLY6        0.0000 
     32 CA         76.0739   26.6789   54.6326 C.3       4 GLY6        0.0000 
     33 DU         76.6748   25.8559   55.7334 H         5 CUB7        0.0000 
     34 OG         77.2756   25.0330   56.8342 O.2       1 SER1        0.0000 
     35 O          74.4293   26.4469   53.3129 O.2       2 ALA2        0.0000 
     36 DU         75.0302   25.6240   54.4138 H         5 CUB7        0.0000 
     37 DU         75.6310   24.8011   55.5146 H         5 CUB7        0.0000 
     38 DU         76.2319   23.9782   56.6154 H         5 CUB7        0.0000 
     39 OG         76.8327   23.1553   57.7162 O.2       1 SER1        0.0000 
     40 DU         73.9864   24.5692   54.1949 H         5 CUB7        0.0000 
     41 DU         74.5873   23.7463   55.2957 H         5 CUB7        0.0000 
     42 N          75.1881   22.9233   56.3965 N.2       2 ALA2        0.0000 
     43 N          75.7890   22.1004   57.4974 N.2       2 ALA2        0.0000 
     44 N          72.3418   24.3372   52.8752 N.2       2 ALA2        0.0000 
     45 N          77.4168   31.2000   57.2794 N.2       2 ALA2        0.0000 
     46 CZ         78.0176   30.3771   58.3803 C.ar      3 PHE5        0.0000 
     47 CZ         78.6185   29.5542   59.4811 C.ar      3 PHE5        0.0000 
     48 CZ         79.2193   28.7313   60.5819 C.ar      3 PHE5        0.0000 
     49 CA         79.3574   23.8210   52.7480 C.3       4 GLY6        0.0000 
     50 N          79.9582   22.9981   53.8488 N.2       2 ALA2        0.0000 
     51 CA         78.3136   22.7661   52.5292 C.3       4 GLY6        0.0000 
     52 CA         78.9144   21.9432   53.6300 C.3       4 GLY6        0.0000 
     53 N          81.3010   27.5193   56.4957 N.2       2 ALA2        0.0000 
     54 CA         79.0556   28.1102   54.0752 C.3       4 GLY6        0.0000 
     55 N          79.6564   27.2873   55.1760 N.2       2 ALA2        0.0000 
     56 OG         80.2573   26.4644   56.2768 O.2       1 SER1        0.0000 
     57 OG         80.8581   25.6415   57.3776 O.2       1 SER1        0.0000 
     58 CA         78.6127   26.2325   54.9571 C.3       4 GLY6        0.0000 
     59 OG         79.2135   25.4096   56.0580 O.2       1 SER1        0.0000 
     60 CA         77.5690   25.1776   54.7383 C.3       4 GLY6        0.0000 
     61 OG         78.1698   24.3547   55.8391 O.2       1 SER1        0.0000 
     62 CA         75.3235   25.7686   52.3178 C.3       4 GLY6        0.0000 
     63 CA         75.9244   24.9457   53.4186 C.3       4 GLY6        0.0000 
     64 DU         76.5252   24.1228   54.5194 H         5 CUB7        0.0000 
     65 OG         77.1261   23.2999   55.6203 O.2       1 SER1        0.0000 
     66 OG         77.7269   22.4770   56.7211 O.2       1 SER1        0.0000 
     67 O          74.2798   24.7138   52.0989 O.2       2 ALA2        0.0000 
     68 DU         74.8806   23.8908   53.1998 H         5 CUB7        0.0000 
     69 DU         75.4815   23.0679   54.3006 H         5 CUB7        0.0000 
     70 N          76.0823   22.2450   55.4014 N.2       2 ALA2        0.0000 
     71 CA         76.6832   21.4221   56.5022 C.3       4 GLY6        0.0000 
     72 N          73.2360   23.6589   51.8801 N.2       2 ALA2        0.0000 
     73 O          73.8369   22.8360   52.9809 O.2       2 ALA2        0.0000 
     74 N          74.4377   22.0131   54.0817 N.2       2 ALA2        0.0000 
     75 N          75.0386   21.1902   55.1825 N.2       2 ALA2        0.0000 
     76 CA         80.5506   26.6090   54.1809 C.3       4 GLY6        0.0000 
     77 CA         79.5069   25.5542   53.9620 C.3       4 GLY6        0.0000 
     78 OG         80.1077   24.7312   55.0628 O.2       1 SER1        0.0000 
     79 CA         78.4632   24.4993   53.7432 C.3       4 GLY6        0.0000 
     80 OG         79.0640   23.6764   54.8440 O.2       1 SER1        0.0000 
     81 CA         76.8186   24.2674   52.4235 C.3       4 GLY6        0.0000 
     82 CA         77.4194   23.4445   53.5243 C.3       4 GLY6        0.0000 
     83 OG         78.0203   22.6216   54.6251 O.2       1 SER1        0.0000 
     84 OG         78.6211   21.7986   55.7259 O.2       1 SER1        0.0000 
     85 CA         75.1740   24.0354   51.1038 C.3       4 GLY6        0.0000 
     86 N          75.7748   23.2125   52.2046 N.2       2 ALA2        0.0000 
     87 N          76.3757   22.3896   53.3054 N.2       2 ALA2        0.0000 
     88 N          76.9765   21.5667   54.4063 N.2       2 ALA2        0.0000 
     89 CA         77.5774   20.7438   55.5071 C.3       4 GLY6        0.0000 
     90 O          74.1302   22.9806   50.8849 O.2       2 ALA2        0.0000 
     91 O          74.7311   22.1577   51.9858 O.2       2 ALA2        0.0000 
@<TRIPOS>BOND
@<TRIPOS>SUBSTRUCTURE
     1 SER1       14 GROUP   
     2 ALA2        2 GROUP   
     3 PHE5        5 GROUP   
     4 GLY6        7 GROUP   
     5 CUB7        1 GROUP   
@<TRIPOS>SET

