#    Name: 4iin_NAD_1_INTS_M
#    Modification time : Tue Mar 25 04:00:51 2014

@<TRIPOS>MOLECULE
4iin_NAD_1_INTS_M
   74     0     9     0     0
SMALL
NO_CHARGES


@<TRIPOS>ATOM
      1 CA         71.6805   19.5985   51.6570 C.3       3 GLC5        0.0000 
      2 CA         71.8810   21.2320   53.1070 C.3       9 GLL5        0.0000 
      3 CA         71.4800   17.9650   50.2070 C.3       6 GLP5        0.0000 
      4 CA         71.2090   18.5205   51.7990 C.3       3 GLC5        0.0000 
      5 CA         70.9380   19.0760   53.3910 C.3       9 GLL5        0.0000 
      6 CA         72.8895   18.0775   53.1125 C.3       3 GLC5        0.0000 
      7 CA         74.8410   17.0790   52.8340 C.3       6 GLP5        0.0000 
      8 CA         72.3380   12.8580   53.3580 C.3       3 GLC5        0.0000 
      9 CA         71.2330   14.1780   54.5910 C.3       9 GLL5        0.0000 
     10 CA         73.4430   11.5380   52.1250 C.3       6 GLP5        0.0000 
     11 O          70.9080   11.9770   55.7470 O.2       1 ALC1        0.0000 
     12 O          71.5920   13.3070   55.5590 O.2       7 ALL1        0.0000 
     13 O          70.2240   10.6470   55.9350 O.2       4 ALP1        0.0000 
     14 N          71.0195   12.2015   53.1445 N.am      2 SEC2        0.0000 
     15 N          70.7420   13.7320   53.4010 N.am      8 SEL2        0.0000 
     16 N          71.2970   10.6710   52.8880 N.am      5 SEP2        0.0000 
     17 CA         70.9355   16.2820   51.3240 C.3       3 GLC5        0.0000 
     18 CA         70.3910   14.5990   52.4410 C.3       9 GLL5        0.0000 
     19 CA         68.8070   14.3835   53.2525 C.3       3 GLC5        0.0000 
     20 CA         67.2230   14.1680   54.0640 C.3       6 GLP5        0.0000 
     21 CA         71.9170   13.0685   52.2830 C.3       3 GLC5        0.0000 
     22 CA         72.3535   15.1325   52.6360 C.3       3 GLC5        0.0000 
     23 CA         74.3160   15.6660   52.8310 C.3       6 GLP5        0.0000 
     24 CA         71.2245   17.2525   51.9655 C.3       3 GLC5        0.0000 
     25 CA         70.9690   16.5400   53.7240 C.3       9 GLL5        0.0000 
     26 N          74.3650   26.6530   51.2850 N.am      2 SEC2        0.0000 
     27 N          74.7660   26.8490   52.9360 N.am      8 SEL2        0.0000 
     28 N          73.9640   26.4570   49.6340 N.am      5 SEP2        0.0000 
     29 N          73.8725   25.5775   50.6905 N.am      2 SEC2        0.0000 
     30 N          73.7810   24.6980   51.7470 N.am      8 SEL2        0.0000 
     31 CA         76.2515   24.5600   50.9835 C.3       3 GLC5        0.0000 
     32 CA         76.1630   23.3750   52.3730 C.3       9 GLL5        0.0000 
     33 CA         76.3400   25.7450   49.5940 C.3       6 GLP5        0.0000 
     34 CA         77.6465   24.7070   52.0505 C.3       3 GLC5        0.0000 
     35 CA         77.4990   22.6950   52.6440 C.3       9 GLL5        0.0000 
     36 CA         77.7940   26.7190   51.4570 C.3       6 GLP5        0.0000 
     37 CA         79.1175   22.4395   51.7055 C.3       3 GLC5        0.0000 
     38 CA         80.7360   22.1840   50.7670 C.3       6 GLP5        0.0000 
     39 N          79.2430   19.9655   54.7535 N.am      2 SEC2        0.0000 
     40 N          78.1940   20.7090   53.8460 N.am      8 SEL2        0.0000 
     41 N          80.2920   19.2220   55.6610 N.am      5 SEP2        0.0000 
     42 O          77.2895   20.0135   53.0935 O.2       1 ALC1        0.0000 
     43 O          78.1940   20.7090   53.8460 O.2       7 ALL1        0.0000 
     44 O          76.3850   19.3180   52.3410 O.2       4 ALP1        0.0000 
     45 N          79.1935   22.7080   57.0715 N.am      2 SEC2        0.0000 
     46 N          78.4600   22.3660   56.1720 N.am      8 SEL2        0.0000 
     47 N          79.9270   23.0500   57.9710 N.am      5 SEP2        0.0000 
     48 CA         78.4720   25.1445   52.7310 C.3       3 GLC5        0.0000 
     49 CA         79.1500   23.5700   54.0050 C.3       9 GLL5        0.0000 
     50 CA         79.9430   22.8770   52.3860 C.3       3 GLC5        0.0000 
     51 CA         79.6825   28.7190   53.7080 C.3       3 GLC5        0.0000 
     52 CA         79.1770   27.1280   55.1660 C.3       9 GLL5        0.0000 
     53 CA         80.1880   30.3100   52.2500 C.3       6 GLP5        0.0000 
     54 N          79.2680   30.7070   55.1760 N.am      2 SEC2        0.0000 
     55 N          78.7740   29.3140   55.9530 N.am      8 SEL2        0.0000 
     56 N          79.7620   32.1000   54.3990 N.am      5 SEP2        0.0000 
     57 O          75.6820   29.3250   54.8760 O.2       1 ALC1        0.0000 
     58 O          76.9280   28.2420   55.0610 O.2       7 ALL1        0.0000 
     59 O          74.4360   30.4080   54.6910 O.2       4 ALP1        0.0000 
     60 CA         81.8460   25.4105   53.1740 C.3       3 GLC5        0.0000 
     61 CA         80.9220   24.9660   54.8690 C.3       9 GLL5        0.0000 
     62 CA         82.7700   25.8550   51.4790 C.3       6 GLP5        0.0000 
     63 CA         69.4720   15.2801   54.7466 C.3       3 GLC5        0.0000 
     64 CA         71.3730   15.6470   54.8220 C.3       9 GLL5        0.0000 
     65 CA         67.8080   14.8340   55.2780 C.3       6 GLP5        0.0000 
     66 CA         72.7260   15.6961   53.5231 C.3       3 GLC5        0.0000 
     67 CA         78.3803   26.6157   53.1867 C.3       3 GLC5        0.0000 
     68 CA         78.7560   25.8970   54.6670 C.3       9 GLL5        0.0000 
     69 CA         81.9055   26.9683   53.7612 C.3       3 GLC5        0.0000 
     70 CA         80.5280   27.2370   55.5350 C.3       9 GLL5        0.0000 
     71 CA         82.8440   27.2390   52.0590 C.3       6 GLP5        0.0000 
     72 CA         82.3800   24.6770   56.0303 C.3       3 GLC5        0.0000 
     73 CA         81.4060   26.1580   55.3920 C.3       9 GLL5        0.0000 
     74 CA         83.5960   23.7920   56.9300 C.3       6 GLP5        0.0000 
@<TRIPOS>BOND
@<TRIPOS>SUBSTRUCTURE
     1 ALC1       11 GROUP        1 X    ALC  0     ROOT ALC X 1
     2 SEC2       14 GROUP        1 X    SEC  0     **** SEC X 2
     3 GLC5        1 GROUP        1 X    GLC  0     **** GLC X 6
     4 ALP1       13 GROUP        1 Y    ALP  0     ROOT ALP Y 8
     5 SEP2       16 GROUP        1 Y    SEP  0     **** SEP Y 9
     6 GLP5        3 GROUP        1 Y    GLP  0     **** GLP Y 13
     7 ALL1       12 GROUP        1 Z    ALL  0     ROOT ALL Z 15
     8 SEL2       15 GROUP        1 Z    SEL  0     **** SEL Z 16
     9 GLL5        2 GROUP        1 Z    GLL  0     **** GLL Z 20
@<TRIPOS>SET

