#    Name: 4iin_NAD_1_ligand
#    Modification time : Tue Mar 25 04:00:51 2014

@<TRIPOS>MOLECULE
4iin_NAD_1_ligand
   70    74     1     0     0
SMALL
NO_CHARGES


@<TRIPOS>ATOM
      1 PA         72.0540   24.5800   54.3670 P.3       1 NAD301      0.0000 
      2 O1A        71.4880   25.3770   55.5200 O.co2     1 NAD301      0.0000 
      3 O2A        71.3370   24.6740   53.0370 O.co2     1 NAD301      0.0000 
      4 O5B        72.2090   23.0200   54.8050 O.3       1 NAD301      0.0000 
      5 C5B        72.8630   22.0090   54.0100 C.3       1 NAD301      0.0000 
      6 C4B        71.8810   21.2320   53.1070 C.3       1 NAD301      0.0000 
      7 O4B        72.1650   19.8200   53.1880 O.3       1 NAD301      0.0000 
      8 C3B        70.3810   21.4210   53.4400 C.3       1 NAD301      0.0000 
      9 O3B        69.6330   21.8870   52.2840 O.3       1 NAD301      0.0000 
     10 C2B        69.9270   20.0620   53.9870 C.3       1 NAD301      0.0000 
     11 O2B        68.5820   19.7370   53.6050 O.3       1 NAD301      0.0000 
     12 C1B        70.9380   19.0760   53.3910 C.3       1 NAD301      0.0000 
     13 N9A        71.1760   17.8030   54.1650 N.pl3     1 NAD301      0.0000 
     14 C8A        71.6790   17.7320   55.4190 C.2       1 NAD301      0.0000 
     15 N7A        71.8060   16.4450   55.8220 N.2       1 NAD301      0.0000 
     16 C5A        71.3730   15.6470   54.8220 C.ar      1 NAD301      0.0000 
     17 C6A        71.2330   14.1780   54.5910 C.ar      1 NAD301      0.0000 
     18 N6A        71.5920   13.3070   55.5590 N.pl3     1 NAD301      0.0000 
     19 N1A        70.7420   13.7320   53.4010 N.ar      1 NAD301      0.0000 
     20 C2A        70.3910   14.5990   52.4410 C.ar      1 NAD301      0.0000 
     21 N3A        70.4980   15.9470   52.5900 N.ar      1 NAD301      0.0000 
     22 C4A        70.9690   16.5400   53.7240 C.ar      1 NAD301      0.0000 
     23 O3         73.6180   25.0090   54.2740 O.3       1 NAD301      0.0000 
     24 PN         74.4760   25.3470   52.9450 P.3       1 NAD301      0.0000 
     25 O1N        74.7660   26.8490   52.9360 O.co2     1 NAD301      0.0000 
     26 O2N        73.7810   24.6980   51.7470 O.co2     1 NAD301      0.0000 
     27 O5D        75.8160   24.4700   53.2440 O.3       1 NAD301      0.0000 
     28 C5D        76.1630   23.3750   52.3730 C.3       1 NAD301      0.0000 
     29 C4D        77.4990   22.6950   52.6440 C.3       1 NAD301      0.0000 
     30 O4D        78.5320   23.6680   52.7140 O.3       1 NAD301      0.0000 
     31 C3D        77.4580   21.9300   53.9610 C.3       1 NAD301      0.0000 
     32 O3D        78.1940   20.7090   53.8460 O.3       1 NAD301      0.0000 
     33 C2D        78.0600   22.9460   54.9130 C.3       1 NAD301      0.0000 
     34 O2D        78.4600   22.3660   56.1720 O.3       1 NAD301      0.0000 
     35 C1D        79.1500   23.5700   54.0050 C.3       1 NAD301      0.0000 
     36 N1N        79.6290   24.8660   54.5150 N.pl3     1 NAD301      0.0000 
     37 C2N        78.7560   25.8970   54.6670 C.ar      1 NAD301      0.0000 
     38 C3N        79.1770   27.1280   55.1660 C.ar      1 NAD301      0.0000 
     39 C7N        78.2500   28.3110   55.3890 C.2       1 NAD301      0.0000 
     40 O7N        78.7740   29.3140   55.9530 O.2       1 NAD301      0.0000 
     41 N7N        76.9280   28.2420   55.0610 N.am      1 NAD301      0.0000 
     42 C4N        80.5280   27.2370   55.5350 C.ar      1 NAD301      0.0000 
     43 C5N        81.4060   26.1580   55.3920 C.ar      1 NAD301      0.0000 
     44 C6N        80.9220   24.9660   54.8690 C.ar      1 NAD301      0.0000 
     45 H          73.3795   21.2683   54.6476 H         1 NAD301      0.0000 
     46 H          73.6341   22.4511   53.3529 H         1 NAD301      0.0000 
     47 H          72.0311   21.5660   52.0761 H         1 NAD301      0.0000 
     48 H          70.3406   22.1309   54.2617 H         1 NAD301      0.0000 
     49 H          70.0752   20.0726   55.0473 H         1 NAD301      0.0000 
     50 H          70.5464   18.8031   52.3839 H         1 NAD301      0.0000 
     51 H          71.9205   18.5104   55.9658 H         1 NAD301      0.0000 
     52 H          70.8682   12.7092   55.9036 H         1 NAD301      0.0000 
     53 H          72.5497   13.3373   55.8451 H         1 NAD301      0.0000 
     54 H          70.0126   14.2265   51.5225 H         1 NAD301      0.0000 
     55 H          76.1707   23.7116   51.3017 H         1 NAD301      0.0000 
     56 H          75.3707   22.5798   52.4058 H         1 NAD301      0.0000 
     57 H          77.6864   21.9854   51.8509 H         1 NAD301      0.0000 
     58 H          76.4322   21.7975   54.2143 H         1 NAD301      0.0000 
     59 H          77.2914   23.7224   55.0302 H         1 NAD301      0.0000 
     60 H          79.9611   22.8477   53.9693 H         1 NAD301      0.0000 
     61 H          77.7543   25.7799   54.4109 H         1 NAD301      0.0000 
     62 H          76.3893   29.0676   55.2289 H         1 NAD301      0.0000 
     63 H          76.6137   27.3719   54.6814 H         1 NAD301      0.0000 
     64 H          80.8762   28.1305   55.9182 H         1 NAD301      0.0000 
     65 H          82.3827   26.2492   55.6679 H         1 NAD301      0.0000 
     66 H          81.5721   24.1672   54.7598 H         1 NAD301      0.0000 
     67 H          70.3280   22.1769   51.6259 H         1 NAD301      0.0000 
     68 H          68.4163   20.2616   52.7699 H         1 NAD301      0.0000 
     69 H          77.5954   20.0934   53.3334 H         1 NAD301      0.0000 
     70 H          77.6101   22.2540   56.6869 H         1 NAD301      0.0000 
@<TRIPOS>BOND
     1    2    1 ar   
     2    3    1 ar   
     3    4    1 1    
     4   23    1 1    
     5    5    4 1    
     6    6    5 1    
     7   45    5 1    
     8   46    5 1    
     9    7    6 1    
    10    8    6 1    
    11   47    6 1    
    12   12    7 1    
    13    9    8 1    
    14   10    8 1    
    15   48    8 1    
    16   67    9 1    
    17   11   10 1    
    18   12   10 1    
    19   49   10 1    
    20   68   11 1    
    21   13   12 1    
    22   50   12 1    
    23   14   13 1    
    24   22   13 1    
    25   15   14 2    
    26   51   14 1    
    27   16   15 1    
    28   17   16 ar   
    29   22   16 ar   
    30   18   17 1    
    31   19   17 ar   
    32   52   18 1    
    33   53   18 1    
    34   20   19 ar   
    35   21   20 ar   
    36   54   20 1    
    37   22   21 ar   
    38   24   23 1    
    39   25   24 ar   
    40   26   24 ar   
    41   27   24 1    
    42   28   27 1    
    43   29   28 1    
    44   55   28 1    
    45   56   28 1    
    46   30   29 1    
    47   31   29 1    
    48   57   29 1    
    49   35   30 1    
    50   32   31 1    
    51   33   31 1    
    52   58   31 1    
    53   69   32 1    
    54   34   33 1    
    55   35   33 1    
    56   59   33 1    
    57   70   34 1    
    58   36   35 1    
    59   60   35 1    
    60   37   36 ar   
    61   44   36 ar   
    62   38   37 ar   
    63   61   37 1    
    64   39   38 1    
    65   42   38 ar   
    66   40   39 2    
    67   41   39 am   
    68   62   41 1    
    69   63   41 1    
    70   43   42 ar   
    71   64   42 1    
    72   44   43 ar   
    73   65   43 1    
    74   66   44 1    
@<TRIPOS>SUBSTRUCTURE
     1 NAD301      1 GROUP   
@<TRIPOS>SET

