#    Name: 4lm0_5NI_1_ligand
#    Modification time : Tue Mar 25 11:16:24 2014

@<TRIPOS>MOLECULE
4lm0_5NI_1_ligand
   17    18     1     0     0
SMALL
NO_CHARGES


@<TRIPOS>ATOM
      1 C6          5.4120   11.0670   43.2010 C.ar      1 5NI900      0.0000 
      2 C7          4.7790   12.1680   43.7810 C.ar      1 5NI900      0.0000 
      3 C8          4.1180   13.0390   42.9090 C.ar      1 5NI900      0.0000 
      4 C9          4.0920   12.8230   41.5310 C.ar      1 5NI900      0.0000 
      5 C4          4.7260   11.7240   40.9550 C.ar      1 5NI900      0.0000 
      6 C5          5.3920   10.8450   41.8160 C.ar      1 5NI900      0.0000 
      7 N1          3.4150   14.1730   43.1320 N.pl3     1 5NI900      0.0000 
      8 N2          2.9650   14.6680   41.9760 N.2       1 5NI900      0.0000 
      9 C3          3.3600   13.8630   40.9660 C.2       1 5NI900      0.0000 
     10 N10         6.0180    9.7730   41.2700 N.pl3     1 5NI900      0.0000 
     11 O11         7.2170    9.5740   41.4770 O.2       1 5NI900      0.0000 
     12 O12         5.3960    9.0000   40.5580 O.2       1 5NI900      0.0000 
     13 H           5.9130   10.3910   43.8102 H         1 5NI900      0.0000 
     14 H           4.7967   12.3268   44.7699 H         1 5NI900      0.0000 
     15 H           4.7072   11.5665   39.9605 H         1 5NI900      0.0000 
     16 H           3.2636   14.5656   44.0152 H         1 5NI900      0.0000 
     17 H           3.1842   13.9660   40.0386 H         1 5NI900      0.0000 
@<TRIPOS>BOND
     1    2    1 ar   
     2    6    1 ar   
     3   13    1 1    
     4    3    2 ar   
     5   14    2 1    
     6    4    3 ar   
     7    7    3 1    
     8    5    4 ar   
     9    9    4 1    
    10    6    5 ar   
    11   15    5 1    
    12   10    6 1    
    13    8    7 1    
    14   16    7 1    
    15    9    8 2    
    16   17    9 1    
    17   11   10 2    
    18   12   10 2    
@<TRIPOS>SUBSTRUCTURE
     1 5NI900      1 GROUP   
@<TRIPOS>SET

