#    Name: 3k97_4CD_1_INTS_M
#    Modification time : Mon Mar 24 18:58:48 2014

@<TRIPOS>MOLECULE
3k97_4CD_1_INTS_M
   53     0     9     0     0
SMALL
NO_CHARGES


@<TRIPOS>ATOM
      1 CA         66.0210   79.9570   23.7995 C.3       3 GLC5        0.0000 
      2 CA         67.9820   79.8930   23.8650 C.3       9 GLL5        0.0000 
      3 CA         64.0600   80.0210   23.7340 C.3       6 GLP5        0.0000 
      4 CA         66.9105   73.5220   27.0185 C.3       3 GLC5        0.0000 
      5 CA         67.1970   75.5530   26.7450 C.3       9 GLL5        0.0000 
      6 CA         66.6240   71.4910   27.2920 C.3       6 GLP5        0.0000 
      7 CA         65.8640   81.4040   23.5300 C.3       3 GLC5        0.0000 
      8 CA         67.8230   81.2830   23.2210 C.3       9 GLL5        0.0000 
      9 CA         63.9050   81.5250   23.8390 C.3       6 GLP5        0.0000 
     10 CA         68.3665   78.2060   20.7290 C.3       3 GLC5        0.0000 
     11 CA         67.3770   79.6480   21.5120 C.3       9 GLL5        0.0000 
     12 CA         69.3560   76.7640   19.9460 C.3       6 GLP5        0.0000 
     13 CA         68.1790   79.4255   27.8600 C.3       3 GLC5        0.0000 
     14 CA         69.0280   80.6810   26.6570 C.3       9 GLL5        0.0000 
     15 CA         67.3300   78.1700   29.0630 C.3       6 GLP5        0.0000 
     16 CA         67.5000   82.0600   26.9970 C.3       3 GLC5        0.0000 
     17 CA         65.9720   83.4390   27.3370 C.3       6 GLP5        0.0000 
     18 O          63.6020   76.4775   25.0440 O.2       1 ALC1        0.0000 
     19 O          64.6610   77.0720   24.5790 O.2       7 ALL1        0.0000 
     20 O          62.5430   75.8830   25.5090 O.2       4 ALP1        0.0000 
     21 N          65.9835   75.8500   21.8045 N.am      2 SEC2        0.0000 
     22 N          66.5210   77.0000   21.9840 N.am      8 SEL2        0.0000 
     23 N          65.4460   74.7000   21.6250 N.am      5 SEP2        0.0000 
     24 CA         71.7530   74.9725   25.8595 C.3       3 GLC5        0.0000 
     25 CA         69.9240   75.2350   26.5690 C.3       9 GLL5        0.0000 
     26 CA         73.5820   74.7100   25.1500 C.3       6 GLP5        0.0000 
     27 CA         70.6140   74.0995   27.6510 C.3       3 GLC5        0.0000 
     28 CA         71.3040   72.9640   28.7330 C.3       6 GLP5        0.0000 
     29 CA         70.7100   77.4158   22.3998 C.3       3 GLC5        0.0000 
     30 CA         71.7620   78.8180   23.7990 C.3       9 GLL5        0.0000 
     31 CA         70.3290   75.9020   21.1980 C.3       6 GLP5        0.0000 
     32 CA         73.4292   78.7253   23.1825 C.3       3 GLC5        0.0000 
     33 CA         74.8810   78.4440   21.9210 C.3       6 GLP5        0.0000 
     34 CA         68.4420   75.6088   23.0542 C.3       3 GLC5        0.0000 
     35 CA         68.3240   76.4470   24.7470 C.3       9 GLL5        0.0000 
     36 CA         69.1880   74.5400   21.6150 C.3       6 GLP5        0.0000 
     37 CA         67.0605   74.6525   24.4348 C.3       3 GLC5        0.0000 
     38 CA         65.7650   73.1960   23.4970 C.3       6 GLP5        0.0000 
     39 CA         66.1685   74.4865   24.9958 C.3       3 GLC5        0.0000 
     40 CA         64.4892   77.3727   26.6785 C.3       3 GLC5        0.0000 
     41 CA         65.9470   76.0010   26.2440 C.3       9 GLL5        0.0000 
     42 CA         63.0620   78.4080   27.7380 C.3       6 GLP5        0.0000 
     43 CA         65.2685   78.4060   24.1755 C.3       3 GLC5        0.0000 
     44 CA         65.8860   76.6740   24.9940 C.3       9 GLL5        0.0000 
     45 CA         65.6215   75.4170   23.6590 C.3       3 GLC5        0.0000 
     46 CA         64.7660   74.0430   22.7010 C.3       6 GLP5        0.0000 
     47 CA         67.3473   82.9447   22.0025 C.3       3 GLC5        0.0000 
     48 CA         66.8110   84.7250   21.5360 C.3       6 GLP5        0.0000 
     49 CA         65.8603   80.1840   22.6743 C.3       3 GLC5        0.0000 
     50 CA         67.9440   81.0460   21.7170 C.3       9 GLL5        0.0000 
     51 CA         66.2477   80.9010   20.5667 C.3       3 GLC5        0.0000 
     52 CA         64.8350   81.4550   19.5190 C.3       6 GLP5        0.0000 
     53 CA         67.0999   77.0007   27.6854 C.3       3 GLC5        0.0000 
@<TRIPOS>BOND
@<TRIPOS>SUBSTRUCTURE
     1 ALC1       18 GROUP        1 X    ALC  0     ROOT ALC X 1
     2 SEC2       21 GROUP        1 X    SEC  0     **** SEC X 2
     3 GLC5        1 GROUP        1 X    GLC  0     **** GLC X 6
     4 ALP1       20 GROUP        1 Y    ALP  0     ROOT ALP Y 8
     5 SEP2       23 GROUP        1 Y    SEP  0     **** SEP Y 9
     6 GLP5        3 GROUP        1 Y    GLP  0     **** GLP Y 13
     7 ALL1       19 GROUP        1 Z    ALL  0     ROOT ALL Z 15
     8 SEL2       22 GROUP        1 Z    SEL  0     **** SEL Z 16
     9 GLL5        2 GROUP        1 Z    GLL  0     **** GLL Z 20
@<TRIPOS>SET

