#    Name: 3k97_4CD_1_ligand
#    Modification time : Mon Mar 24 18:58:48 2014

@<TRIPOS>MOLECULE
3k97_4CD_1_ligand
   41    43     1     0     0
SMALL
NO_CHARGES


@<TRIPOS>ATOM
      1 N1         67.4650   78.9670   22.8120 N.am      1 4CD901      0.0000 
      2 C4         67.9820   79.8930   23.8650 C.3       1 4CD901      0.0000 
      3 C5         69.4610   79.6540   24.3000 C.ar      1 4CD901      0.0000 
      4 C6         70.4200   79.0410   23.4040 C.ar      1 4CD901      0.0000 
      5 C7         71.7620   78.8180   23.7990 C.ar      1 4CD901      0.0000 
      6 C8         72.1930   79.1950   25.0890 C.ar      1 4CD901      0.0000 
      7 C10        69.9230   80.0350   25.6240 C.ar      1 4CD901      0.0000 
      8 C13        68.3240   76.4470   24.7470 C.ar      1 4CD901      0.0000 
      9 C15        67.1970   75.5530   26.7450 C.ar      1 4CD901      0.0000 
     10 C17        65.8860   76.6740   24.9940 C.ar      1 4CD901      0.0000 
     11 C1         67.8230   81.2830   23.2210 C.3       1 4CD901      0.0000 
     12 C2         67.9440   81.0460   21.7170 C.3       1 4CD901      0.0000 
     13 C3         67.3770   79.6480   21.5120 C.3       1 4CD901      0.0000 
     14 C9         71.2850   79.7960   25.9920 C.ar      1 4CD901      0.0000 
     15 C11        69.0280   80.6810   26.6570 C.3       1 4CD901      0.0000 
     16 C12        67.0680   76.9080   24.2400 C.ar      1 4CD901      0.0000 
     17 C14        68.3880   75.7710   25.9980 C.ar      1 4CD901      0.0000 
     18 C16        65.9470   76.0010   26.2440 C.ar      1 4CD901      0.0000 
     19 O1         64.6610   77.0720   24.5790 O.3       1 4CD901      0.0000 
     20 O2         67.2480   74.9130   27.9510 O.3       1 4CD901      0.0000 
     21 C18        67.0050   77.6310   22.9250 C.2       1 4CD901      0.0000 
     22 O3         66.5210   77.0000   21.9840 O.2       1 4CD901      0.0000 
     23 CL1        69.9240   75.2350   26.5690 Cl        1 4CD901      0.0000 
     24 H          67.3399   79.8658   24.7220 H         1 4CD901      0.0000 
     25 H          70.1076   78.7676   22.4672 H         1 4CD901      0.0000 
     26 H          72.4174   78.3833   23.1472 H         1 4CD901      0.0000 
     27 H          73.1610   79.0344   25.3721 H         1 4CD901      0.0000 
     28 H          69.1734   76.6047   24.2085 H         1 4CD901      0.0000 
     29 H          68.6102   81.9186   23.5526 H         1 4CD901      0.0000 
     30 H          66.8585   81.6711   23.4507 H         1 4CD901      0.0000 
     31 H          68.9674   81.0669   21.4320 H         1 4CD901      0.0000 
     32 H          67.3527   81.7568   21.1933 H         1 4CD901      0.0000 
     33 H          66.3519   79.7316   21.1884 H         1 4CD901      0.0000 
     34 H          67.9677   79.1380   20.7680 H         1 4CD901      0.0000 
     35 H          71.6018   80.0680   26.9293 H         1 4CD901      0.0000 
     36 H          65.0960   75.8410   26.7781 H         1 4CD901      0.0000 
     37 H          69.5182   80.8681   27.5083 H         1 4CD901      0.0000 
     38 H          68.6574   81.5521   26.3347 H         1 4CD901      0.0000 
     39 H          68.2487   80.0990   26.8893 H         1 4CD901      0.0000 
     40 H          64.0190   76.4685   25.0518 H         1 4CD901      0.0000 
     41 H          67.7299   74.0559   27.7688 H         1 4CD901      0.0000 
@<TRIPOS>BOND
     1    2    1 1    
     2   13    1 1    
     3   21    1 am   
     4    3    2 1    
     5   11    2 1    
     6   24    2 1    
     7    4    3 ar   
     8    7    3 ar   
     9    5    4 ar   
    10   25    4 1    
    11    6    5 ar   
    12   26    5 1    
    13   14    6 ar   
    14   27    6 1    
    15   14    7 ar   
    16   15    7 1    
    17   16    8 ar   
    18   17    8 ar   
    19   28    8 1    
    20   17    9 ar   
    21   18    9 ar   
    22   20    9 1    
    23   16   10 ar   
    24   18   10 ar   
    25   19   10 1    
    26   12   11 1    
    27   29   11 1    
    28   30   11 1    
    29   13   12 1    
    30   31   12 1    
    31   32   12 1    
    32   33   13 1    
    33   34   13 1    
    34   35   14 1    
    35   37   15 1    
    36   38   15 1    
    37   39   15 1    
    38   21   16 1    
    39   23   17 1    
    40   36   18 1    
    41   40   19 1    
    42   41   20 1    
    43   22   21 2    
@<TRIPOS>SUBSTRUCTURE
     1 4CD901      1 GROUP   
@<TRIPOS>SET

