#    Name: 1PK7_2_CAVITY_N1_ALL.mol2
#    Modification time : Tue Mar 11 01:07:23 2014

@<TRIPOS>MOLECULE
1PK7_2_CAVITY_N1_ALL.mol2
  102     0     6     0     0
SMALL
NO_CHARGES


@<TRIPOS>ATOM
      1 CA         71.6780   44.0633    5.6573 C.3       5 GLY6        0.0000 
      2 NZ         71.2034   43.6245    7.0109 N.2       3 LYS4        0.0000 
      3 OG         71.0162   42.8683    5.0378 O.2       1 SER1        0.0000 
      4 CA         70.5415   42.4295    6.3914 C.3       5 GLY6        0.0000 
      5 CA         69.8796   41.2344    5.7719 C.3       5 GLY6        0.0000 
      6 CA         71.8787   41.9159   -4.9421 C.3       5 GLY6        0.0000 
      7 CZ         71.4040   41.4771   -3.5885 C.ar      4 PHE5        0.0000 
      8 N          70.9293   41.0383   -2.2350 N.2       2 ALA2        0.0000 
      9 CA         71.6915   41.1596   -6.9152 C.3       5 GLY6        0.0000 
     10 CA         71.2168   40.7208   -5.5616 C.3       5 GLY6        0.0000 
     11 N          70.7421   40.2820   -4.2080 N.2       2 ALA2        0.0000 
     12 NZ         71.0296   39.9645   -7.5347 N.2       3 LYS4        0.0000 
     13 DU         70.5549   39.5258   -6.1811 H         6 CUB7        0.0000 
     14 N          70.0803   39.0870   -4.8275 N.2       2 ALA2        0.0000 
     15 CZ         69.8931   38.3307   -6.8006 C.ar      4 PHE5        0.0000 
     16 CA         74.5210   37.9021   -3.6543 C.3       5 GLY6        0.0000 
     17 CA         74.0463   37.4633   -2.3008 C.3       5 GLY6        0.0000 
     18 CA         73.5716   37.0246   -0.9472 C.3       5 GLY6        0.0000 
     19 O          74.8084   37.5847   -6.9810 O.2       2 ALA2        0.0000 
     20 N          74.3338   37.1459   -5.6274 N.2       2 ALA2        0.0000 
     21 CZ         73.8591   36.7071   -4.2738 C.ar      4 PHE5        0.0000 
     22 CZ         73.3844   36.2683   -2.9203 C.ar      4 PHE5        0.0000 
     23 NZ         74.1466   36.3896   -7.6005 N.2       3 LYS4        0.0000 
     24 CZ         73.6719   35.9508   -6.2469 C.ar      4 PHE5        0.0000 
     25 CZ         73.0100   34.7558   -6.8664 C.ar      4 PHE5        0.0000 
     26 CA         70.6832   45.8925   -4.0722 C.3       5 GLY6        0.0000 
     27 CA         70.2085   45.4538   -2.7186 C.3       5 GLY6        0.0000 
     28 CA         73.4123   43.7088    4.4883 C.3       5 GLY6        0.0000 
     29 NZ         72.9377   43.2700    5.8419 N.2       3 LYS4        0.0000 
     30 NZ         72.4630   42.8313    7.1955 N.2       3 LYS4        0.0000 
     31 OG         73.2251   42.9526    2.5153 O.2       1 SER1        0.0000 
     32 OG         72.7505   42.5138    3.8688 O.2       1 SER1        0.0000 
     33 NZ         72.2758   42.0750    5.2224 N.2       3 LYS4        0.0000 
     34 NZ         71.8011   41.6362    6.5760 N.2       3 LYS4        0.0000 
     35 NZ         71.3264   41.1974    7.9295 N.2       3 LYS4        0.0000 
     36 CA         72.5633   41.7575    1.8958 C.3       5 GLY6        0.0000 
     37 OG         72.0886   41.3187    3.2493 O.2       1 SER1        0.0000 
     38 NZ         71.6139   40.8799    4.6029 N.2       3 LYS4        0.0000 
     39 NZ         71.1393   40.4411    5.9565 N.2       3 LYS4        0.0000 
     40 CA         70.6646   40.0024    7.3100 C.3       5 GLY6        0.0000 
     41 CZ         72.3761   41.0013   -0.0773 C.ar      4 PHE5        0.0000 
     42 CZ         72.6636   40.6838   -3.4040 C.ar      4 PHE5        0.0000 
     43 CZ         72.1889   40.2450   -2.0504 C.ar      4 PHE5        0.0000 
     44 N          71.7142   39.8062   -0.6968 N.2       2 ALA2        0.0000 
     45 CA         72.4764   39.9275   -5.3770 C.3       5 GLY6        0.0000 
     46 N          72.0017   39.4887   -4.0235 N.2       2 ALA2        0.0000 
     47 NZ         72.2892   39.1712   -7.3501 N.2       3 LYS4        0.0000 
     48 CZ         71.8145   38.7325   -5.9965 C.ar      4 PHE5        0.0000 
     49 CZ         71.3399   38.2937   -4.6430 C.ar      4 PHE5        0.0000 
     50 NZ         71.6274   37.9762   -7.9696 N.2       3 LYS4        0.0000 
     51 CZ         71.1527   37.5374   -6.6161 C.ar      4 PHE5        0.0000 
     52 NZ         69.2819   43.2228    6.2068 N.2       3 LYS4        0.0000 
     53 CZ         71.2809   43.9042   -4.5072 C.ar      4 PHE5        0.0000 
     54 CZ         70.8062   43.4654   -3.1536 C.ar      4 PHE5        0.0000 
     55 CZ         70.3316   43.0266   -1.8000 C.ar      4 PHE5        0.0000 
     56 CA         71.5684   43.5867   -7.8338 C.3       5 GLY6        0.0000 
     57 CA         71.0937   43.1479   -6.4802 C.3       5 GLY6        0.0000 
     58 CA         70.6190   42.7091   -5.1267 C.3       5 GLY6        0.0000 
     59 CZ         70.1444   42.2704   -3.7731 C.ar      4 PHE5        0.0000 
     60 N          69.6697   41.8316   -2.4195 N.2       2 ALA2        0.0000 
     61 N          70.4319   41.9529   -7.0997 N.2       2 ALA2        0.0000 
     62 DU         69.9572   41.5141   -5.7462 H         6 CUB7        0.0000 
     63 N          69.4825   41.0753   -4.3926 N.2       2 ALA2        0.0000 
     64 N          69.7700   40.7578   -7.7192 N.2       2 ALA2        0.0000 
     65 DU         69.2953   40.3190   -6.3657 H         6 CUB7        0.0000 
     66 N          68.8206   39.8803   -5.0121 N.2       2 ALA2        0.0000 
     67 CZ         68.1588   38.6852   -5.6316 C.ar      4 PHE5        0.0000 
     68 CZ         69.5466   44.2587   -3.3381 C.ar      4 PHE5        0.0000 
     69 CZ         69.0719   43.8199   -1.9846 C.ar      4 PHE5        0.0000 
     70 N          70.3088   44.3800   -8.0184 N.2       2 ALA2        0.0000 
     71 N          69.8341   43.9412   -6.6648 N.2       2 ALA2        0.0000 
     72 DU         69.3594   43.5024   -5.3112 H         6 CUB7        0.0000 
     73 DU         68.8848   43.0637   -3.9577 H         6 CUB7        0.0000 
     74 O          68.4101   42.6249   -2.6041 O.2       2 ALA2        0.0000 
     75 N          69.1722   42.7462   -7.2843 N.2       2 ALA2        0.0000 
     76 DU         68.6976   42.3074   -5.9307 H         6 CUB7        0.0000 
     77 DU         68.2229   41.8686   -4.5772 H         6 CUB7        0.0000 
     78 N          67.7482   41.4298   -3.2236 N.2       2 ALA2        0.0000 
     79 N          75.5934   36.3526   -5.4429 N.2       2 ALA2        0.0000 
     80 N          75.1187   35.9138   -4.0893 N.2       2 ALA2        0.0000 
     81 CA         74.6440   35.4750   -2.7357 C.3       5 GLY6        0.0000 
     82 OG         75.4062   35.5963   -7.4159 O.2       1 SER1        0.0000 
     83 DU         74.9315   35.1575   -6.0624 H         6 CUB7        0.0000 
     84 CZ         74.4568   34.7187   -4.7088 C.ar      4 PHE5        0.0000 
     85 OG         74.7443   34.4013   -8.0354 O.2       1 SER1        0.0000 
     86 CZ         74.4848   42.1593    2.6998 C.ar      4 PHE5        0.0000 
     87 NZ         74.0101   41.7205    4.0534 N.2       3 LYS4        0.0000 
     88 CA         73.8229   40.9642    2.0803 C.3       5 GLY6        0.0000 
     89 CZ         74.1104   40.6467   -1.2463 C.ar      4 PHE5        0.0000 
     90 CA         73.6357   40.2080    0.1072 C.3       5 GLY6        0.0000 
     91 CA         73.9232   39.8905   -3.2194 C.3       5 GLY6        0.0000 
     92 CA         73.4485   39.4517   -1.8658 C.3       5 GLY6        0.0000 
     93 N          72.9738   39.0129   -0.5123 N.2       2 ALA2        0.0000 
     94 CA         73.7360   39.1342   -5.1925 C.3       5 GLY6        0.0000 
     95 DU         73.2613   38.6954   -3.8389 H         6 CUB7        0.0000 
     96 N          72.7867   38.2566   -2.4853 N.2       2 ALA2        0.0000 
     97 CA         72.3120   37.8179   -1.1318 C.3       5 GLY6        0.0000 
     98 NZ         73.5488   38.3780   -7.1655 N.2       3 LYS4        0.0000 
     99 CZ         73.0742   37.9392   -5.8120 C.ar      4 PHE5        0.0000 
    100 CZ         72.5995   37.5004   -4.4584 C.ar      4 PHE5        0.0000 
    101 NZ         72.8870   37.1829   -7.7851 N.2       3 LYS4        0.0000 
    102 CZ         72.4123   36.7441   -6.4315 C.ar      4 PHE5        0.0000 
@<TRIPOS>BOND
@<TRIPOS>SUBSTRUCTURE
     1 SER1        3 GROUP   
     2 ALA2        8 GROUP   
     3 LYS4        2 GROUP   
     4 PHE5        7 GROUP   
     5 GLY6        1 GROUP   
     6 CUB7       13 GROUP   
@<TRIPOS>SET

