#    Name: 1pk7_ADN_2_INTS_M
#    Modification time : Mon Mar 24 21:45:44 2014

@<TRIPOS>MOLECULE
1pk7_ADN_2_INTS_M
   24     0     3     0     0
SMALL
NO_CHARGES


@<TRIPOS>ATOM
      1 CA         71.6785   33.8035   -5.1710 C.3       1 GLC5        0.0000 
      2 CA         72.4970   32.3250   -5.3620 C.3       3 GLL5        0.0000 
      3 CA         70.8600   35.2820   -4.9800 C.3       2 GLP5        0.0000 
      4 CA         75.9585   38.2135   -6.4705 C.3       1 GLC5        0.0000 
      5 CA         74.5250   37.0940   -5.1600 C.3       3 GLL5        0.0000 
      6 CA         77.3920   39.3330   -7.7810 C.3       2 GLP5        0.0000 
      7 CA         75.4200   38.8075   -3.2070 C.3       1 GLC5        0.0000 
      8 CA         74.0040   38.2920   -4.6150 C.3       3 GLL5        0.0000 
      9 CA         76.8360   39.3230   -1.7990 C.3       2 GLP5        0.0000 
     10 CA         74.0890   40.1535   -5.5460 C.3       1 GLC5        0.0000 
     11 CA         74.1740   42.0150   -6.4770 C.3       2 GLP5        0.0000 
     12 CA         71.9590   36.8215   -1.6010 C.3       1 GLC5        0.0000 
     13 CA         73.7500   37.0360   -2.6220 C.3       3 GLL5        0.0000 
     14 CA         70.1680   36.6070   -0.5800 C.3       2 GLP5        0.0000 
     15 CA         75.2930   38.1795   -2.2105 C.3       1 GLC5        0.0000 
     16 CA         74.2975   35.4190   -1.3630 C.3       1 GLC5        0.0000 
     17 CA         74.8450   33.8020   -0.1040 C.3       2 GLP5        0.0000 
     18 CA         76.4540   35.6390   -3.4300 C.3       1 GLC5        0.0000 
     19 CA         74.6250   35.9520   -4.4110 C.3       3 GLL5        0.0000 
     20 CA         78.2830   35.3260   -2.4490 C.3       2 GLP5        0.0000 
     21 CA         74.0715   32.6983   -2.2140 C.3       1 GLC5        0.0000 
     22 CA         75.2740   32.8930   -3.6270 C.3       3 GLL5        0.0000 
     23 CA         73.2740   33.1510   -0.6780 C.3       2 GLP5        0.0000 
     24 CA         76.8388   34.2675   -3.3810 C.3       1 GLC5        0.0000 
@<TRIPOS>BOND
@<TRIPOS>SUBSTRUCTURE
     1 GLC5        1 GROUP        1 X    GLC  0     ROOT GLC X 6
     2 GLP5        3 GROUP        1 Y    GLP  0     ROOT GLP Y 13
     3 GLL5        2 GROUP        1 Z    GLL  0     ROOT GLL Z 20
@<TRIPOS>SET

