#    Name: 1pk7_ADN_2_ligand
#    Modification time : Mon Mar 24 21:45:44 2014

@<TRIPOS>MOLECULE
1pk7_ADN_2_ligand
   32    34     1     0     0
SMALL
NO_CHARGES


@<TRIPOS>ATOM
      1 O5'        72.0800   32.4810   -6.7180 O.3       1 ADN1246     0.0000 
      2 C5'        72.4970   32.3250   -5.3620 C.3       1 ADN1246     0.0000 
      3 C4'        73.9270   31.7930   -5.2810 C.3       1 ADN1246     0.0000 
      4 O4'        74.8910   32.6330   -5.9510 O.3       1 ADN1246     0.0000 
      5 C3'        74.4640   31.5980   -3.8730 C.3       1 ADN1246     0.0000 
      6 O3'        75.2830   30.4200   -3.8950 O.3       1 ADN1246     0.0000 
      7 C2'        75.2740   32.8930   -3.6270 C.3       1 ADN1246     0.0000 
      8 O2'        76.5830   32.6340   -3.1170 O.3       1 ADN1246     0.0000 
      9 C1'        75.5150   33.5250   -4.9990 C.3       1 ADN1246     0.0000 
     10 N9         75.1820   34.9630   -5.2700 N.pl3     1 ADN1246     0.0000 
     11 C8         75.3760   35.6080   -6.4940 C.2       1 ADN1246     0.0000 
     12 N7         74.9750   36.9100   -6.4250 N.2       1 ADN1246     0.0000 
     13 C5         74.5250   37.0940   -5.1600 C.ar      1 ADN1246     0.0000 
     14 C6         74.0040   38.2920   -4.6150 C.ar      1 ADN1246     0.0000 
     15 N6         73.8680   39.4460   -5.2600 N.pl3     1 ADN1246     0.0000 
     16 N1         73.6210   38.2000   -3.3010 N.ar      1 ADN1246     0.0000 
     17 C2         73.7500   37.0360   -2.6220 C.ar      1 ADN1246     0.0000 
     18 N3         74.2400   35.8530   -3.0860 N.ar      1 ADN1246     0.0000 
     19 C4         74.6250   35.9520   -4.4110 C.ar      1 ADN1246     0.0000 
     20 H          71.8482   31.6207   -4.8160 H         1 ADN1246     0.0000 
     21 H          72.4660   33.2815   -4.8149 H         1 ADN1246     0.0000 
     22 H          73.9493   30.7933   -5.7632 H         1 ADN1246     0.0000 
     23 H          73.6608   31.5591   -3.2098 H         1 ADN1246     0.0000 
     24 H          74.7190   33.5609   -3.0454 H         1 ADN1246     0.0000 
     25 H          76.6413   33.3995   -5.1816 H         1 ADN1246     0.0000 
     26 H          75.7471   35.1728   -7.2767 H         1 ADN1246     0.0000 
     27 H          74.1639   39.4537   -6.2152 H         1 ADN1246     0.0000 
     28 H          73.4820   40.2024   -4.7319 H         1 ADN1246     0.0000 
     29 H          73.4237   37.0433   -1.5797 H         1 ADN1246     0.0000 
     30 H          72.8946   32.7971   -7.2044 H         1 ADN1246     0.0000 
     31 H          74.8066   29.7628   -3.3109 H         1 ADN1246     0.0000 
     32 H          76.6484   31.6374   -3.0666 H         1 ADN1246     0.0000 
@<TRIPOS>BOND
     1    2    1 1    
     2   30    1 1    
     3    3    2 1    
     4   20    2 1    
     5   21    2 1    
     6    4    3 1    
     7    5    3 1    
     8   22    3 1    
     9    9    4 1    
    10    6    5 1    
    11    7    5 1    
    12   23    5 1    
    13   31    6 1    
    14    8    7 1    
    15    9    7 1    
    16   24    7 1    
    17   32    8 1    
    18   10    9 1    
    19   25    9 1    
    20   11   10 1    
    21   19   10 1    
    22   12   11 2    
    23   26   11 1    
    24   13   12 1    
    25   14   13 ar   
    26   19   13 ar   
    27   15   14 1    
    28   16   14 ar   
    29   27   15 1    
    30   28   15 1    
    31   17   16 ar   
    32   18   17 ar   
    33   29   17 1    
    34   19   18 ar   
@<TRIPOS>SUBSTRUCTURE
     1 ADN1246     1 GROUP   
@<TRIPOS>SET

