#    Name: 2r64_740_1_INTS_M
#    Modification time : Mon Mar 24 23:14:26 2014

@<TRIPOS>MOLECULE
2r64_740_1_INTS_M
   48     0     9     0     0
SMALL
NO_CHARGES


@<TRIPOS>ATOM
      1 CA         20.3285   28.7990   31.3060 C.3       3 GLC5        0.0000 
      2 CA         21.5270   27.0670   31.3500 C.3       9 GLL5        0.0000 
      3 CA         19.1300   30.5310   31.2620 C.3       6 GLP5        0.0000 
      4 CA         20.4580   29.3340   30.1855 C.3       3 GLC5        0.0000 
      5 CA         21.7860   28.1370   29.1090 C.3       9 GLL5        0.0000 
      6 O          22.6175   30.3490   29.6600 O.2       1 ALC1        0.0000 
      7 O          23.5810   29.7760   29.0000 O.2       7 ALL1        0.0000 
      8 O          21.6540   30.9220   30.3200 O.2       4 ALP1        0.0000 
      9 N          23.9040   32.5605   29.8255 N.am      2 SEC2        0.0000 
     10 N          24.9740   31.8610   29.2320 N.am      8 SEL2        0.0000 
     11 N          22.8340   33.2600   30.4190 N.am      5 SEP2        0.0000 
     12 O          26.3585   33.5575   29.2950 O.2       1 ALC1        0.0000 
     13 O          26.1680   32.3580   28.8290 O.2       7 ALL1        0.0000 
     14 O          26.5490   34.7570   29.7610 O.2       4 ALP1        0.0000 
     15 CA         27.6565   33.5465   26.7885 C.3       3 GLC5        0.0000 
     16 CA         28.1020   31.5090   27.4200 C.3       9 GLL5        0.0000 
     17 CA         27.2110   35.5840   26.1570 C.3       6 GLP5        0.0000 
     18 CA         23.8550   25.0355   33.3285 C.3       3 GLC5        0.0000 
     19 CA         22.6640   23.6190   33.8460 C.3       9 GLL5        0.0000 
     20 CA         25.0460   26.4520   32.8110 C.3       6 GLP5        0.0000 
     21 CA         23.7271   25.7369   29.9405 C.3       3 GLC5        0.0000 
     22 CA         22.0340   24.4640   30.3280 C.3       9 GLL5        0.0000 
     23 CA         25.5440   25.5010   29.9490 C.3       6 GLP5        0.0000 
     24 CA         20.0328   28.1317   28.7865 C.3       3 GLC5        0.0000 
     25 CA         21.7830   26.9100   29.9790 C.3       9 GLL5        0.0000 
     26 CA         18.2810   28.7400   28.0290 C.3       6 GLP5        0.0000 
     27 CA         23.3156   26.3218   32.2355 C.3       3 GLC5        0.0000 
     28 CA         28.7335   32.9113   28.1833 C.3       3 GLC5        0.0000 
     29 CA         26.8640   31.4720   28.0570 C.3       9 GLL5        0.0000 
     30 CA         29.9840   34.3320   28.6280 C.3       6 GLP5        0.0000 
     31 CA         25.8880   31.8488   26.6602 C.3       3 GLC5        0.0000 
     32 CA         24.2930   32.2070   25.5820 C.3       6 GLP5        0.0000 
     33 CA         28.5218   28.4408   28.2656 C.3       3 GLC5        0.0000 
     34 CA         28.5290   30.3880   26.6720 C.3       9 GLL5        0.0000 
     35 CA         29.7720   27.3870   29.6080 C.3       6 GLP5        0.0000 
     36 CA         25.2500   30.9715   26.5920 C.3       3 GLC5        0.0000 
     37 CA         26.4310   29.1860   27.2270 C.3       9 GLL5        0.0000 
     38 CA         27.5445   31.0871   29.4764 C.3       3 GLC5        0.0000 
     39 CA         25.9830   30.2860   27.9770 C.3       9 GLL5        0.0000 
     40 CA         28.3560   31.2860   31.0950 C.3       6 GLP5        0.0000 
     41 CA         29.7102   26.2005   26.7692 C.3       3 GLC5        0.0000 
     42 CA         28.0940   26.7420   26.2350 C.3       9 GLL5        0.0000 
     43 CA         31.0220   26.0910   27.8820 C.3       6 GLP5        0.0000 
     44 CA         29.9428   24.8760   24.6277 C.3       3 GLC5        0.0000 
     45 CA         28.7030   25.8780   25.0780 C.3       9 GLL5        0.0000 
     46 CA         31.2100   23.4860   24.8360 C.3       6 GLP5        0.0000 
     47 CA         23.7530   23.6273   35.8300 C.3       3 GLC5        0.0000 
     48 CA         24.8100   24.2940   37.3960 C.3       6 GLP5        0.0000 
@<TRIPOS>BOND
@<TRIPOS>SUBSTRUCTURE
     1 ALC1        6 GROUP        1 X    ALC  0     ROOT ALC X 1
     2 SEC2        9 GROUP        1 X    SEC  0     **** SEC X 2
     3 GLC5        1 GROUP        1 X    GLC  0     **** GLC X 6
     4 ALP1        8 GROUP        1 Y    ALP  0     ROOT ALP Y 8
     5 SEP2       11 GROUP        1 Y    SEP  0     **** SEP Y 9
     6 GLP5        3 GROUP        1 Y    GLP  0     **** GLP Y 13
     7 ALL1        7 GROUP        1 Z    ALL  0     ROOT ALL Z 15
     8 SEL2       10 GROUP        1 Z    SEL  0     **** SEL Z 16
     9 GLL5        2 GROUP        1 Z    GLL  0     **** GLL Z 20
@<TRIPOS>SET

