#    Name: 2r64_740_1_ligand
#    Modification time : Mon Mar 24 23:14:26 2014

@<TRIPOS>MOLECULE
2r64_740_1_ligand
   59    63     1     0     0
SMALL
NO_CHARGES


@<TRIPOS>ATOM
      1 C1         21.7670   24.6660   31.7320 C.ar      1 740500      0.0000 
      2 C2         22.0340   24.4640   30.3280 C.ar      1 740500      0.0000 
      3 C3         22.0410   25.6070   29.4420 C.ar      1 740500      0.0000 
      4 C4         21.7830   26.9100   29.9790 C.ar      1 740500      0.0000 
      5 C5         21.5270   27.0670   31.3500 C.ar      1 740500      0.0000 
      6 C6         21.5200   25.9660   32.2080 C.ar      1 740500      0.0000 
      7 C7         21.7860   28.1370   29.1090 C.3       1 740500      0.0000 
      8 C8         23.2150   28.5100   28.6300 C.2       1 740500      0.0000 
      9 N9         23.5810   29.7760   29.0000 N.am      1 740500      0.0000 
     10 C10        24.7840   30.6260   28.7700 C.2       1 740500      0.0000 
     11 N11        24.9740   31.8610   29.2320 N.2       1 740500      0.0000 
     12 N12        26.1680   32.3580   28.8290 N.pl3     1 740500      0.0000 
     13 C13        26.8640   31.4720   28.0570 C.ar      1 740500      0.0000 
     14 C14        28.1020   31.5090   27.4200 C.ar      1 740500      0.0000 
     15 C15        28.5290   30.3880   26.6720 C.ar      1 740500      0.0000 
     16 C16        27.6950   29.2180   26.5670 C.ar      1 740500      0.0000 
     17 C17        26.4310   29.1860   27.2270 C.ar      1 740500      0.0000 
     18 C18        25.9830   30.2860   27.9770 C.ar      1 740500      0.0000 
     19 N19        28.1370   28.1460   25.8210 N.pl3     1 740500      0.0000 
     20 C22        28.0940   26.7420   26.2350 C.3       1 740500      0.0000 
     21 O24        23.8670   27.7140   27.9690 O.2       1 740500      0.0000 
     22 C9         28.7030   25.8780   25.0780 C.3       1 740500      0.0000 
     23 S1         28.7820   28.3250   24.3640 S.o2      1 740500      0.0000 
     24 C12        28.6480   26.6540   23.7610 C.3       1 740500      0.0000 
     25 O2         27.9140   29.2550   23.5530 O.2       1 740500      0.0000 
     26 O3         30.1920   28.7150   24.6960 O.2       1 740500      0.0000 
     27 C11        22.6640   23.6190   33.8460 C.3       1 740500      0.0000 
     28 N1         21.7360   23.5880   32.6520 N.3       1 740500      0.0000 
     29 C19        20.7450   22.4980   32.4320 C.3       1 740500      0.0000 
     30 C20        20.9930   21.2160   33.2600 C.3       1 740500      0.0000 
     31 C21        21.3620   21.5880   34.7040 C.3       1 740500      0.0000 
     32 C23        22.7280   22.3020   34.6820 C.3       1 740500      0.0000 
     33 H          22.2125   23.5435   29.9702 H         1 740500      0.0000 
     34 H          22.2256   25.4823   28.4606 H         1 740500      0.0000 
     35 H          21.3420   28.0097   31.7253 H         1 740500      0.0000 
     36 H          21.3297   26.1045   33.2152 H         1 740500      0.0000 
     37 H          21.3777   28.9896   29.6602 H         1 740500      0.0000 
     38 H          21.1621   27.9726   28.2252 H         1 740500      0.0000 
     39 H          22.8263   30.3329   29.6204 H         1 740500      0.0000 
     40 H          26.5020   33.2564   29.0631 H         1 740500      0.0000 
     41 H          28.7007   32.3311   27.4867 H         1 740500      0.0000 
     42 H          29.4323   30.3960   26.1987 H         1 740500      0.0000 
     43 H          25.8489   28.3451   27.1473 H         1 740500      0.0000 
     44 H          27.0806   26.4037   26.3953 H         1 740500      0.0000 
     45 H          28.6895   26.5679   27.1195 H         1 740500      0.0000 
     46 H          28.1278   24.9669   24.9930 H         1 740500      0.0000 
     47 H          29.7292   25.6479   25.3273 H         1 740500      0.0000 
     48 H          27.7247   26.6371   23.3151 H         1 740500      0.0000 
     49 H          29.4894   26.5423   23.1856 H         1 740500      0.0000 
     50 H          22.3639   24.4374   34.5291 H         1 740500      0.0000 
     51 H          23.6928   23.8560   33.5113 H         1 740500      0.0000 
     52 H          20.7288   22.2110   31.3610 H         1 740500      0.0000 
     53 H          19.7240   22.8607   32.6680 H         1 740500      0.0000 
     54 H          21.8056   20.6587   32.8128 H         1 740500      0.0000 
     55 H          20.0919   20.6169   33.2615 H         1 740500      0.0000 
     56 H          21.4376   20.6944   35.2971 H         1 740500      0.0000 
     57 H          20.6192   22.2542   35.1044 H         1 740500      0.0000 
     58 H          23.0225   22.5492   35.6969 H         1 740500      0.0000 
     59 H          23.4711   21.6461   34.2398 H         1 740500      0.0000 
@<TRIPOS>BOND
     1    2    1 ar   
     2    6    1 ar   
     3   28    1 1    
     4    3    2 ar   
     5   33    2 1    
     6    4    3 ar   
     7   34    3 1    
     8    5    4 ar   
     9    7    4 1    
    10    6    5 ar   
    11   35    5 1    
    12   36    6 1    
    13    8    7 1    
    14   37    7 1    
    15   38    7 1    
    16    9    8 am   
    17   21    8 2    
    18   10    9 1    
    19   39    9 1    
    20   11   10 2    
    21   18   10 1    
    22   12   11 1    
    23   13   12 1    
    24   40   12 1    
    25   14   13 ar   
    26   18   13 ar   
    27   15   14 ar   
    28   41   14 1    
    29   16   15 ar   
    30   42   15 1    
    31   17   16 ar   
    32   19   16 1    
    33   18   17 ar   
    34   43   17 1    
    35   20   19 1    
    36   23   19 1    
    37   22   20 1    
    38   44   20 1    
    39   45   20 1    
    40   24   22 1    
    41   46   22 1    
    42   47   22 1    
    43   24   23 1    
    44   25   23 2    
    45   26   23 2    
    46   48   24 1    
    47   49   24 1    
    48   28   27 1    
    49   32   27 1    
    50   50   27 1    
    51   51   27 1    
    52   29   28 1    
    53   30   29 1    
    54   52   29 1    
    55   53   29 1    
    56   31   30 1    
    57   54   30 1    
    58   55   30 1    
    59   32   31 1    
    60   56   31 1    
    61   57   31 1    
    62   58   32 1    
    63   59   32 1    
@<TRIPOS>SUBSTRUCTURE
     1 740500      1 GROUP   
@<TRIPOS>SET

