#    Name: 4iji_99T_4_INTS_M
#    Modification time : Tue Mar 25 04:06:21 2014

@<TRIPOS>MOLECULE
4iji_99T_4_INTS_M
   89     0    15     0     0
SMALL
NO_CHARGES


@<TRIPOS>ATOM
      1 NZ         12.9605   42.2230   10.2060 N.4       4 LYC4        0.0000 
      2 NZ         12.4080   41.3360    9.4120 N.4      14 LYL4        0.0000 
      3 NZ         13.5130   43.1100   11.0000 N.4       9 LYP4        0.0000 
      4 N          12.9605   42.2230   10.2060 N.am      2 SEC2        0.0000 
      5 N          12.4080   41.3360    9.4120 N.am     12 SEL2        0.0000 
      6 N          13.5130   43.1100   11.0000 N.am      7 SEP2        0.0000 
      7 NZ         13.4340   42.6170    9.2970 N.4       4 LYC4        0.0000 
      8 NZ         13.3550   42.1240    7.5940 N.4      14 LYL4        0.0000 
      9 CA         13.0845   38.0445    8.5650 C.3       5 GLC5        0.0000 
     10 CA         13.3450   39.7740    7.8590 C.3      15 GLL5        0.0000 
     11 CA         12.8240   36.3150    9.2710 C.3      10 GLP5        0.0000 
     12 CA         11.3235   39.3580    8.1665 C.3       5 GLC5        0.0000 
     13 CA          9.3020   38.9420    8.4740 C.3      10 GLP5        0.0000 
     14 CA         11.3735   40.8140    7.7345 C.3       5 GLC5        0.0000 
     15 CA          9.4020   41.8540    7.6100 C.3      10 GLP5        0.0000 
     16 CA         15.1320   40.7110    8.2925 C.3       5 GLC5        0.0000 
     17 CA         16.9190   41.6480    8.7260 C.3      10 GLP5        0.0000 
     18 CA         12.0050   40.2120    6.1075 C.3       5 GLC5        0.0000 
     19 CA         10.6650   40.6500    4.3560 C.3      10 GLP5        0.0000 
     20 O          12.7240   39.7560    5.7175 O.2       1 ALC1        0.0000 
     21 O          13.8630   39.7320    6.5270 O.2      11 ALL1        0.0000 
     22 O          11.5850   39.7800    4.9080 O.2       6 ALP1        0.0000 
     23 N          16.9005   37.9165    7.7240 N.am      2 SEC2        0.0000 
     24 N          15.7140   38.4580    7.0880 N.am     12 SEL2        0.0000 
     25 N          18.0870   37.3750    8.3600 N.am      7 SEP2        0.0000 
     26 CA         17.0635   39.1965    3.2130 C.3       5 GLC5        0.0000 
     27 CA         15.5190   39.0490    4.7990 C.3      15 GLL5        0.0000 
     28 CA         18.6080   39.3440    1.6270 C.3      10 GLP5        0.0000 
     29 CA         16.1040   36.4265    5.4140 C.3       5 GLC5        0.0000 
     30 CA         15.0660   37.8080    4.1040 C.3      15 GLL5        0.0000 
     31 CA         17.1420   35.0450    6.7240 C.3      10 GLP5        0.0000 
     32 CA         16.8875   38.6200    1.9855 C.3       5 GLC5        0.0000 
     33 CA         15.1670   37.8960    2.3440 C.3      15 GLL5        0.0000 
     34 CA         14.7695   39.5210    1.0635 C.3       5 GLC5        0.0000 
     35 CA         14.3720   41.1460   -0.2170 C.3      10 GLP5        0.0000 
     36 O          18.0025   38.3135    5.3815 O.2       1 ALC1        0.0000 
     37 O          16.9480   39.1590    4.8280 O.2      11 ALL1        0.0000 
     38 O          19.0570   37.4680    5.9350 O.2       6 ALP1        0.0000 
     39 CA         18.8305   39.9360    3.1520 C.3       5 GLC5        0.0000 
     40 CA         19.0530   40.5280    4.6770 C.3      15 GLL5        0.0000 
     41 CA         19.8485   41.6800    2.5285 C.3       5 GLC5        0.0000 
     42 CA         19.6980   41.8450    4.4240 C.3      15 GLL5        0.0000 
     43 CA         19.9990   41.5150    0.6330 C.3      10 GLP5        0.0000 
     44 CA         20.8685   41.1795    3.0050 C.3       5 GLC5        0.0000 
     45 CA         21.0640   41.9970    4.9870 C.3      15 GLL5        0.0000 
     46 CA         20.6730   40.3620    1.0230 C.3      10 GLP5        0.0000 
     47 CA         22.5775   41.8940    5.9655 C.3       5 GLC5        0.0000 
     48 CA         24.0910   41.7910    6.9440 C.3      10 GLP5        0.0000 
     49 OD1        22.8810   43.4930    5.1000 O.co2     3 ASC3        0.0000 
     50 OD1        21.5220   43.3440    4.7340 O.co2    13 ASL3        0.0000 
     51 OD1        24.2400   43.6420    5.4660 O.co2     8 ASP3        0.0000 
     52 O          22.8810   43.4930    5.1000 O.2       1 ALC1        0.0000 
     53 O          21.5220   43.3440    4.7340 O.2      11 ALL1        0.0000 
     54 O          24.2400   43.6420    5.4660 O.2       6 ALP1        0.0000 
     55 N          23.5260   40.5085    2.9255 N.am      2 SEC2        0.0000 
     56 N          22.6440   41.3110    3.3470 N.am     12 SEL2        0.0000 
     57 N          24.4080   39.7060    2.5040 N.am      7 SEP2        0.0000 
     58 N          23.5410   39.7305    5.1705 N.am      2 SEC2        0.0000 
     59 N          22.1200   39.8660    4.9220 N.am     12 SEL2        0.0000 
     60 N          24.9620   39.5950    5.4190 N.am      7 SEP2        0.0000 
     61 N          23.2640   39.7860    3.7130 N.am      2 SEC2        0.0000 
     62 CA         14.9785   35.7905    1.3180 C.3       5 GLC5        0.0000 
     63 CA         13.7890   37.0410    1.6320 C.3      15 GLL5        0.0000 
     64 CA         16.1680   34.5400    1.0040 C.3      10 GLP5        0.0000 
     65 CA         13.4930   37.0675   -0.4600 C.3       5 GLC5        0.0000 
     66 CA         13.1970   37.0940   -2.5520 C.3      10 GLP5        0.0000 
     67 CA         13.3900   39.3810    0.7365 C.3       5 GLC5        0.0000 
     68 CA         12.4080   37.6160    1.6900 C.3      15 GLL5        0.0000 
     69 CA         11.5365   39.1330    3.0230 C.3       5 GLC5        0.0000 
     70 CA         12.5785   38.0035   -0.3915 C.3       5 GLC5        0.0000 
     71 CA         12.7490   38.3910   -2.4730 C.3      10 GLP5        0.0000 
     72 N           9.8215   35.0220    0.8210 N.am      2 SEC2        0.0000 
     73 N          10.8250   35.8370    1.8200 N.am     12 SEL2        0.0000 
     74 N           8.8180   34.2070   -0.1780 N.am      7 SEP2        0.0000 
     75 NZ          9.8715   35.5545   -0.1260 N.4       4 LYC4        0.0000 
     76 NZ         10.9250   36.9020   -0.0740 N.4      14 LYL4        0.0000 
     77 NZ          8.5340   34.5330   -1.4320 N.4       9 LYP4        0.0000 
     78 N          11.3835   37.8265   -0.7930 N.am      2 SEC2        0.0000 
     79 N          10.9250   36.9020   -0.0740 N.am     12 SEL2        0.0000 
     80 N          11.8420   38.7510   -1.5120 N.am      7 SEP2        0.0000 
     81 N          10.0455   36.2235   -1.0445 N.am      2 SEC2        0.0000 
     82 N           9.1660   35.5450   -2.0150 N.am      7 SEP2        0.0000 
     83 N           9.8715   35.5545   -0.1260 N.am      2 SEC2        0.0000 
     84 CA         15.8933   36.2895    2.8320 C.3       5 GLC5        0.0000 
     85 CA         16.6700   34.7270    2.4400 C.3      10 GLP5        0.0000 
     86 CA         15.4990   37.1418    0.5540 C.3       5 GLC5        0.0000 
     87 CA         16.5200   36.8150   -0.8800 C.3      10 GLP5        0.0000 
     88 CA         18.3493   41.9663    6.1593 C.3       5 GLC5        0.0000 
     89 CA         17.3230   42.7460    7.7680 C.3      10 GLP5        0.0000 
@<TRIPOS>BOND
@<TRIPOS>SUBSTRUCTURE
     1 ALC1       20 GROUP        1 X    ALC  0     ROOT ALC X 1
     2 SEC2        4 GROUP        1 X    SEC  0     **** SEC X 2
     3 ASC3       49 GROUP        1 X    ASC  0     **** ASC X 3
     4 LYC4        1 GROUP        1 X    LYC  0     **** LYC X 4
     5 GLC5        9 GROUP        1 X    GLC  0     **** GLC X 6
     6 ALP1       22 GROUP        1 Y    ALP  0     ROOT ALP Y 8
     7 SEP2        6 GROUP        1 Y    SEP  0     **** SEP Y 9
     8 ASP3       51 GROUP        1 Y    ASP  0     **** ASP Y 10
     9 LYP4        3 GROUP        1 Y    LYP  0     **** LYP Y 11
    10 GLP5       11 GROUP        1 Y    GLP  0     **** GLP Y 13
    11 ALL1       21 GROUP        1 Z    ALL  0     ROOT ALL Z 15
    12 SEL2        5 GROUP        1 Z    SEL  0     **** SEL Z 16
    13 ASL3       50 GROUP        1 Z    ASL  0     **** ASL Z 17
    14 LYL4        2 GROUP        1 Z    LYL  0     **** LYL Z 18
    15 GLL5       10 GROUP        1 Z    GLL  0     **** GLL Z 20
@<TRIPOS>SET

