#    Name: 4iji_99T_4_ligand
#    Modification time : Tue Mar 25 04:06:21 2014

@<TRIPOS>MOLECULE
4iji_99T_4_ligand
   44    43     1     0     0
SMALL
NO_CHARGES


@<TRIPOS>ATOM
      1 O32        12.4080   41.3360    9.4120 O.co2     1 99T501      0.0000 
      2 C3         13.0130   41.1480    8.3190 C.2       1 99T501      0.0000 
      3 O31        13.3550   42.1240    7.5940 O.co2     1 99T501      0.0000 
      4 CA3        13.3450   39.7740    7.8590 C.3       1 99T501      0.0000 
      5 N3         13.8630   39.7320    6.5270 N.am      1 99T501      0.0000 
      6 C2         15.0610   39.0380    6.2150 C.2       1 99T501      0.0000 
      7 O2         15.7140   38.4580    7.0880 O.2       1 99T501      0.0000 
      8 CA2        15.5190   39.0490    4.7990 C.3       1 99T501      0.0000 
      9 CB2        15.0660   37.8080    4.1040 C.3       1 99T501      0.0000 
     10 SG2        15.1670   37.8960    2.3440 S.3       1 99T501      0.0000 
     11 N2         16.9480   39.1590    4.8280 N.am      1 99T501      0.0000 
     12 CD1        17.5630   40.4300    4.6120 C.2       1 99T501      0.0000 
     13 OE1        16.8790   41.4210    4.3670 O.2       1 99T501      0.0000 
     14 CG1        19.0530   40.5280    4.6770 C.3       1 99T501      0.0000 
     15 CB1        19.6980   41.8450    4.4240 C.3       1 99T501      0.0000 
     16 CA1        21.0640   41.9970    4.9870 C.3       1 99T501      0.0000 
     17 N1         21.5220   43.3440    4.7340 N.4       1 99T501      0.0000 
     18 C1         21.9900   41.0030    4.3750 C.2       1 99T501      0.0000 
     19 O01        22.6440   41.3110    3.3470 O.co2     1 99T501      0.0000 
     20 O02        22.1200   39.8660    4.9220 O.co2     1 99T501      0.0000 
     21 C08        13.7890   37.0410    1.6320 C.3       1 99T501      0.0000 
     22 C09        12.4080   37.6160    1.6900 C.3       1 99T501      0.0000 
     23 C10        11.3330   36.7480    1.1150 C.2       1 99T501      0.0000 
     24 O11        10.8250   35.8370    1.8200 O.co2     1 99T501      0.0000 
     25 O12        10.9250   36.9020   -0.0740 O.co2     1 99T501      0.0000 
     26 H          12.4285   39.1443    7.9438 H         1 99T501      0.0000 
     27 H          14.0730   39.3295    8.5774 H         1 99T501      0.0000 
     28 H          13.3510   40.2187    5.7788 H         1 99T501      0.0000 
     29 H          15.0845   39.9119    4.3117 H         1 99T501      0.0000 
     30 H          14.0188   37.5743    4.2744 H         1 99T501      0.0000 
     31 H          15.6707   36.9361    4.3372 H         1 99T501      0.0000 
     32 H          17.5160   38.3393    5.0008 H         1 99T501      0.0000 
     33 H          19.4917   39.7678    3.9614 H         1 99T501      0.0000 
     34 H          19.3912   40.1488    5.6891 H         1 99T501      0.0000 
     35 H          19.0437   42.6538    4.8293 H         1 99T501      0.0000 
     36 H          19.7344   42.0262    3.3229 H         1 99T501      0.0000 
     37 H          21.0165   41.8191    6.0573 H         1 99T501      0.0000 
     38 H          13.8557   36.0371    2.1225 H         1 99T501      0.0000 
     39 H          14.1365   36.8671    0.5823 H         1 99T501      0.0000 
     40 H          12.4020   38.5978    1.1629 H         1 99T501      0.0000 
     41 H          12.1571   37.8495    2.7503 H         1 99T501      0.0000 
     42 H          22.4399   43.4990    5.0994 H         1 99T501      0.0000 
     43 H          21.5581   43.5463    3.7553 H         1 99T501      0.0000 
     44 H          20.9212   44.0253    5.1522 H         1 99T501      0.0000 
@<TRIPOS>BOND
     1    2    1 ar   
     2    3    2 ar   
     3    4    2 1    
     4    5    4 1    
     5   26    4 1    
     6   27    4 1    
     7    6    5 am   
     8   28    5 1    
     9    7    6 2    
    10    8    6 1    
    11    9    8 1    
    12   11    8 1    
    13   29    8 1    
    14   10    9 1    
    15   30    9 1    
    16   31    9 1    
    17   21   10 1    
    18   12   11 am   
    19   32   11 1    
    20   13   12 2    
    21   14   12 1    
    22   15   14 1    
    23   33   14 1    
    24   34   14 1    
    25   16   15 1    
    26   35   15 1    
    27   36   15 1    
    28   17   16 1    
    29   18   16 1    
    30   37   16 1    
    31   42   17 1    
    32   43   17 1    
    33   44   17 1    
    34   19   18 ar   
    35   20   18 ar   
    36   22   21 1    
    37   38   21 1    
    38   39   21 1    
    39   23   22 1    
    40   40   22 1    
    41   41   22 1    
    42   24   23 ar   
    43   25   23 ar   
@<TRIPOS>SUBSTRUCTURE
     1 99T501      1 GROUP   
@<TRIPOS>SET

