#    Name: 3fr2_8CA_1_INTS_M
#    Modification time : Tue Mar 25 06:18:01 2014

@<TRIPOS>MOLECULE
3fr2_8CA_1_INTS_M
   61     0     9     0     0
SMALL
NO_CHARGES


@<TRIPOS>ATOM
      1 NZ         18.0220    7.9620    0.5295 N.4       2 LYC4        0.0000 
      2 NZ         17.4000    7.2540    1.6380 N.4       8 LYL4        0.0000 
      3 NZ         18.9840    9.6030    0.3090 N.4       5 LYP4        0.0000 
      4 N          17.9830    8.3630    1.6100 N.am      1 SEC2        0.0000 
      5 N          17.4000    7.2540    1.6380 N.am      7 SEL2        0.0000 
      6 N          18.5660    9.4720    1.5820 N.am      4 SEP2        0.0000 
      7 N          18.0220    7.9620    0.5295 N.am      1 SEC2        0.0000 
      8 N          18.6440    8.6700   -0.5790 N.am      4 SEP2        0.0000 
      9 N          16.4755    7.1095    0.7970 N.am      1 SEC2        0.0000 
     10 N          15.5510    6.9650   -0.0440 N.am      4 SEP2        0.0000 
     11 CA         17.3605    7.0925    5.1730 C.3       3 GLC5        0.0000 
     12 CA         18.8430    6.0320    4.0380 C.3       9 GLL5        0.0000 
     13 CA         15.8780    8.1530    6.3080 C.3       6 GLP5        0.0000 
     14 CA         18.7465    5.6880    6.7425 C.3       3 GLC5        0.0000 
     15 CA         19.7700    5.8230    5.0530 C.3       9 GLL5        0.0000 
     16 CA         17.7230    5.5530    8.4320 C.3       6 GLP5        0.0000 
     17 CA         20.7490    4.5220    6.6865 C.3       3 GLC5        0.0000 
     18 CA         21.0780    5.4000    4.8290 C.3       9 GLL5        0.0000 
     19 CA         20.4200    3.6440    8.5440 C.3       6 GLP5        0.0000 
     20 CA         23.2530    6.2550    2.6550 C.3       3 GLC5        0.0000 
     21 CA         24.0410    4.3600    3.5350 C.3       9 GLL5        0.0000 
     22 CA         22.4650    8.1500    1.7750 C.3       6 GLP5        0.0000 
     23 CA         24.1045    5.9990    4.9130 C.3       3 GLC5        0.0000 
     24 CA         24.1680    7.6380    6.2910 C.3       6 GLP5        0.0000 
     25 CA         25.8335    6.1580    2.0715 C.3       3 GLC5        0.0000 
     26 CA         25.1090    4.1730    2.4650 C.3       9 GLL5        0.0000 
     27 CA         26.5580    8.1430    1.6780 C.3       6 GLP5        0.0000 
     28 CA         27.2410    4.6400    2.5895 C.3       3 GLC5        0.0000 
     29 CA         29.3730    5.1070    2.7140 C.3       6 GLP5        0.0000 
     30 CA         22.9740    6.2475    1.1080 C.3       3 GLC5        0.0000 
     31 CA         23.4830    4.3450    0.4410 C.3       9 GLL5        0.0000 
     32 CA         24.2755    5.2430   -1.2780 C.3       3 GLC5        0.0000 
     33 CA         25.0680    6.1410   -2.9970 C.3       6 GLP5        0.0000 
     34 CA         23.6470    3.5330   -1.6295 C.3       3 GLC5        0.0000 
     35 CA         23.8110    2.7210   -3.7000 C.3       6 GLP5        0.0000 
     36 CA         21.4880    6.7050    0.8375 C.3       3 GLC5        0.0000 
     37 CA         20.5110    5.2600   -0.1000 C.3       9 GLL5        0.0000 
     38 CA         17.8850    4.0375   -3.4105 C.3       3 GLC5        0.0000 
     39 CA         19.4610    3.1610   -3.0410 C.3       9 GLL5        0.0000 
     40 CA         16.3090    4.9140   -3.7800 C.3       6 GLP5        0.0000 
     41 CA         18.8640    3.2570   -4.9015 C.3       3 GLC5        0.0000 
     42 CA         18.2670    3.3530   -6.7620 C.3       6 GLP5        0.0000 
     43 CA         19.9461    7.3409    5.6616 C.3       3 GLC5        0.0000 
     44 CA         19.7000    9.0180    6.6360 C.3       6 GLP5        0.0000 
     45 CA         26.5540    2.7915    1.5255 C.3       3 GLC5        0.0000 
     46 CA         28.2310    1.6950    1.2570 C.3       6 GLP5        0.0000 
     47 CA         23.7760    2.2420    0.0740 C.3       3 GLC5        0.0000 
     48 CA         24.6450    3.6030    1.1230 C.3       9 GLL5        0.0000 
     49 CA         23.4880    0.5100   -0.6340 C.3       6 GLP5        0.0000 
     50 CA         18.4075    5.1203   -2.3163 C.3       3 GLC5        0.0000 
     51 CA         20.1900    4.0500   -0.9260 C.3       9 GLL5        0.0000 
     52 CA         16.8350    6.0870   -3.0500 C.3       6 GLP5        0.0000 
     53 CA         18.1337    1.7350   -0.8975 C.3       3 GLC5        0.0000 
     54 CA         20.2980    2.7770   -0.4000 C.3       9 GLL5        0.0000 
     55 CA         16.1200    1.2420   -0.9910 C.3       6 GLP5        0.0000 
     56 CA         21.8178    1.3690   -0.7190 C.3       3 GLC5        0.0000 
     57 CA         19.9970    1.6790   -1.2080 C.3       9 GLL5        0.0000 
     58 CA         20.2237   -0.1505   -1.3420 C.3       3 GLC5        0.0000 
     59 CA         20.6660   -2.0770   -0.8200 C.3       6 GLP5        0.0000 
     60 CA         17.8167    1.8795   -1.8858 C.3       3 GLC5        0.0000 
     61 CA         19.5660    1.8730   -2.5200 C.3       9 GLL5        0.0000 
@<TRIPOS>BOND
@<TRIPOS>SUBSTRUCTURE
     1 SEC2        4 GROUP        1 X    SEC  0     ROOT SEC X 2
     2 LYC4        1 GROUP        1 X    LYC  0     **** LYC X 4
     3 GLC5       11 GROUP        1 X    GLC  0     **** GLC X 6
     4 SEP2        6 GROUP        1 Y    SEP  0     ROOT SEP Y 9
     5 LYP4        3 GROUP        1 Y    LYP  0     **** LYP Y 11
     6 GLP5       13 GROUP        1 Y    GLP  0     **** GLP Y 13
     7 SEL2        5 GROUP        1 Z    SEL  0     ROOT SEL Z 16
     8 LYL4        2 GROUP        1 Z    LYL  0     **** LYL Z 18
     9 GLL5       12 GROUP        1 Z    GLL  0     **** GLL Z 20
@<TRIPOS>SET

