#    Name: 3fr2_8CA_1_ligand
#    Modification time : Tue Mar 25 06:18:01 2014

@<TRIPOS>MOLECULE
3fr2_8CA_1_ligand
   41    44     1     0     0
SMALL
NO_CHARGES


@<TRIPOS>ATOM
      1 O1         17.6020    5.1640    1.0550 O.co2     1 8CA501      0.0000 
      2 C7         18.0400    6.0880    1.7230 C.2       1 8CA501      0.0000 
      3 O2         17.4000    7.2540    1.6380 O.co2     1 8CA501      0.0000 
      4 C1         19.1460    5.8400    2.7000 C.ar      1 8CA501      0.0000 
      5 C2         18.8430    6.0320    4.0380 C.ar      1 8CA501      0.0000 
      6 C3         19.7700    5.8230    5.0530 C.ar      1 8CA501      0.0000 
      7 C4         21.0780    5.4000    4.8290 C.ar      1 8CA501      0.0000 
      8 C5         21.4790    5.1670    3.5260 C.ar      1 8CA501      0.0000 
      9 C8         22.7360    4.7430    2.8940 C.2       1 8CA501      0.0000 
     10 C13        24.0410    4.3600    3.5350 C.3       1 8CA501      0.0000 
     11 C12        25.1090    4.1730    2.4650 C.3       1 8CA501      0.0000 
     12 C11        24.6450    3.6030    1.1230 C.3       1 8CA501      0.0000 
     13 C10        23.4830    4.3450    0.4410 C.3       1 8CA501      0.0000 
     14 C9         22.4230    4.7350    1.4440 C.2       1 8CA501      0.0000 
     15 N1         21.1190    5.1000    1.2200 N.pl3     1 8CA501      0.0000 
     16 C6         20.5320    5.3720    2.4010 C.ar      1 8CA501      0.0000 
     17 C20        20.5110    5.2600   -0.1000 C.3       1 8CA501      0.0000 
     18 C19        20.1900    4.0500   -0.9260 C.ar      1 8CA501      0.0000 
     19 C18        20.2980    2.7770   -0.4000 C.ar      1 8CA501      0.0000 
     20 C17        19.9970    1.6790   -1.2080 C.ar      1 8CA501      0.0000 
     21 C16        19.5660    1.8730   -2.5200 C.ar      1 8CA501      0.0000 
     22 C15        19.4610    3.1610   -3.0410 C.ar      1 8CA501      0.0000 
     23 C14        19.7700    4.2570   -2.2390 C.ar      1 8CA501      0.0000 
     24 H          17.8784    6.3469    4.2975 H         1 8CA501      0.0000 
     25 H          19.4670    5.9939    6.0478 H         1 8CA501      0.0000 
     26 H          21.7194    5.2670    5.6079 H         1 8CA501      0.0000 
     27 H          23.9232    3.4293    4.0862 H         1 8CA501      0.0000 
     28 H          24.3590    5.1415    4.2220 H         1 8CA501      0.0000 
     29 H          25.9100    3.5122    2.8709 H         1 8CA501      0.0000 
     30 H          25.6046    5.1543    2.2790 H         1 8CA501      0.0000 
     31 H          24.3484    2.5431    1.2682 H         1 8CA501      0.0000 
     32 H          25.5081    3.5843    0.4250 H         1 8CA501      0.0000 
     33 H          23.0504    3.6938   -0.3197 H         1 8CA501      0.0000 
     34 H          23.8764    5.2377   -0.0471 H         1 8CA501      0.0000 
     35 H          21.1667    5.9451   -0.7316 H         1 8CA501      0.0000 
     36 H          19.5553    5.8719    0.0018 H         1 8CA501      0.0000 
     37 H          20.5943    2.6338    0.5687 H         1 8CA501      0.0000 
     38 H          20.0934    0.7266   -0.8347 H         1 8CA501      0.0000 
     39 H          19.3248    1.0617   -3.1050 H         1 8CA501      0.0000 
     40 H          19.1576    3.3011   -4.0103 H         1 8CA501      0.0000 
     41 H          19.6895    5.2076   -2.6105 H         1 8CA501      0.0000 
@<TRIPOS>BOND
     1    2    1 ar   
     2    3    2 ar   
     3    4    2 1    
     4    5    4 ar   
     5   16    4 ar   
     6    6    5 ar   
     7   24    5 1    
     8    7    6 ar   
     9   25    6 1    
    10    8    7 ar   
    11   26    7 1    
    12    9    8 1    
    13   16    8 ar   
    14   10    9 1    
    15   14    9 2    
    16   11   10 1    
    17   27   10 1    
    18   28   10 1    
    19   12   11 1    
    20   29   11 1    
    21   30   11 1    
    22   13   12 1    
    23   31   12 1    
    24   32   12 1    
    25   14   13 1    
    26   33   13 1    
    27   34   13 1    
    28   15   14 1    
    29   16   15 1    
    30   17   15 1    
    31   18   17 1    
    32   35   17 1    
    33   36   17 1    
    34   19   18 ar   
    35   23   18 ar   
    36   20   19 ar   
    37   37   19 1    
    38   21   20 ar   
    39   38   20 1    
    40   22   21 ar   
    41   39   21 1    
    42   23   22 ar   
    43   40   22 1    
    44   41   23 1    
@<TRIPOS>SUBSTRUCTURE
     1 8CA501      1 GROUP   
@<TRIPOS>SET

