#    Name: 4jye_SAH_1_INTS_M
#    Modification time : Tue Mar 25 06:41:50 2014

@<TRIPOS>MOLECULE
4jye_SAH_1_INTS_M
   54     0     9     0     0
SMALL
NO_CHARGES


@<TRIPOS>ATOM
      1 O          40.6200    4.5095   20.9730 O.2       1 ALC1        0.0000 
      2 O          41.3430    3.1370   21.0590 O.2       7 ALL1        0.0000 
      3 O          39.8970    5.8820   20.8870 O.2       4 ALP1        0.0000 
      4 CA         39.4130    1.5520   19.9340 C.3       3 GLC5        0.0000 
      5 CA         41.0420    2.7140   19.6540 C.3       9 GLL5        0.0000 
      6 CA         37.7840    0.3900   20.2140 C.3       6 GLP5        0.0000 
      7 N          41.7330   -0.6270   18.0585 N.am      2 SEC2        0.0000 
      8 N          41.4290    0.8490   18.2870 N.am      8 SEL2        0.0000 
      9 N          42.0370   -2.1030   17.8300 N.am      5 SEP2        0.0000 
     10 O          45.9680   -0.7560   16.4790 O.2       1 ALC1        0.0000 
     11 O          45.0030    0.6170   16.5080 O.2       7 ALL1        0.0000 
     12 O          46.9330   -2.1290   16.4500 O.2       4 ALP1        0.0000 
     13 O          45.0160   -0.5500   17.0200 O.2       1 ALC1        0.0000 
     14 O          45.0290   -1.7170   17.5320 O.2       4 ALP1        0.0000 
     15 N          47.8510    1.1195   14.5210 N.am      2 SEC2        0.0000 
     16 N          47.7000    0.4670   15.8640 N.am      8 SEL2        0.0000 
     17 N          48.0020    1.7720   13.1780 N.am      5 SEP2        0.0000 
     18 O          47.3165   -0.8310   16.1570 O.2       1 ALC1        0.0000 
     19 O          47.7000    0.4670   15.8640 O.2       7 ALL1        0.0000 
     20 CA         47.4385    4.7965   17.4525 C.3       3 GLC5        0.0000 
     21 CA         47.9720    2.7090   16.8280 C.3       9 GLL5        0.0000 
     22 CA         46.9050    6.8840   18.0770 C.3       6 GLP5        0.0000 
     23 CA         49.8835    5.0945   19.2770 C.3       3 GLC5        0.0000 
     24 CA         50.9650    3.2060   18.8600 C.3       9 GLL5        0.0000 
     25 CA         48.8020    6.9830   19.6940 C.3       6 GLP5        0.0000 
     26 CA         52.9905    5.2540   18.8360 C.3       3 GLC5        0.0000 
     27 CA         52.4170    3.3830   18.8420 C.3       9 GLL5        0.0000 
     28 CA         53.5640    7.1250   18.8300 C.3       6 GLP5        0.0000 
     29 O          52.8755    3.0510   21.3440 O.2       1 ALC1        0.0000 
     30 O          53.1020    3.5140   20.0160 O.2       7 ALL1        0.0000 
     31 O          52.6490    2.5880   22.6720 O.2       4 ALP1        0.0000 
     32 O          54.4365    3.9360   19.9015 O.2       1 ALC1        0.0000 
     33 O          55.7710    4.3580   19.7870 O.2       4 ALP1        0.0000 
     34 N          54.5555    3.1195   17.4170 N.am      2 SEC2        0.0000 
     35 N          53.0550    3.3540   17.6330 N.am      8 SEL2        0.0000 
     36 N          56.0560    2.8850   17.2010 N.am      5 SEP2        0.0000 
     37 CA         51.7590    1.4735   16.8645 C.3       3 GLC5        0.0000 
     38 CA         52.3850    3.2590   16.4620 C.3       9 GLL5        0.0000 
     39 CA         51.1330   -0.3120   17.2670 C.3       6 GLP5        0.0000 
     40 CA         53.9705    2.0235   16.2680 C.3       3 GLC5        0.0000 
     41 CA         55.5560    0.7880   16.0740 C.3       6 GLP5        0.0000 
     42 CA         41.4062    5.7257   17.8815 C.3       3 GLC5        0.0000 
     43 CA         42.7120    4.6240   19.1020 C.3       9 GLL5        0.0000 
     44 CA         40.7240    7.2220   16.8710 C.3       6 GLP5        0.0000 
     45 CA         44.9578    5.3995   19.7788 C.3       3 GLC5        0.0000 
     46 CA         46.4410    6.6310   20.5500 C.3       6 GLP5        0.0000 
     47 CA         45.9965    5.1363   17.4827 C.3       3 GLC5        0.0000 
     48 CA         44.4880    3.7970   17.1520 C.3       9 GLL5        0.0000 
     49 CA         46.1895    0.7592   15.0740 C.3       3 GLC5        0.0000 
     50 CA         45.8690    1.5670   17.1480 C.3       9 GLL5        0.0000 
     51 CA         45.7600    0.0820   13.0780 C.3       6 GLP5        0.0000 
     52 CA         49.4018    0.8478   17.0885 C.3       3 GLC5        0.0000 
     53 CA         47.3690    1.3060   16.9920 C.3       9 GLL5        0.0000 
     54 CA         51.0663    1.4326   17.7340 C.3       3 GLC5        0.0000 
@<TRIPOS>BOND
@<TRIPOS>SUBSTRUCTURE
     1 ALC1        1 GROUP        1 X    ALC  0     ROOT ALC X 1
     2 SEC2        7 GROUP        1 X    SEC  0     **** SEC X 2
     3 GLC5        4 GROUP        1 X    GLC  0     **** GLC X 6
     4 ALP1        3 GROUP        1 Y    ALP  0     ROOT ALP Y 8
     5 SEP2        9 GROUP        1 Y    SEP  0     **** SEP Y 9
     6 GLP5        6 GROUP        1 Y    GLP  0     **** GLP Y 13
     7 ALL1        2 GROUP        1 Z    ALL  0     ROOT ALL Z 15
     8 SEL2        8 GROUP        1 Z    SEL  0     **** SEL Z 16
     9 GLL5        5 GROUP        1 Z    GLL  0     **** GLL Z 20
@<TRIPOS>SET

