#    Name: 4jye_SAH_1_ligand
#    Modification time : Tue Mar 25 06:41:50 2014

@<TRIPOS>MOLECULE
4jye_SAH_1_ligand
   46    48     1     0     0
SMALL
NO_CHARGES


@<TRIPOS>ATOM
      1 N          41.3430    3.1370   21.0590 N.4       1 SAH402      0.0000 
      2 CA         41.0420    2.7140   19.6540 C.3       1 SAH402      0.0000 
      3 CB         41.4650    3.8350   18.6820 C.3       1 SAH402      0.0000 
      4 CG         42.7120    4.6240   19.1020 C.3       1 SAH402      0.0000 
      5 SD         44.2370    3.7120   18.9130 S.3       1 SAH402      0.0000 
      6 C          41.7470    1.4330   19.3310 C.2       1 SAH402      0.0000 
      7 O          42.6070    0.9410   20.1250 O.co2     1 SAH402      0.0000 
      8 OXT        41.4290    0.8490   18.2870 O.co2     1 SAH402      0.0000 
      9 C5'        44.4880    3.7970   17.1520 C.3       1 SAH402      0.0000 
     10 C4'        45.6880    2.9800   16.6250 C.3       1 SAH402      0.0000 
     11 O4'        46.9070    3.6240   16.9950 O.3       1 SAH402      0.0000 
     12 C3'        45.8690    1.5670   17.1480 C.3       1 SAH402      0.0000 
     13 O3'        45.0030    0.6170   16.5080 O.3       1 SAH402      0.0000 
     14 C2'        47.3690    1.3060   16.9920 C.3       1 SAH402      0.0000 
     15 O2'        47.7000    0.4670   15.8640 O.3       1 SAH402      0.0000 
     16 C1'        47.9720    2.7090   16.8280 C.3       1 SAH402      0.0000 
     17 N9         49.0060    2.9440   17.8420 N.pl3     1 SAH402      0.0000 
     18 C8         48.8230    2.9860   19.1940 C.2       1 SAH402      0.0000 
     19 N7         50.0090    3.1410   19.8390 N.2       1 SAH402      0.0000 
     20 C5         50.9650    3.2060   18.8600 C.ar      1 SAH402      0.0000 
     21 C6         52.4170    3.3830   18.8420 C.ar      1 SAH402      0.0000 
     22 N6         53.1020    3.5140   20.0160 N.pl3     1 SAH402      0.0000 
     23 N1         53.0550    3.3540   17.6330 N.ar      1 SAH402      0.0000 
     24 C2         52.3850    3.2590   16.4620 C.ar      1 SAH402      0.0000 
     25 N3         51.0390    3.1100   16.4060 N.ar      1 SAH402      0.0000 
     26 C4         50.3080    3.0600   17.5510 C.ar      1 SAH402      0.0000 
     27 H          39.9737    2.5735   19.5498 H         1 SAH402      0.0000 
     28 H          40.6197    4.5374   18.5664 H         1 SAH402      0.0000 
     29 H          41.6428    3.3886   17.6868 H         1 SAH402      0.0000 
     30 H          42.7117    4.8821   20.1488 H         1 SAH402      0.0000 
     31 H          42.8768    5.5006   18.4965 H         1 SAH402      0.0000 
     32 H          44.5984    4.8582   16.9682 H         1 SAH402      0.0000 
     33 H          43.5443    3.4507   16.7501 H         1 SAH402      0.0000 
     34 H          45.6349    2.9342   15.5384 H         1 SAH402      0.0000 
     35 H          45.6797    1.6217   18.2326 H         1 SAH402      0.0000 
     36 H          47.7341    0.9145   17.9238 H         1 SAH402      0.0000 
     37 H          48.3870    2.7683   15.8421 H         1 SAH402      0.0000 
     38 H          47.9546    2.9140   19.6355 H         1 SAH402      0.0000 
     39 H          52.7299    3.0175   20.8002 H         1 SAH402      0.0000 
     40 H          53.9155    4.0950   19.9883 H         1 SAH402      0.0000 
     41 H          52.9295    3.3024   15.5573 H         1 SAH402      0.0000 
     42 H          40.8508    3.9707   21.3094 H         1 SAH402      0.0000 
     43 H          41.0850    2.4341   21.7218 H         1 SAH402      0.0000 
     44 H          42.3170    3.3208   21.1909 H         1 SAH402      0.0000 
     45 H          45.4335   -0.2719   16.6645 H         1 SAH402      0.0000 
     46 H          47.4295   -0.4554   16.1395 H         1 SAH402      0.0000 
@<TRIPOS>BOND
     1    2    1 1    
     2   42    1 1    
     3   43    1 1    
     4   44    1 1    
     5    3    2 1    
     6    6    2 1    
     7   27    2 1    
     8    4    3 1    
     9   28    3 1    
    10   29    3 1    
    11    5    4 1    
    12   30    4 1    
    13   31    4 1    
    14    9    5 1    
    15    7    6 ar   
    16    8    6 ar   
    17   10    9 1    
    18   32    9 1    
    19   33    9 1    
    20   11   10 1    
    21   12   10 1    
    22   34   10 1    
    23   16   11 1    
    24   13   12 1    
    25   14   12 1    
    26   35   12 1    
    27   45   13 1    
    28   15   14 1    
    29   16   14 1    
    30   36   14 1    
    31   46   15 1    
    32   17   16 1    
    33   37   16 1    
    34   18   17 1    
    35   26   17 1    
    36   19   18 2    
    37   38   18 1    
    38   20   19 1    
    39   21   20 ar   
    40   26   20 ar   
    41   22   21 1    
    42   23   21 ar   
    43   39   22 1    
    44   40   22 1    
    45   24   23 ar   
    46   25   24 ar   
    47   41   24 1    
    48   26   25 ar   
@<TRIPOS>SUBSTRUCTURE
     1 SAH402      1 GROUP   
@<TRIPOS>SET

