#    Name: 1wv4_FMN_2_INTS_M
#    Modification time : Tue Mar 25 09:20:57 2014

@<TRIPOS>MOLECULE
1wv4_FMN_2_INTS_M
   74     0    12     0     0
SMALL
NO_CHARGES


@<TRIPOS>ATOM
      1 N          55.1265   37.4050   48.0715 N.am      2 SEC2        0.0000 
      2 N          54.0400   37.6380   47.5830 N.am     10 SEL2        0.0000 
      3 N          56.2130   37.1720   48.5600 N.am      6 SEP2        0.0000 
      4 O          53.6480   35.3015   46.4280 O.2       1 ALC1        0.0000 
      5 O          52.6200   36.1240   46.5620 O.2       9 ALL1        0.0000 
      6 O          54.6760   34.4790   46.2940 O.2       5 ALP1        0.0000 
      7 N          50.0315   33.8700   46.3790 N.am      2 SEC2        0.0000 
      8 N          51.2320   34.5830   45.6540 N.am     10 SEL2        0.0000 
      9 N          48.8310   33.1570   47.1040 N.am      6 SEP2        0.0000 
     10 CA         48.5500   35.9930   47.6450 C.3       4 GLC5        0.0000 
     11 CA         47.7800   37.3730   46.3280 C.3      12 GLL5        0.0000 
     12 CA         49.3200   34.6130   48.9620 C.3       8 GLP5        0.0000 
     13 CA         42.1485   37.5690   47.1985 C.3       4 GLC5        0.0000 
     14 CA         43.8000   37.3180   46.3380 C.3      12 GLL5        0.0000 
     15 CA         40.4970   37.8200   48.0590 C.3       8 GLP5        0.0000 
     16 CA         44.4415   40.7030   49.6415 C.3       4 GLC5        0.0000 
     17 CA         44.5120   39.9220   47.9440 C.3      12 GLL5        0.0000 
     18 CA         44.3710   41.4840   51.3390 C.3       8 GLP5        0.0000 
     19 CA         44.9105   41.4045   47.2985 C.3       4 GLC5        0.0000 
     20 CA         45.3090   42.8870   46.6530 C.3       8 GLP5        0.0000 
     21 CA         44.0600   38.6655   49.6345 C.3       4 GLC5        0.0000 
     22 CA         43.6080   37.4090   51.3250 C.3       8 GLP5        0.0000 
     23 CA         46.4890   38.1735   49.2010 C.3       4 GLC5        0.0000 
     24 CA         46.9260   39.4050   47.5410 C.3      12 GLL5        0.0000 
     25 CA         46.0520   36.9420   50.8610 C.3       8 GLP5        0.0000 
     26 CA         48.8585   41.5680   47.3170 C.3       4 GLC5        0.0000 
     27 CA         49.9840   40.2850   48.0530 C.3      12 GLL5        0.0000 
     28 CA         47.7330   42.8510   46.5810 C.3       8 GLP5        0.0000 
     29 CA         50.7965   39.2260   51.3425 C.3       4 GLC5        0.0000 
     30 CA         50.2570   40.1120   49.6160 C.3      12 GLL5        0.0000 
     31 CA         51.3360   38.3400   53.0690 C.3       8 GLP5        0.0000 
     32 N          47.8450   40.7810   50.4585 N.am      2 SEC2        0.0000 
     33 N          49.0070   40.1620   50.2390 N.am     10 SEL2        0.0000 
     34 N          46.6830   41.4000   50.6780 N.am      6 SEP2        0.0000 
     35 O          49.0155   38.6505   50.1180 O.2       1 ALC1        0.0000 
     36 O          49.0070   40.1620   50.2390 O.2       9 ALL1        0.0000 
     37 O          49.0240   37.1390   49.9970 O.2       5 ALP1        0.0000 
     38 CA         50.7635   40.1975   51.8730 C.3       4 GLC5        0.0000 
     39 CA         51.2860   41.1180   50.1760 C.3      12 GLL5        0.0000 
     40 CA         50.2410   39.2770   53.5700 C.3       8 GLP5        0.0000 
     41 N          53.9745   39.2165   49.9530 N.am      2 SEC2        0.0000 
     42 N          53.1130   39.6950   49.2840 N.am     10 SEL2        0.0000 
     43 N          54.8360   38.7380   50.6220 N.am      6 SEP2        0.0000 
     44 NZ         54.1470   40.4135   55.3150 N.4       3 LYC4        0.0000 
     45 NZ         53.8000   41.3760   54.2460 N.4      11 LYL4        0.0000 
     46 NZ         53.6530   38.5340   55.9560 N.4       7 LYP4        0.0000 
     47 N          53.3805   40.0660   54.5490 N.am      2 SEC2        0.0000 
     48 N          53.8000   41.3760   54.2460 N.am     10 SEL2        0.0000 
     49 N          52.9610   38.7560   54.8520 N.am      6 SEP2        0.0000 
     50 N          54.1470   40.4135   55.3150 N.am      2 SEC2        0.0000 
     51 N          54.4940   39.4510   56.3840 N.am      6 SEP2        0.0000 
     52 NZ         55.3165   39.7885   51.6845 N.4       3 LYC4        0.0000 
     53 NZ         55.7970   40.8390   52.7470 N.4      11 LYL4        0.0000 
     54 NZ         54.8360   38.7380   50.6220 N.4       7 LYP4        0.0000 
     55 N          56.7930   40.2065   53.5210 N.am      2 SEC2        0.0000 
     56 N          55.7970   40.8390   52.7470 N.am     10 SEL2        0.0000 
     57 N          57.7890   39.5740   54.2950 N.am      6 SEP2        0.0000 
     58 N          55.3165   39.7885   51.6845 N.am      2 SEC2        0.0000 
     59 NZ         53.8660   44.0825   52.5310 N.4       3 LYC4        0.0000 
     60 NZ         55.1190   43.0750   52.6380 N.4      11 LYL4        0.0000 
     61 NZ         52.6100   45.5380   51.1680 N.4       7 LYP4        0.0000 
     62 N          53.8660   44.0825   52.5310 N.am      2 SEC2        0.0000 
     63 N          55.1190   43.0750   52.6380 N.am     10 SEL2        0.0000 
     64 N          52.6130   45.0900   52.4240 N.am      6 SEP2        0.0000 
     65 CA         46.9588   35.3572   45.4495 C.3       4 GLC5        0.0000 
     66 CA         46.3850   36.9880   46.0640 C.3      12 GLL5        0.0000 
     67 CA         46.8350   33.5340   44.7030 C.3       8 GLP5        0.0000 
     68 CA         45.4149   37.1074   48.2934 C.3       4 GLC5        0.0000 
     69 CA         45.2870   37.7690   46.5550 C.3      12 GLL5        0.0000 
     70 CA         45.7720   35.9410   49.7050 C.3       8 GLP5        0.0000 
     71 CA         46.6774   36.9289   48.1725 C.3       4 GLC5        0.0000 
     72 CA         53.8402   39.4910   50.7370 C.3       4 GLC5        0.0000 
     73 CA         52.6520   41.0370   49.5420 C.3      12 GLL5        0.0000 
     74 CA         54.4640   37.5850   51.5030 C.3       8 GLP5        0.0000 
@<TRIPOS>BOND
@<TRIPOS>SUBSTRUCTURE
     1 ALC1        4 GROUP        1 X    ALC  0     ROOT ALC X 1
     2 SEC2        1 GROUP        1 X    SEC  0     **** SEC X 2
     3 LYC4       44 GROUP        1 X    LYC  0     **** LYC X 4
     4 GLC5       10 GROUP        1 X    GLC  0     **** GLC X 6
     5 ALP1        6 GROUP        1 Y    ALP  0     ROOT ALP Y 8
     6 SEP2        3 GROUP        1 Y    SEP  0     **** SEP Y 9
     7 LYP4       46 GROUP        1 Y    LYP  0     **** LYP Y 11
     8 GLP5       12 GROUP        1 Y    GLP  0     **** GLP Y 13
     9 ALL1        5 GROUP        1 Z    ALL  0     ROOT ALL Z 15
    10 SEL2        2 GROUP        1 Z    SEL  0     **** SEL Z 16
    11 LYL4       45 GROUP        1 Z    LYL  0     **** LYL Z 18
    12 GLL5       11 GROUP        1 Z    GLL  0     **** GLL Z 20
@<TRIPOS>SET

