#    Name: 1wv4_FMN_2_ligand
#    Modification time : Tue Mar 25 09:20:57 2014

@<TRIPOS>MOLECULE
1wv4_FMN_2_ligand
   50    52     1     0     0
SMALL
NO_CHARGES


@<TRIPOS>ATOM
      1 N1         51.9190   38.3390   47.3980 N.2       1 FMN1250     0.0000 
      2 C2         52.9030   37.4440   47.1970 C.2       1 FMN1250     0.0000 
      3 O2         54.0400   37.6380   47.5830 O.2       1 FMN1250     0.0000 
      4 N3         52.6200   36.1240   46.5620 N.am      1 FMN1250     0.0000 
      5 C4         51.3300   35.7290   46.1120 C.2       1 FMN1250     0.0000 
      6 O4         51.2320   34.5830   45.6540 O.2       1 FMN1250     0.0000 
      7 C4A        50.2110   36.7430   46.3130 C.2       1 FMN1250     0.0000 
      8 N5         48.8750   36.5070   45.9730 N.2       1 FMN1250     0.0000 
      9 C5A        47.7800   37.3730   46.3280 C.ar      1 FMN1250     0.0000 
     10 C6         46.3850   36.9880   46.0640 C.ar      1 FMN1250     0.0000 
     11 C7         45.2870   37.7690   46.5550 C.ar      1 FMN1250     0.0000 
     12 C7M        43.8000   37.3180   46.3380 C.3       1 FMN1250     0.0000 
     13 C8         45.5720   39.0040   47.3170 C.ar      1 FMN1250     0.0000 
     14 C8M        44.5120   39.9220   47.9440 C.3       1 FMN1250     0.0000 
     15 C9         46.9260   39.4050   47.5410 C.ar      1 FMN1250     0.0000 
     16 C9A        48.0830   38.6530   47.0840 C.ar      1 FMN1250     0.0000 
     17 N10        49.5740   38.9510   47.3380 N.pl3     1 FMN1250     0.0000 
     18 C10        50.6010   38.0780   47.0200 C.2       1 FMN1250     0.0000 
     19 C1'        49.9840   40.2850   48.0530 C.3       1 FMN1250     0.0000 
     20 C2'        50.2570   40.1120   49.6160 C.3       1 FMN1250     0.0000 
     21 O2'        49.0070   40.1620   50.2390 O.3       1 FMN1250     0.0000 
     22 C3'        51.2860   41.1180   50.1760 C.3       1 FMN1250     0.0000 
     23 O3'        50.8920   42.4380   49.9880 O.3       1 FMN1250     0.0000 
     24 C4'        52.6520   41.0370   49.5420 C.3       1 FMN1250     0.0000 
     25 O4'        53.1130   39.6950   49.2840 O.3       1 FMN1250     0.0000 
     26 C5'        53.7810   41.7570   50.4000 C.3       1 FMN1250     0.0000 
     27 O5'        53.4800   41.5190   51.9540 O.3       1 FMN1250     0.0000 
     28 P          54.6160   41.6590   52.9760 P.3       1 FMN1250     0.0000 
     29 O1P        53.8000   41.3760   54.2460 O.co2     1 FMN1250     0.0000 
     30 O2P        55.7970   40.8390   52.7470 O.co2     1 FMN1250     0.0000 
     31 O3P        55.1190   43.0750   52.6380 O.co2     1 FMN1250     0.0000 
     32 H          53.4224   35.4825   46.4561 H         1 FMN1250     0.0000 
     33 H          46.2114   36.1453   45.5188 H         1 FMN1250     0.0000 
     34 H          47.1041   40.2880   48.0623 H         1 FMN1250     0.0000 
     35 H          49.1865   41.0159   47.9292 H         1 FMN1250     0.0000 
     36 H          50.8920   40.6718   47.5932 H         1 FMN1250     0.0000 
     37 H          50.6908   39.0976   49.7075 H         1 FMN1250     0.0000 
     38 H          51.4138   40.9116   51.2454 H         1 FMN1250     0.0000 
     39 H          52.6330   41.6002   48.5862 H         1 FMN1250     0.0000 
     40 H          53.7527   42.8040   50.2038 H         1 FMN1250     0.0000 
     41 H          54.7259   41.3236   50.1656 H         1 FMN1250     0.0000 
     42 H          43.5742   37.2377   45.3671 H         1 FMN1250     0.0000 
     43 H          43.6170   36.4282   46.7561 H         1 FMN1250     0.0000 
     44 H          43.1529   37.9678   46.7367 H         1 FMN1250     0.0000 
     45 H          44.9265   40.7031   48.4110 H         1 FMN1250     0.0000 
     46 H          43.8859   40.2900   47.2566 H         1 FMN1250     0.0000 
     47 H          43.9547   39.4388   48.6193 H         1 FMN1250     0.0000 
     48 H          48.6969   39.2119   50.2734 H         1 FMN1250     0.0000 
     49 H          51.5095   42.7949   49.2871 H         1 FMN1250     0.0000 
     50 H          52.5427   39.3657   48.5315 H         1 FMN1250     0.0000 
@<TRIPOS>BOND
     1    2    1 1    
     2   18    1 2    
     3    3    2 2    
     4    4    2 am   
     5    5    4 am   
     6   32    4 1    
     7    6    5 2    
     8    7    5 1    
     9    8    7 2    
    10   18    7 1    
    11    9    8 1    
    12   10    9 ar   
    13   16    9 ar   
    14   11   10 ar   
    15   33   10 1    
    16   12   11 1    
    17   13   11 ar   
    18   42   12 1    
    19   43   12 1    
    20   44   12 1    
    21   14   13 1    
    22   15   13 ar   
    23   45   14 1    
    24   46   14 1    
    25   47   14 1    
    26   16   15 ar   
    27   34   15 1    
    28   17   16 1    
    29   18   17 1    
    30   19   17 1    
    31   20   19 1    
    32   35   19 1    
    33   36   19 1    
    34   21   20 1    
    35   22   20 1    
    36   37   20 1    
    37   48   21 1    
    38   23   22 1    
    39   24   22 1    
    40   38   22 1    
    41   49   23 1    
    42   25   24 1    
    43   26   24 1    
    44   39   24 1    
    45   50   25 1    
    46   27   26 1    
    47   40   26 1    
    48   41   26 1    
    49   28   27 1    
    50   29   28 ar   
    51   30   28 ar   
    52   31   28 ar   
@<TRIPOS>SUBSTRUCTURE
     1 FMN1250     1 GROUP   
@<TRIPOS>SET

