#    Name: 3eps_AMP_3_INTS_M
#    Modification time : Tue Mar 25 02:17:19 2014

@<TRIPOS>MOLECULE
3eps_AMP_3_INTS_M
   38     0    12     0     0
SMALL
NO_CHARGES


@<TRIPOS>ATOM
      1 NZ         38.8480   -1.7115   60.0070 N.4       3 LYC4        0.0000 
      2 NZ         37.8640   -2.2090   61.4760 N.4      11 LYL4        0.0000 
      3 NZ         39.8320   -1.2140   58.5380 N.4       7 LYP4        0.0000 
      4 N          38.6410   -2.0655   62.6235 N.am      2 SEC2        0.0000 
      5 N          37.8640   -2.2090   61.4760 N.am     10 SEL2        0.0000 
      6 N          39.4180   -1.9220   63.7710 N.am      6 SEP2        0.0000 
      7 NZ         38.5165   -1.1960   58.9130 N.4       3 LYC4        0.0000 
      8 NZ         37.2010   -1.1780   59.2880 N.4      11 LYL4        0.0000 
      9 NZ         36.1430    0.2575   59.1025 N.4       3 LYC4        0.0000 
     10 NZ         35.0850    1.6930   58.9170 N.4       7 LYP4        0.0000 
     11 N          38.5165   -1.1960   58.9130 N.am      2 SEC2        0.0000 
     12 N          37.2010   -1.1780   59.2880 N.am     10 SEL2        0.0000 
     13 N          39.8320   -1.2140   58.5380 N.am      6 SEP2        0.0000 
     14 CA         37.2855   -1.7210   63.7965 C.3       4 GLC5        0.0000 
     15 CA         36.7710    0.0620   62.8920 C.3      12 GLL5        0.0000 
     16 CA         37.8000   -3.5040   64.7010 C.3       8 GLP5        0.0000 
     17 N          37.1840    1.5435   67.6055 N.am      2 SEC2        0.0000 
     18 N          37.4570    1.6570   66.0000 N.am     10 SEL2        0.0000 
     19 N          36.9110    1.4300   69.2110 N.am      6 SEP2        0.0000 
     20 O          38.1130    2.6480   65.8695 O.2       1 ALC1        0.0000 
     21 O          37.4570    1.6570   66.0000 O.2       9 ALL1        0.0000 
     22 O          38.7690    3.6390   65.7390 O.2       5 ALP1        0.0000 
     23 CA         35.0825    2.7070   61.8250 C.3       4 GLC5        0.0000 
     24 CA         34.7690    2.4720   63.9770 C.3      12 GLL5        0.0000 
     25 CA         35.3960    2.9420   59.6730 C.3       8 GLP5        0.0000 
     26 O          28.7035    0.7070   60.9980 O.2       1 ALC1        0.0000 
     27 O          29.0760    1.4840   62.0020 O.2       9 ALL1        0.0000 
     28 O          28.3310   -0.0700   59.9940 O.2       5 ALP1        0.0000 
     29 O          27.7005    1.3970   61.8275 O.2       1 ALC1        0.0000 
     30 O          26.3250    1.3100   61.6530 O.2       5 ALP1        0.0000 
     31 CA         30.2475    2.1600   65.2680 C.3       4 GLC5        0.0000 
     32 CA         30.3810    3.8160   64.4250 C.3      12 GLL5        0.0000 
     33 CA         30.1140    0.5040   66.1110 C.3       8 GLP5        0.0000 
     34 CA         36.3817    0.4360   66.5592 C.3       4 GLC5        0.0000 
     35 CA         35.0820    1.7690   65.3030 C.3      12 GLL5        0.0000 
     36 CA         36.9810   -0.5780   67.9210 C.3       8 GLP5        0.0000 
     37 CA         30.7964    1.3749   64.6488 C.3       4 GLC5        0.0000 
     38 CA         31.3710    1.8010   62.7580 C.3      12 GLL5        0.0000 
@<TRIPOS>BOND
@<TRIPOS>SUBSTRUCTURE
     1 ALC1       20 GROUP        1 X    ALC  0     ROOT ALC X 1
     2 SEC2        4 GROUP        1 X    SEC  0     **** SEC X 2
     3 LYC4        1 GROUP        1 X    LYC  0     **** LYC X 4
     4 GLC5       14 GROUP        1 X    GLC  0     **** GLC X 6
     5 ALP1       22 GROUP        1 Y    ALP  0     ROOT ALP Y 8
     6 SEP2        6 GROUP        1 Y    SEP  0     **** SEP Y 9
     7 LYP4        3 GROUP        1 Y    LYP  0     **** LYP Y 11
     8 GLP5       16 GROUP        1 Y    GLP  0     **** GLP Y 13
     9 ALL1       21 GROUP        1 Z    ALL  0     ROOT ALL Z 15
    10 SEL2        5 GROUP        1 Z    SEL  0     **** SEL Z 16
    11 LYL4        2 GROUP        1 Z    LYL  0     **** LYL Z 18
    12 GLL5       15 GROUP        1 Z    GLL  0     **** GLL Z 20
@<TRIPOS>SET

