#    Name: 3eps_AMP_3_ligand
#    Modification time : Tue Mar 25 02:17:19 2014

@<TRIPOS>MOLECULE
3eps_AMP_3_ligand
   35    37     1     0     0
SMALL
NO_CHARGES


@<TRIPOS>ATOM
      1 P          36.8980   -1.2730   60.8600 P.3       1 AMP1604     0.0000 
      2 O1P        37.8640   -2.2090   61.4760 O.co2     1 AMP1604     0.0000 
      3 O2P        35.4000   -1.8250   61.0970 O.co2     1 AMP1604     0.0000 
      4 O3P        37.2010   -1.1780   59.2880 O.co2     1 AMP1604     0.0000 
      5 O5'        37.0730    0.1960   61.5150 O.3       1 AMP1604     0.0000 
      6 C5'        36.7710    0.0620   62.8920 C.3       1 AMP1604     0.0000 
      7 C4'        36.8690    1.3980   63.6430 C.3       1 AMP1604     0.0000 
      8 O4'        35.9240    2.3510   63.0800 O.3       1 AMP1604     0.0000 
      9 C3'        36.4830    1.1310   65.0920 C.3       1 AMP1604     0.0000 
     10 O3'        37.4570    1.6570   66.0000 O.3       1 AMP1604     0.0000 
     11 C2'        35.0820    1.7690   65.3030 C.3       1 AMP1604     0.0000 
     12 O2'        35.0490    2.7040   66.3900 O.3       1 AMP1604     0.0000 
     13 C1'        34.7690    2.4720   63.9770 C.3       1 AMP1604     0.0000 
     14 N9         33.5200    1.9940   63.3370 N.pl3     1 AMP1604     0.0000 
     15 C8         33.3640    0.9980   62.3970 C.2       1 AMP1604     0.0000 
     16 N7         32.1050    0.8880   62.0620 N.2       1 AMP1604     0.0000 
     17 C5         31.3710    1.8010   62.7580 C.ar      1 AMP1604     0.0000 
     18 C6         29.9800    2.1500   62.8040 C.ar      1 AMP1604     0.0000 
     19 N6         29.0760    1.4840   62.0020 N.pl3     1 AMP1604     0.0000 
     20 N1         29.5470    3.1400   63.6340 N.ar      1 AMP1604     0.0000 
     21 C2         30.3810    3.8160   64.4250 C.ar      1 AMP1604     0.0000 
     22 N3         31.8150    3.5090   64.4160 N.ar      1 AMP1604     0.0000 
     23 C4         32.2820    2.5160   63.5920 C.ar      1 AMP1604     0.0000 
     24 H          37.4559   -0.6467   63.3976 H         1 AMP1604     0.0000 
     25 H          35.7470   -0.3281   63.0538 H         1 AMP1604     0.0000 
     26 H          37.8628    1.7470   63.6047 H         1 AMP1604     0.0000 
     27 H          36.3586    0.0601   65.2043 H         1 AMP1604     0.0000 
     28 H          34.3781    0.9678   65.4157 H         1 AMP1604     0.0000 
     29 H          34.6446    3.5506   64.2217 H         1 AMP1604     0.0000 
     30 H          34.1149    0.4702   62.0541 H         1 AMP1604     0.0000 
     31 H          28.1202    1.7646   62.0893 H         1 AMP1604     0.0000 
     32 H          29.4553    0.7786   61.4032 H         1 AMP1604     0.0000 
     33 H          30.0771    4.5629   65.0622 H         1 AMP1604     0.0000 
     34 H          37.8024    2.4848   65.5579 H         1 AMP1604     0.0000 
     35 H          35.9138    2.5690   66.8737 H         1 AMP1604     0.0000 
@<TRIPOS>BOND
     1    2    1 ar   
     2    3    1 ar   
     3    4    1 ar   
     4    5    1 1    
     5    6    5 1    
     6    7    6 1    
     7   24    6 1    
     8   25    6 1    
     9    8    7 1    
    10    9    7 1    
    11   26    7 1    
    12   13    8 1    
    13   10    9 1    
    14   11    9 1    
    15   27    9 1    
    16   34   10 1    
    17   12   11 1    
    18   13   11 1    
    19   28   11 1    
    20   35   12 1    
    21   14   13 1    
    22   29   13 1    
    23   15   14 1    
    24   23   14 1    
    25   16   15 2    
    26   30   15 1    
    27   17   16 1    
    28   18   17 ar   
    29   23   17 ar   
    30   19   18 1    
    31   20   18 ar   
    32   31   19 1    
    33   32   19 1    
    34   21   20 ar   
    35   22   21 ar   
    36   33   21 1    
    37   23   22 ar   
@<TRIPOS>SUBSTRUCTURE
     1 AMP1604     1 GROUP   
@<TRIPOS>SET

