#    Name: 1f76_ORO_3_INTS_M
#    Modification time : Tue Mar 25 00:57:04 2014

@<TRIPOS>MOLECULE
1f76_ORO_3_INTS_M
   11     0     9     0     0
SMALL
NO_CHARGES


@<TRIPOS>ATOM
      1 CA         65.6370   94.5950   13.7260 C.3       3 GLC5        0.0000 
      2 CA         64.6220   94.5280   12.0180 C.3       9 GLL5        0.0000 
      3 CA         66.6520   94.6620   15.4340 C.3       6 GLP5        0.0000 
      4 CA         62.5410   94.8725   12.6330 C.3       3 GLC5        0.0000 
      5 CA         60.4600   95.2170   13.2480 C.3       6 GLP5        0.0000 
      6 NZ         66.2710   92.4150    8.2395 N.4       2 LYC4        0.0000 
      7 NZ         66.1990   92.3290    9.6380 N.4       8 LYL4        0.0000 
      8 NZ         66.3430   92.5010    6.8410 N.4       5 LYP4        0.0000 
      9 N          66.2710   92.4150    8.2395 N.am      1 SEC2        0.0000 
     10 N          66.1990   92.3290    9.6380 N.am      7 SEL2        0.0000 
     11 N          66.3430   92.5010    6.8410 N.am      4 SEP2        0.0000 
@<TRIPOS>BOND
@<TRIPOS>SUBSTRUCTURE
     1 SEC2        9 GROUP        1 X    SEC  0     ROOT SEC X 2
     2 LYC4        6 GROUP        1 X    LYC  0     **** LYC X 4
     3 GLC5        1 GROUP        1 X    GLC  0     **** GLC X 6
     4 SEP2       11 GROUP        1 Y    SEP  0     ROOT SEP Y 9
     5 LYP4        8 GROUP        1 Y    LYP  0     **** LYP Y 11
     6 GLP5        3 GROUP        1 Y    GLP  0     **** GLP Y 13
     7 SEL2       10 GROUP        1 Z    SEL  0     ROOT SEL Z 16
     8 LYL4        7 GROUP        1 Z    LYL  0     **** LYL Z 18
     9 GLL5        2 GROUP        1 Z    GLL  0     **** GLL Z 20
@<TRIPOS>SET

