#    Name: 1f76_ORO_3_ligand
#    Modification time : Tue Mar 25 00:57:04 2014

@<TRIPOS>MOLECULE
1f76_ORO_3_ligand
   14    14     1     0     0
SMALL
NO_CHARGES


@<TRIPOS>ATOM
      1 N1         66.0490   94.9450   10.0900 N.am      1 ORO1540     0.0000 
      2 C2         66.0380   96.3410   10.2670 C.2       1 ORO1540     0.0000 
      3 O2         66.6580   97.1230    9.5360 O.2       1 ORO1540     0.0000 
      4 N3         65.3090   96.7690   11.3850 N.am      1 ORO1540     0.0000 
      5 C4         64.5610   95.9660   12.2730 C.2       1 ORO1540     0.0000 
      6 O4         63.9480   96.4620   13.2200 O.2       1 ORO1540     0.0000 
      7 C5         64.6220   94.5280   12.0180 C.2       1 ORO1540     0.0000 
      8 C6         65.3250   94.0690   10.9300 C.2       1 ORO1540     0.0000 
      9 C7         65.4360   92.5850   10.5850 C.2       1 ORO1540     0.0000 
     10 O71        64.7570   91.7650   11.2570 O.co2     1 ORO1540     0.0000 
     11 O72        66.1990   92.3290    9.6380 O.co2     1 ORO1540     0.0000 
     12 H          66.6093   94.5409    9.3138 H         1 ORO1540     0.0000 
     13 H          65.3182   97.8232   11.5921 H         1 ORO1540     0.0000 
     14 H          64.1382   93.9089   12.6594 H         1 ORO1540     0.0000 
@<TRIPOS>BOND
     1    2    1 1    
     2    8    1 1    
     3   12    1 1    
     4    3    2 2    
     5    4    2 1    
     6    5    4 1    
     7   13    4 1    
     8    6    5 2    
     9    7    5 1    
    10    8    7 2    
    11   14    7 1    
    12    9    8 1    
    13   10    9 ar   
    14   11    9 ar   
@<TRIPOS>SUBSTRUCTURE
     1 ORO1540     1 GROUP   
@<TRIPOS>SET

