#    Name: 3zbx_6XE_1_INTS_M
#    Modification time : Tue Mar 25 02:40:14 2014

@<TRIPOS>MOLECULE
3zbx_6XE_1_INTS_M
   54     0     6     0     0
SMALL
NO_CHARGES


@<TRIPOS>ATOM
      1 CA         24.8090   10.0100   39.8995 C.3       2 GLC5        0.0000 
      2 CA         23.4670    8.6310   40.6000 C.3       6 GLL5        0.0000 
      3 CA         26.1510   11.3890   39.1990 C.3       4 GLP5        0.0000 
      4 N          25.9620    8.9490   40.1960 N.am      1 SEC2        0.0000 
      5 N          24.7620    8.7350   41.0090 N.am      5 SEL2        0.0000 
      6 N          27.1620    9.1630   39.3830 N.am      3 SEP2        0.0000 
      7 CA         26.2665    9.7720   40.8545 C.3       2 GLC5        0.0000 
      8 CA         25.0910    8.9520   42.2930 C.3       6 GLL5        0.0000 
      9 CA         27.4420   10.5920   39.4160 C.3       4 GLP5        0.0000 
     10 CA         22.9155    7.2520   43.9300 C.3       2 GLC5        0.0000 
     11 CA         22.7490    8.9930   42.9500 C.3       6 GLL5        0.0000 
     12 CA         23.0820    5.5110   44.9100 C.3       4 GLP5        0.0000 
     13 CA         24.3225    9.7805   38.5285 C.3       2 GLC5        0.0000 
     14 CA         23.1300    8.3990   39.2300 C.3       6 GLL5        0.0000 
     15 CA         25.5150   11.1620   37.8270 C.3       4 GLP5        0.0000 
     16 CA         22.8125   10.3345   40.0520 C.3       2 GLC5        0.0000 
     17 CA         22.4950   12.2700   40.8740 C.3       4 GLP5        0.0000 
     18 CA         19.9245   12.9325   41.4000 C.3       2 GLC5        0.0000 
     19 CA         18.4250   12.5030   42.8550 C.3       6 GLL5        0.0000 
     20 CA         21.4240   13.3620   39.9450 C.3       4 GLP5        0.0000 
     21 CA         18.9975    9.6710   45.5165 C.3       2 GLC5        0.0000 
     22 CA         19.1810   11.7720   45.0730 C.3       6 GLL5        0.0000 
     23 CA         18.8140    7.5700   45.9600 C.3       4 GLP5        0.0000 
     24 N          17.3035   11.9085   36.5360 N.am      1 SEC2        0.0000 
     25 N          17.8920   11.0670   37.5220 N.am      5 SEL2        0.0000 
     26 N          16.7150   12.7500   35.5500 N.am      3 SEP2        0.0000 
     27 CA         18.7505    7.0845   41.0205 C.3       2 GLC5        0.0000 
     28 CA         19.2990    8.2820   39.3440 C.3       6 GLL5        0.0000 
     29 CA         18.2020    5.8870   42.6970 C.3       4 GLP5        0.0000 
     30 CA         17.3530    8.6175   39.7920 C.3       2 GLC5        0.0000 
     31 CA         15.4070    8.9530   40.2400 C.3       4 GLP5        0.0000 
     32 CA         24.4098    7.1638   43.3640 C.3       2 GLC5        0.0000 
     33 CA         24.0980    9.0890   43.2990 C.3       6 GLL5        0.0000 
     34 CA         24.2250    5.3070   43.9320 C.3       4 GLP5        0.0000 
     35 CA         20.8790    6.7985   41.4237 C.3       2 GLC5        0.0000 
     36 CA         21.0320    8.6430   41.1520 C.3       6 GLL5        0.0000 
     37 CA         20.5280    5.0400   42.2640 C.3       4 GLP5        0.0000 
     38 CA         21.6920   10.3992   40.6753 C.3       2 GLC5        0.0000 
     39 CA         20.7460    8.4140   39.8010 C.3       6 GLL5        0.0000 
     40 CA         19.6885   14.7005   44.0115 C.3       2 GLC5        0.0000 
     41 CA         18.8030   13.0230   45.6090 C.3       6 GLL5        0.0000 
     42 CA         20.8590   15.8820   42.8300 C.3       4 GLP5        0.0000 
     43 CA         16.4443   12.9052   43.6890 C.3       2 GLC5        0.0000 
     44 CA         18.2330   14.0150   44.7770 C.3       6 GLL5        0.0000 
     45 CA         14.7500   11.9210   43.2860 C.3       4 GLP5        0.0000 
     46 CA         19.5468   14.5077   42.9805 C.3       2 GLC5        0.0000 
     47 CA         18.0440   13.7640   43.4070 C.3       6 GLL5        0.0000 
     48 CA         16.7297   11.9632   43.2830 C.3       2 GLC5        0.0000 
     49 CA         19.9796    7.2540   37.6887 C.3       2 GLC5        0.0000 
     50 CA         19.6740    6.1900   36.0430 C.3       4 GLP5        0.0000 
     51 CA         23.1062   10.6010   41.6410 C.3       2 GLC5        0.0000 
     52 CA         22.9271    6.7496   39.7157 C.3       2 GLC5        0.0000 
     53 CA         22.3960    8.7570   41.5800 C.3       6 GLL5        0.0000 
     54 CA         23.7030    5.0490   39.6890 C.3       4 GLP5        0.0000 
@<TRIPOS>BOND
@<TRIPOS>SUBSTRUCTURE
     1 SEC2        4 GROUP        1 X    SEC  0     ROOT SEC X 2
     2 GLC5        1 GROUP        1 X    GLC  0     **** GLC X 6
     3 SEP2        6 GROUP        1 Y    SEP  0     ROOT SEP Y 9
     4 GLP5        3 GROUP        1 Y    GLP  0     **** GLP Y 13
     5 SEL2        5 GROUP        1 Z    SEL  0     ROOT SEL Z 16
     6 GLL5        2 GROUP        1 Z    GLL  0     **** GLL Z 20
@<TRIPOS>SET

