#    Name: 3zbx_6XE_1_ligand
#    Modification time : Tue Mar 25 02:40:14 2014

@<TRIPOS>MOLECULE
3zbx_6XE_1_ligand
   40    44     1     0     0
SMALL
NO_CHARGES


@<TRIPOS>ATOM
      1 C1         22.3960    8.7570   41.5800 C.ar      1 6XE2345     0.0000 
      2 C2         23.4670    8.6310   40.6000 C.ar      1 6XE2345     0.0000 
      3 N3         24.7620    8.7350   41.0090 N.ar      1 6XE2345     0.0000 
      4 C4         25.0910    8.9520   42.2930 C.ar      1 6XE2345     0.0000 
      5 C5         24.0980    9.0890   43.2990 C.ar      1 6XE2345     0.0000 
      6 C6         22.7490    8.9930   42.9500 C.ar      1 6XE2345     0.0000 
      7 C7         20.7460    8.4140   39.8010 C.ar      1 6XE2345     0.0000 
      8 C8         21.7970    8.2940   38.8490 C.ar      1 6XE2345     0.0000 
      9 C9         23.1300    8.3990   39.2300 C.ar      1 6XE2345     0.0000 
     10 C10        21.0320    8.6430   41.1520 C.ar      1 6XE2345     0.0000 
     11 C11        18.2440   12.2020   41.4050 C.2       1 6XE2345     0.0000 
     12 C12        17.6970   13.1550   40.4820 C.2       1 6XE2345     0.0000 
     13 N13        17.5550   12.8500   39.1940 N.2       1 6XE2345     0.0000 
     14 N14        18.6020   11.0130   40.9460 N.2       1 6XE2345     0.0000 
     15 C15        18.8030   13.0230   45.6090 C.ar      1 6XE2345     0.0000 
     16 C16        18.2330   14.0150   44.7770 C.ar      1 6XE2345     0.0000 
     17 C17        18.0440   13.7640   43.4070 C.ar      1 6XE2345     0.0000 
     18 C18        18.4250   12.5030   42.8550 C.ar      1 6XE2345     0.0000 
     19 C19        18.9940   11.5080   43.7050 C.ar      1 6XE2345     0.0000 
     20 C20        19.1810   11.7720   45.0730 C.ar      1 6XE2345     0.0000 
     21 F21        18.9870   13.2710   46.9190 F         1 6XE2345     0.0000 
     22 N22        18.4470   10.6970   39.5860 N.pl3     1 6XE2345     0.0000 
     23 C23        17.9180   11.6350   38.7130 C.2       1 6XE2345     0.0000 
     24 N24        17.8920   11.0670   37.5220 N.2       1 6XE2345     0.0000 
     25 N25        18.3600    9.8670   37.6080 N.2       1 6XE2345     0.0000 
     26 C26        18.7120    9.5930   38.8410 C.2       1 6XE2345     0.0000 
     27 C27        19.2990    8.2820   39.3440 C.3       1 6XE2345     0.0000 
     28 H          26.0865    9.0266   42.5911 H         1 6XE2345     0.0000 
     29 H          24.3780    9.2557   44.2640 H         1 6XE2345     0.0000 
     30 H          22.0154    9.0866   43.6442 H         1 6XE2345     0.0000 
     31 H          21.5506    8.1261   37.8613 H         1 6XE2345     0.0000 
     32 H          23.8825    8.3128   38.5434 H         1 6XE2345     0.0000 
     33 H          20.2866    8.7304   41.8389 H         1 6XE2345     0.0000 
     34 H          17.4234   14.0779   40.8671 H         1 6XE2345     0.0000 
     35 H          17.9591   14.9156   45.1771 H         1 6XE2345     0.0000 
     36 H          17.6367   14.4739   42.8002 H         1 6XE2345     0.0000 
     37 H          19.2626   10.6061   43.3100 H         1 6XE2345     0.0000 
     38 H          19.5902   11.0607   45.6823 H         1 6XE2345     0.0000 
     39 H          18.6904    7.9136   40.1820 H         1 6XE2345     0.0000 
     40 H          19.2430    7.5319   38.5423 H         1 6XE2345     0.0000 
@<TRIPOS>BOND
     1    2    1 ar   
     2    6    1 ar   
     3   10    1 ar   
     4    3    2 ar   
     5    9    2 ar   
     6    4    3 ar   
     7    5    4 ar   
     8   28    4 1    
     9    6    5 ar   
    10   29    5 1    
    11   30    6 1    
    12    8    7 ar   
    13   10    7 ar   
    14   27    7 1    
    15    9    8 ar   
    16   31    8 1    
    17   32    9 1    
    18   33   10 1    
    19   12   11 1    
    20   14   11 2    
    21   18   11 1    
    22   13   12 2    
    23   34   12 1    
    24   23   13 1    
    25   22   14 1    
    26   16   15 ar   
    27   20   15 ar   
    28   21   15 1    
    29   17   16 ar   
    30   35   16 1    
    31   18   17 ar   
    32   36   17 1    
    33   19   18 ar   
    34   20   19 ar   
    35   37   19 1    
    36   38   20 1    
    37   23   22 1    
    38   26   22 1    
    39   24   23 2    
    40   25   24 1    
    41   26   25 2    
    42   27   26 1    
    43   39   27 1    
    44   40   27 1    
@<TRIPOS>SUBSTRUCTURE
     1 6XE2345     1 GROUP   
@<TRIPOS>SET

