#    Name: 4c35_NU3_1_INTS_M
#    Modification time : Tue Mar 25 08:46:14 2014

@<TRIPOS>MOLECULE
4c35_NU3_1_INTS_M
   55     0     9     0     0
SMALL
NO_CHARGES


@<TRIPOS>ATOM
      1 O          14.0875   85.1125   84.3330 O.2       1 ALC1        0.0000 
      2 O          12.6800   84.9970   84.7450 O.2       7 ALL1        0.0000 
      3 O          15.4950   85.2280   83.9210 O.2       4 ALP1        0.0000 
      4 N          13.9065   82.2195   84.7705 N.am      2 SEC2        0.0000 
      5 N          12.5560   82.7450   84.4890 N.am      8 SEL2        0.0000 
      6 N          15.2570   81.6940   85.0520 N.am      5 SEP2        0.0000 
      7 N           8.7100   93.2380   87.1330 N.am      2 SEC2        0.0000 
      8 N           9.1230   92.8140   85.6990 N.am      8 SEL2        0.0000 
      9 N           8.2970   93.6620   88.5670 N.am      5 SEP2        0.0000 
     10 O           8.1175   93.2355   85.0170 O.2       1 ALC1        0.0000 
     11 O           9.1230   92.8140   85.6990 O.2       7 ALL1        0.0000 
     12 O           7.1120   93.6570   84.3350 O.2       4 ALP1        0.0000 
     13 CA          9.8705   81.5610   82.8780 C.3       3 GLC5        0.0000 
     14 CA          9.7520   82.7400   84.4500 C.3       9 GLL5        0.0000 
     15 CA          9.9890   80.3820   81.3060 C.3       6 GLP5        0.0000 
     16 CA          7.9565   81.4450   83.0895 C.3       3 GLC5        0.0000 
     17 CA          8.3660   82.7530   84.5580 C.3       9 GLL5        0.0000 
     18 CA          7.5470   80.1370   81.6210 C.3       6 GLP5        0.0000 
     19 CA         11.6705   90.6780   84.4260 C.3       3 GLC5        0.0000 
     20 CA         10.3060   90.7490   85.7050 C.3       9 GLL5        0.0000 
     21 CA         13.0350   90.6070   83.1470 C.3       6 GLP5        0.0000 
     22 CA         10.5790   89.9795   87.6970 C.3       3 GLC5        0.0000 
     23 CA         10.8520   89.2100   89.6890 C.3       6 GLP5        0.0000 
     24 CA          9.4940   92.6260   83.8895 C.3       3 GLC5        0.0000 
     25 CA          9.1120   91.4470   85.5720 C.3       9 GLL5        0.0000 
     26 CA          9.8760   93.8050   82.2070 C.3       6 GLP5        0.0000 
     27 CA          9.2258   83.9930   82.8642 C.3       3 GLC5        0.0000 
     28 CA         10.4930   83.9140   84.6190 C.3       9 GLL5        0.0000 
     29 CA          8.3290   84.6590   81.1940 C.3       6 GLP5        0.0000 
     30 CA          9.9540   82.1463   86.0970 C.3       3 GLC5        0.0000 
     31 CA         10.8490   81.5460   87.6900 C.3       6 GLP5        0.0000 
     32 CA          8.1792   84.0025   82.9378 C.3       3 GLC5        0.0000 
     33 CA          8.7432   84.8938   83.0460 C.3       3 GLC5        0.0000 
     34 CA          8.4430   85.1070   84.9440 C.3       9 GLL5        0.0000 
     35 CA          9.9669   84.0297   86.5029 C.3       3 GLC5        0.0000 
     36 CA         10.6210   83.2400   88.1660 C.3       6 GLP5        0.0000 
     37 CA         10.5308   89.0222   83.7695 C.3       3 GLC5        0.0000 
     38 CA          9.1430   88.6580   85.3620 C.3       9 GLL5        0.0000 
     39 CA         11.3310   89.0320   82.0580 C.3       6 GLP5        0.0000 
     40 CA         10.0068   88.4523   87.2800 C.3       3 GLC5        0.0000 
     41 CA         10.3180   89.3670   85.6000 C.3       9 GLL5        0.0000 
     42 CA         10.2830   87.8920   89.0790 C.3       6 GLP5        0.0000 
     43 CA         12.0215   90.0730   86.4402 C.3       3 GLC5        0.0000 
     44 CA         13.7310   90.0880   87.2280 C.3       6 GLP5        0.0000 
     45 CA         11.0925   92.3770   85.3268 C.3       3 GLC5        0.0000 
     46 CA         12.4760   93.6560   85.0150 C.3       6 GLP5        0.0000 
     47 CA          8.7120   91.2185   87.3058 C.3       3 GLC5        0.0000 
     48 CA          7.7150   91.3390   88.9730 C.3       6 GLP5        0.0000 
     49 CA          7.2400   90.4470   83.5277 C.3       3 GLC5        0.0000 
     50 CA          7.9300   90.7540   85.3450 C.3       9 GLL5        0.0000 
     51 CA          6.5420   90.8320   81.7570 C.3       6 GLP5        0.0000 
     52 CA          7.8265   90.7005   87.1358 C.3       3 GLC5        0.0000 
     53 CA         11.0466   84.2508   82.9731 C.3       3 GLC5        0.0000 
     54 CA          9.8720   85.1500   84.8520 C.3       9 GLL5        0.0000 
     55 CA         12.0960   84.2630   81.2530 C.3       6 GLP5        0.0000 
@<TRIPOS>BOND
@<TRIPOS>SUBSTRUCTURE
     1 ALC1        1 GROUP        1 X    ALC  0     ROOT ALC X 1
     2 SEC2        4 GROUP        1 X    SEC  0     **** SEC X 2
     3 GLC5       13 GROUP        1 X    GLC  0     **** GLC X 6
     4 ALP1        3 GROUP        1 Y    ALP  0     ROOT ALP Y 8
     5 SEP2        6 GROUP        1 Y    SEP  0     **** SEP Y 9
     6 GLP5       15 GROUP        1 Y    GLP  0     **** GLP Y 13
     7 ALL1        2 GROUP        1 Z    ALL  0     ROOT ALL Z 15
     8 SEL2        5 GROUP        1 Z    SEL  0     **** SEL Z 16
     9 GLL5       14 GROUP        1 Z    GLL  0     **** GLL Z 20
@<TRIPOS>SET

