#    Name: 4c35_NU3_1_ligand
#    Modification time : Tue Mar 25 08:46:14 2014

@<TRIPOS>MOLECULE
4c35_NU3_1_ligand
   30    32     1     0     0
SMALL
NO_CHARGES


@<TRIPOS>ATOM
      1 C          11.9910   83.8410   84.6250 C.2       1 NU31351     0.0000 
      2 N          12.6800   84.9970   84.7450 N.am      1 NU31351     0.0000 
      3 O          12.5560   82.7450   84.4890 O.2       1 NU31351     0.0000 
      4 C1         10.4930   83.9140   84.6190 C.ar      1 NU31351     0.0000 
      5 N1          8.0450   86.4160   85.1780 N.pl3     1 NU31351     0.0000 
      6 O1          9.1230   92.8140   85.6990 O.3       1 NU31351     0.0000 
      7 C2          9.7520   82.7400   84.4500 C.ar      1 NU31351     0.0000 
      8 N2         10.2870   86.4720   85.0170 N.2       1 NU31351     0.0000 
      9 C3          8.3660   82.7530   84.5580 C.ar      1 NU31351     0.0000 
     10 C4          7.6930   83.9390   84.8050 C.ar      1 NU31351     0.0000 
     11 C5          8.4430   85.1070   84.9440 C.ar      1 NU31351     0.0000 
     12 C6          9.1770   87.1870   85.1970 C.2       1 NU31351     0.0000 
     13 C7          9.1430   88.6580   85.3620 C.ar      1 NU31351     0.0000 
     14 C8         10.3180   89.3670   85.6000 C.ar      1 NU31351     0.0000 
     15 C9         10.3060   90.7490   85.7050 C.ar      1 NU31351     0.0000 
     16 C10         9.1120   91.4470   85.5720 C.ar      1 NU31351     0.0000 
     17 C11         7.9300   90.7540   85.3450 C.ar      1 NU31351     0.0000 
     18 C12         7.9460   89.3700   85.2520 C.ar      1 NU31351     0.0000 
     19 C13         9.8720   85.1500   84.8520 C.ar      1 NU31351     0.0000 
     20 H          12.1325   85.8252   84.8649 H         1 NU31351     0.0000 
     21 H          13.6763   84.9218   84.7032 H         1 NU31351     0.0000 
     22 H           7.1538   86.7103   85.3003 H         1 NU31351     0.0000 
     23 H          10.2429   81.8560   84.2429 H         1 NU31351     0.0000 
     24 H           7.8370   81.8732   84.4533 H         1 NU31351     0.0000 
     25 H           6.6802   83.9617   84.8835 H         1 NU31351     0.0000 
     26 H          11.2103   88.8524   85.6993 H         1 NU31351     0.0000 
     27 H          11.1821   91.2604   85.8817 H         1 NU31351     0.0000 
     28 H           7.0440   91.2671   85.2460 H         1 NU31351     0.0000 
     29 H           7.0628   88.8547   85.0993 H         1 NU31351     0.0000 
     30 H           8.7182   93.1558   84.8509 H         1 NU31351     0.0000 
@<TRIPOS>BOND
     1    2    1 am   
     2    3    1 2    
     3    4    1 1    
     4   20    2 1    
     5   21    2 1    
     6    7    4 ar   
     7   19    4 ar   
     8   11    5 1    
     9   12    5 1    
    10   22    5 1    
    11   16    6 1    
    12   30    6 1    
    13    9    7 ar   
    14   23    7 1    
    15   12    8 2    
    16   19    8 1    
    17   10    9 ar   
    18   24    9 1    
    19   11   10 ar   
    20   25   10 1    
    21   19   11 ar   
    22   13   12 1    
    23   14   13 ar   
    24   18   13 ar   
    25   15   14 ar   
    26   26   14 1    
    27   16   15 ar   
    28   27   15 1    
    29   17   16 ar   
    30   18   17 ar   
    31   28   17 1    
    32   29   18 1    
@<TRIPOS>SUBSTRUCTURE
     1 NU31351     1 GROUP   
@<TRIPOS>SET

