#    Name: 2rjp_886_2_INTS_M
#    Modification time : Tue Mar 25 00:01:15 2014

@<TRIPOS>MOLECULE
2rjp_886_2_INTS_M
   78     0     9     0     0
SMALL
NO_CHARGES


@<TRIPOS>ATOM
      1 CA         24.0770   20.8925    8.6385 C.3       3 GLC5        0.0000 
      2 CA         24.5250   21.1010   10.5290 C.3       9 GLL5        0.0000 
      3 CA         23.6290   20.6840    6.7480 C.3       6 GLP5        0.0000 
      4 CA         23.3905   22.5805   10.5925 C.3       3 GLC5        0.0000 
      5 CA         22.2560   24.0600   10.6560 C.3       6 GLP5        0.0000 
      6 CA         22.4925   21.4510   12.4425 C.3       3 GLC5        0.0000 
      7 CA         24.4550   20.6310   12.9690 C.3       9 GLL5        0.0000 
      8 CA         20.5300   22.2710   11.9160 C.3       6 GLP5        0.0000 
      9 Zn         24.7665   16.2835   13.3740 Zn        2 ZIC7        0.0000 
     10 Zn         25.0390   16.9830   12.7870 Zn        8 ZIL7        0.0000 
     11 Zn         24.4940   15.5840   13.9610 Zn        5 ZIP7        0.0000 
     12 Zn         25.0550   16.8010   12.2415 Zn        2 ZIC7        0.0000 
     13 Zn         25.6160   18.0180   10.5220 Zn        8 ZIL7        0.0000 
     14 N          23.8030   17.8090    6.9375 N.am      1 SEC2        0.0000 
     15 N          24.2550   18.0130    8.3420 N.am      7 SEL2        0.0000 
     16 N          23.3510   17.6050    5.5330 N.am      4 SEP2        0.0000 
     17 N          22.6920   17.8055    7.7600 N.am      1 SEC2        0.0000 
     18 N          21.1290   17.5980    7.1780 N.am      4 SEP2        0.0000 
     19 CA         21.9460    8.0755    8.4735 C.3       3 GLC5        0.0000 
     20 CA         23.3430    9.3180    9.3640 C.3       9 GLL5        0.0000 
     21 CA         20.5490    6.8330    7.5830 C.3       6 GLP5        0.0000 
     22 CA         24.9340    5.6705   10.9180 C.3       3 GLC5        0.0000 
     23 CA         24.2070    7.1790   10.4880 C.3       9 GLL5        0.0000 
     24 CA         25.6610    4.1620   11.3480 C.3       6 GLP5        0.0000 
     25 CA         19.0040    3.8010   12.1865 C.3       3 GLC5        0.0000 
     26 CA         20.6550    4.4350   11.0230 C.3       9 GLL5        0.0000 
     27 CA         17.3530    3.1670   13.3500 C.3       6 GLP5        0.0000 
     28 CA         19.2085    5.9450   11.7365 C.3       3 GLC5        0.0000 
     29 CA         17.7620    7.4550   12.4500 C.3       6 GLP5        0.0000 
     30 CA         23.6720    2.9205   10.3570 C.3       3 GLC5        0.0000 
     31 CA         21.8830    3.1670    9.3870 C.3       9 GLL5        0.0000 
     32 CA         25.4610    2.6740   11.3270 C.3       6 GLP5        0.0000 
     33 CA         23.2875    1.2280   12.1010 C.3       3 GLC5        0.0000 
     34 CA         21.5180    0.2680   11.5060 C.3       9 GLL5        0.0000 
     35 CA         25.0570    2.1880   12.6960 C.3       6 GLP5        0.0000 
     36 CA         22.7365   -1.4510   11.8965 C.3       3 GLC5        0.0000 
     37 CA         23.9550   -3.1700   12.2870 C.3       6 GLP5        0.0000 
     38 CA         21.7465   -0.0230   13.3600 C.3       3 GLC5        0.0000 
     39 CA         21.9750   -0.3140   15.2140 C.3       6 GLP5        0.0000 
     40 CA         20.1965    1.3800    7.6910 C.3       3 GLC5        0.0000 
     41 CA         20.6090   -0.0280    9.1390 C.3       9 GLL5        0.0000 
     42 CA         19.7840    2.7880    6.2430 C.3       6 GLP5        0.0000 
     43 CA         27.7435   13.3875    9.4995 C.3       3 GLC5        0.0000 
     44 CA         25.9140   13.4980    9.7640 C.3       9 GLL5        0.0000 
     45 CA         29.4620   12.5920    9.3190 C.3       6 GLP5        0.0000 
     46 CA         23.5705   12.1805   11.1805 C.3       3 GLC5        0.0000 
     47 CA         24.6620   12.9030    9.5170 C.3       9 GLL5        0.0000 
     48 CA         22.5620   12.1840   12.7430 C.3       6 GLP5        0.0000 
     49 CA         23.2020   14.8528    7.0765 C.3       3 GLC5        0.0000 
     50 CA         23.6070   13.7460    9.1090 C.3       9 GLL5        0.0000 
     51 CA         22.6960   15.2710    5.1300 C.3       6 GLP5        0.0000 
     52 CA         21.7945   14.0433    8.3450 C.3       3 GLC5        0.0000 
     53 CA         23.8090   15.1230    8.9370 C.3       9 GLL5        0.0000 
     54 CA         19.8810   13.6520    7.6670 C.3       6 GLP5        0.0000 
     55 CA         23.1500   13.9842   10.9270 C.3       3 GLC5        0.0000 
     56 CA         22.5920   13.5340   12.8310 C.3       6 GLP5        0.0000 
     57 CA         21.5890   10.6280    8.8273 C.3       3 GLC5        0.0000 
     58 CA         23.4530   10.7000    9.1390 C.3       9 GLL5        0.0000 
     59 CA         19.7800   11.2470    8.4030 C.3       6 GLP5        0.0000 
     60 CA         22.6540   10.2873   11.0209 C.3       3 GLC5        0.0000 
     61 CA         21.4710   11.2420   12.3250 C.3       6 GLP5        0.0000 
     62 CA         24.3575    9.0482    7.7719 C.3       3 GLC5        0.0000 
     63 CA         24.2760    8.6560   10.1820 C.3       9 GLL5        0.0000 
     64 CA         24.8780    8.7640    5.8270 C.3       6 GLP5        0.0000 
     65 CA         23.9653   11.1335   11.6933 C.3       3 GLC5        0.0000 
     66 CA         25.3150    9.3970   10.7590 C.3       9 GLL5        0.0000 
     67 CA         26.4125   10.1067    8.8266 C.3       3 GLC5        0.0000 
     68 CA         24.4960   11.4510    9.7190 C.3       9 GLL5        0.0000 
     69 CA         27.6880    9.9600    7.2120 C.3       6 GLP5        0.0000 
     70 CA         24.3671    7.4249   12.3176 C.3       3 GLC5        0.0000 
     71 CA         24.2330    6.7470   14.1560 C.3       6 GLP5        0.0000 
     72 CA         21.6928    5.0510   12.6552 C.3       3 GLC5        0.0000 
     73 CA         21.4980    5.5490   10.8120 C.3       9 GLL5        0.0000 
     74 CA         22.3090    5.1100   14.3930 C.3       6 GLP5        0.0000 
     75 CA         20.9444    5.9030    9.1354 C.3       3 GLC5        0.0000 
     76 CA         21.4262    5.2773    8.4337 C.3       3 GLC5        0.0000 
     77 CA         22.7240    4.2760    9.1820 C.3       9 GLL5        0.0000 
     78 CA         24.0176    4.5277   10.5576 C.3       3 GLC5        0.0000 
@<TRIPOS>BOND
@<TRIPOS>SUBSTRUCTURE
     1 SEC2       14 GROUP        1 X    SEC  0     ROOT SEC X 2
     2 ZIC7        9 GROUP        1 X    ZIC  0     **** ZIC X 5
     3 GLC5        1 GROUP        1 X    GLC  0     **** GLC X 6
     4 SEP2       16 GROUP        1 Y    SEP  0     ROOT SEP Y 9
     5 ZIP7       11 GROUP        1 Y    ZIP  0     **** ZIP Y 12
     6 GLP5        3 GROUP        1 Y    GLP  0     **** GLP Y 13
     7 SEL2       15 GROUP        1 Z    SEL  0     ROOT SEL Z 16
     8 ZIL7       10 GROUP        1 Z    ZIL  0     **** ZIL Z 19
     9 GLL5        2 GROUP        1 Z    GLL  0     **** GLL Z 20
@<TRIPOS>SET

