#    Name: 2rjp_886_2_ligand
#    Modification time : Tue Mar 25 00:01:15 2014

@<TRIPOS>MOLECULE
2rjp_886_2_ligand
   66    68     1     0     0
SMALL
NO_CHARGES


@<TRIPOS>ATOM
      1 C1         24.5250   21.1010   10.5290 C.3       1 886510      0.0000 
      2 C2         24.9500   20.1020   11.6150 C.3       1 886510      0.0000 
      3 C3         24.4550   20.6310   12.9690 C.3       1 886510      0.0000 
      4 C4         24.4480   18.6940   11.2110 C.3       1 886510      0.0000 
      5 C5         24.0890   17.7290   12.3990 C.2       1 886510      0.0000 
      6 O1         25.0390   16.9830   12.7870 O.co2     1 886510      0.0000 
      7 O2         22.9090   17.7920   12.8190 O.co2     1 886510      0.0000 
      8 N1         25.6160   18.0180   10.5220 N.pl3     1 886510      0.0000 
      9 S1         25.3980   17.4000    8.9790 S.o2      1 886510      0.0000 
     10 O3         26.7000   17.4900    8.3480 O.2       1 886510      0.0000 
     11 O4         24.2550   18.0130    8.3420 O.2       1 886510      0.0000 
     12 C6         25.0760   15.6730    9.1850 C.ar      1 886510      0.0000 
     13 C7         26.1360   14.8680    9.5960 C.ar      1 886510      0.0000 
     14 C8         25.9140   13.4980    9.7640 C.ar      1 886510      0.0000 
     15 C9         24.6620   12.9030    9.5170 C.ar      1 886510      0.0000 
     16 C10        23.6070   13.7460    9.1090 C.ar      1 886510      0.0000 
     17 C11        23.8090   15.1230    8.9370 C.ar      1 886510      0.0000 
     18 C12        24.4960   11.4510    9.7190 C.ar      1 886510      0.0000 
     19 C13        23.4530   10.7000    9.1390 C.ar      1 886510      0.0000 
     20 C14        23.3430    9.3180    9.3640 C.ar      1 886510      0.0000 
     21 C15        24.2760    8.6560   10.1820 C.ar      1 886510      0.0000 
     22 C16        25.3150    9.3970   10.7590 C.ar      1 886510      0.0000 
     23 C17        25.4220   10.7690   10.5280 C.ar      1 886510      0.0000 
     24 C18        24.2070    7.1790   10.4880 C.3       1 886510      0.0000 
     25 O5         23.4410    6.4570    9.5320 O.3       1 886510      0.0000 
     26 C19        22.5510    5.4730    9.8930 C.ar      1 886510      0.0000 
     27 C20        21.4980    5.5490   10.8120 C.ar      1 886510      0.0000 
     28 C21        20.6550    4.4350   11.0230 C.ar      1 886510      0.0000 
     29 C22        20.8380    3.2240   10.3250 C.ar      1 886510      0.0000 
     30 C23        21.8830    3.1670    9.3870 C.ar      1 886510      0.0000 
     31 C24        22.7240    4.2760    9.1820 C.ar      1 886510      0.0000 
     32 C25        19.9330    2.0280   10.5270 C.2       1 886510      0.0000 
     33 O6         18.7250    2.2560   10.4550 O.2       1 886510      0.0000 
     34 C26        20.3810    0.5580   10.5340 C.3       1 886510      0.0000 
     35 C27        21.5180    0.2680   11.5060 C.3       1 886510      0.0000 
     36 C28        20.6090   -0.0280    9.1390 C.3       1 886510      0.0000 
     37 H          26.0398   20.0912   11.6206 H         1 886510      0.0000 
     38 H          23.6453   18.7529   10.5421 H         1 886510      0.0000 
     39 H          26.4852   17.9110   10.8988 H         1 886510      0.0000 
     40 H          27.0556   15.2675    9.7713 H         1 886510      0.0000 
     41 H          26.6985   12.8934   10.0825 H         1 886510      0.0000 
     42 H          22.6762   13.3407    8.9359 H         1 886510      0.0000 
     43 H          23.0397   15.7217    8.6334 H         1 886510      0.0000 
     44 H          22.7615   11.1750    8.5408 H         1 886510      0.0000 
     45 H          22.5794    8.7886    8.9303 H         1 886510      0.0000 
     46 H          26.0051    8.9230   11.3588 H         1 886510      0.0000 
     47 H          26.1984   11.3004   10.9596 H         1 886510      0.0000 
     48 H          23.7877    7.0639   11.5102 H         1 886510      0.0000 
     49 H          25.2480    6.7953   10.5430 H         1 886510      0.0000 
     50 H          21.3330    6.4138   11.3369 H         1 886510      0.0000 
     51 H          19.8841    4.5113   11.7075 H         1 886510      0.0000 
     52 H          22.0348    2.3070    8.8452 H         1 886510      0.0000 
     53 H          23.4895    4.2053    8.4885 H         1 886510      0.0000 
     54 H          19.4768   -0.0217   10.9530 H         1 886510      0.0000 
     55 H          24.9112   22.0095   10.6885 H         1 886510      0.0000 
     56 H          24.8240   20.8109    9.6199 H         1 886510      0.0000 
     57 H          23.5314   21.2074   10.4906 H         1 886510      0.0000 
     58 H          24.7017   20.0183   13.7198 H         1 886510      0.0000 
     59 H          24.8440   21.5272   13.1823 H         1 886510      0.0000 
     60 H          23.4602   20.7313   12.9873 H         1 886510      0.0000 
     61 H          22.3348    0.8040   11.2926 H         1 886510      0.0000 
     62 H          21.2644    0.4831   12.4491 H         1 886510      0.0000 
     63 H          21.7862   -0.6952   11.4871 H         1 886510      0.0000 
     64 H          21.3165    0.4703    8.6379 H         1 886510      0.0000 
     65 H          20.8979   -0.9845    9.1806 H         1 886510      0.0000 
     66 H          19.7786    0.0034    8.5827 H         1 886510      0.0000 
@<TRIPOS>BOND
     1    2    1 1    
     2   55    1 1    
     3   56    1 1    
     4   57    1 1    
     5    3    2 1    
     6    4    2 1    
     7   37    2 1    
     8   58    3 1    
     9   59    3 1    
    10   60    3 1    
    11    5    4 1    
    12    8    4 1    
    13   38    4 1    
    14    6    5 ar   
    15    7    5 ar   
    16    9    8 1    
    17   39    8 1    
    18   10    9 2    
    19   11    9 2    
    20   12    9 1    
    21   13   12 ar   
    22   17   12 ar   
    23   14   13 ar   
    24   40   13 1    
    25   15   14 ar   
    26   41   14 1    
    27   16   15 ar   
    28   18   15 1    
    29   17   16 ar   
    30   42   16 1    
    31   43   17 1    
    32   19   18 ar   
    33   23   18 ar   
    34   20   19 ar   
    35   44   19 1    
    36   21   20 ar   
    37   45   20 1    
    38   22   21 ar   
    39   24   21 1    
    40   23   22 ar   
    41   46   22 1    
    42   47   23 1    
    43   25   24 1    
    44   48   24 1    
    45   49   24 1    
    46   26   25 1    
    47   27   26 ar   
    48   31   26 ar   
    49   28   27 ar   
    50   50   27 1    
    51   29   28 ar   
    52   51   28 1    
    53   30   29 ar   
    54   32   29 1    
    55   31   30 ar   
    56   52   30 1    
    57   53   31 1    
    58   33   32 2    
    59   34   32 1    
    60   35   34 1    
    61   36   34 1    
    62   54   34 1    
    63   61   35 1    
    64   62   35 1    
    65   63   35 1    
    66   64   36 1    
    67   65   36 1    
    68   66   36 1    
@<TRIPOS>SUBSTRUCTURE
     1 886510      1 GROUP   
@<TRIPOS>SET

