#    Name: 1tkz_H16_1_INTS_M
#    Modification time : Tue Mar 25 05:28:18 2014

@<TRIPOS>MOLECULE
1tkz_H16_1_INTS_M
   67     0     6     0     0
SMALL
NO_CHARGES


@<TRIPOS>ATOM
      1 CA          2.4415  -34.8075   21.4375 C.3       2 GLC5        0.0000 
      2 CA          2.5250  -36.1120   23.0990 C.3       6 GLL5        0.0000 
      3 CA          2.3580  -33.5030   19.7760 C.3       4 GLP5        0.0000 
      4 CA          5.4850  -37.2630   23.9685 C.3       2 GLC5        0.0000 
      5 CA          4.0300  -36.1670   23.4990 C.3       6 GLL5        0.0000 
      6 CA          6.9400  -38.3590   24.4380 C.3       4 GLP5        0.0000 
      7 CA          6.0715  -34.1460   23.5935 C.3       2 GLC5        0.0000 
      8 CA          4.4440  -34.9640   24.3630 C.3       6 GLL5        0.0000 
      9 CA          7.6990  -33.3280   22.8240 C.3       4 GLP5        0.0000 
     10 CA          5.1135  -33.2550   25.5290 C.3       2 GLC5        0.0000 
     11 CA          5.7830  -31.5460   26.6950 C.3       4 GLP5        0.0000 
     12 CA          2.6935  -36.2130   26.9390 C.3       2 GLC5        0.0000 
     13 CA          3.6640  -34.9480   25.6650 C.3       6 GLL5        0.0000 
     14 CA          1.7230  -37.4780   28.2130 C.3       4 GLP5        0.0000 
     15 CA          4.1475  -33.3600   26.5585 C.3       2 GLC5        0.0000 
     16 CA          4.6310  -31.7720   27.4520 C.3       4 GLP5        0.0000 
     17 CA          1.4785  -36.2025   26.3055 C.3       2 GLC5        0.0000 
     18 CA          2.1580  -34.7830   25.4080 C.3       6 GLL5        0.0000 
     19 CA          0.7990  -37.6220   27.2030 C.3       4 GLP5        0.0000 
     20 CA          2.7615  -33.0350   26.2355 C.3       2 GLC5        0.0000 
     21 CA          3.3650  -31.2870   27.0630 C.3       4 GLP5        0.0000 
     22 O           0.8555  -36.8830   16.6075 O.2       1 ALC1        0.0000 
     23 O           1.3350  -37.0170   17.8490 O.2       5 ALL1        0.0000 
     24 O           0.3760  -36.7490   15.3660 O.2       3 ALP1        0.0000 
     25 CA          2.1245  -39.1285   23.8240 C.3       2 GLC5        0.0000 
     26 CA          2.0220  -37.7240   22.4120 C.3       6 GLL5        0.0000 
     27 CA          2.2270  -40.5330   25.2360 C.3       4 GLP5        0.0000 
     28 CA         -4.6220  -37.0000   22.5365 C.3       2 GLC5        0.0000 
     29 CA         -2.9710  -35.7450   21.7040 C.3       6 GLL5        0.0000 
     30 CA         -6.2730  -38.2550   23.3690 C.3       4 GLP5        0.0000 
     31 CA         -2.9460  -36.0270   23.5300 C.3       2 GLC5        0.0000 
     32 CA         -2.9210  -36.3090   25.3560 C.3       4 GLP5        0.0000 
     33 CA         -2.7295  -34.1550   22.5960 C.3       2 GLC5        0.0000 
     34 CA         -2.4880  -32.5650   23.4880 C.3       4 GLP5        0.0000 
     35 CA         -4.6100  -34.5430   21.2220 C.3       2 GLC5        0.0000 
     36 CA         -6.2490  -33.3410   20.7400 C.3       4 GLP5        0.0000 
     37 CA         -4.1765  -36.0500   20.1205 C.3       2 GLC5        0.0000 
     38 CA         -5.3820  -36.3550   18.5370 C.3       4 GLP5        0.0000 
     39 CA          4.6725  -42.3155   21.8090 C.3       2 GLC5        0.0000 
     40 CA          3.5340  -40.7230   21.4070 C.3       6 GLL5        0.0000 
     41 CA          5.8110  -43.9080   22.2110 C.3       4 GLP5        0.0000 
     42 CA          2.8805  -40.6280   23.3215 C.3       2 GLC5        0.0000 
     43 CA          1.5038  -37.2985   24.9973 C.3       2 GLC5        0.0000 
     44 CA          0.9550  -38.6320   26.2640 C.3       4 GLP5        0.0000 
     45 CA          5.6415  -35.8715   25.6395 C.3       2 GLC5        0.0000 
     46 CA          7.2290  -36.7870   26.2650 C.3       4 GLP5        0.0000 
     47 CA          0.7965  -33.7058   24.7280 C.3       2 GLC5        0.0000 
     48 CA         -0.2760  -32.1110   24.5710 C.3       4 GLP5        0.0000 
     49 CA          4.0088  -36.2387   19.6440 C.3       2 GLC5        0.0000 
     50 CA          2.7660  -37.7600   19.7400 C.3       6 GLL5        0.0000 
     51 CA          4.6270  -34.3640   19.2950 C.3       4 GLP5        0.0000 
     52 CA          1.0413  -34.9813   19.1540 C.3       2 GLC5        0.0000 
     53 CA          0.3410  -36.6970   18.7630 C.3       6 GLL5        0.0000 
     54 CA         -0.3902  -38.2497   17.4835 C.3       2 GLC5        0.0000 
     55 CA         -0.5050  -40.0400   16.4350 C.3       4 GLP5        0.0000 
     56 CA         -1.2323  -38.4497   20.5482 C.3       2 GLC5        0.0000 
     57 CA          0.5560  -36.8940   20.1720 C.3       6 GLL5        0.0000 
     58 CA         -2.4970  -40.1580   20.4730 C.3       4 GLP5        0.0000 
     59 CA          1.3458  -35.1874   20.2569 C.3       2 GLC5        0.0000 
     60 CA         -0.4910  -36.5890   21.0750 C.3       6 GLL5        0.0000 
     61 CA         -2.1625  -38.0888   20.1955 C.3       2 GLC5        0.0000 
     62 CA         -1.7240  -36.1110   20.6050 C.3       6 GLL5        0.0000 
     63 CA         -3.3710  -36.2379   18.8232 C.3       2 GLC5        0.0000 
     64 CA          3.5448  -41.5538   19.3903 C.3       2 GLC5        0.0000 
     65 CA          3.3830  -42.7460   18.0360 C.3       4 GLP5        0.0000 
     66 CA          4.9967  -39.7776   22.3103 C.3       2 GLC5        0.0000 
     67 CA          6.2530  -39.5770   23.8350 C.3       4 GLP5        0.0000 
@<TRIPOS>BOND
@<TRIPOS>SUBSTRUCTURE
     1 ALC1       22 GROUP        1 X    ALC  0     ROOT ALC X 1
     2 GLC5        1 GROUP        1 X    GLC  0     **** GLC X 6
     3 ALP1       24 GROUP        1 Y    ALP  0     ROOT ALP Y 8
     4 GLP5        3 GROUP        1 Y    GLP  0     **** GLP Y 13
     5 ALL1       23 GROUP        1 Z    ALL  0     ROOT ALL Z 15
     6 GLL5        2 GROUP        1 Z    GLL  0     **** GLL Z 20
@<TRIPOS>SET

