#    Name: 1tkz_H16_1_ligand
#    Modification time : Tue Mar 25 05:28:18 2014

@<TRIPOS>MOLECULE
1tkz_H16_1_ligand
   44    46     1     0     0
SMALL
NO_CHARGES


@<TRIPOS>ATOM
      1 CA          2.5250  -36.1120   23.0990 C.3       1 H16999      0.0000 
      2 CB          4.0300  -36.1670   23.4990 C.3       1 H16999      0.0000 
      3 CC          4.4440  -34.9640   24.3630 C.3       1 H16999      0.0000 
      4 CD          3.6640  -34.9480   25.6650 C.3       1 H16999      0.0000 
      5 CE          2.1580  -34.7830   25.4080 C.3       1 H16999      0.0000 
      6 CF          1.5800  -35.8180   24.3620 C.3       1 H16999      0.0000 
      7 N1          1.3350  -37.0170   17.8490 N.am      1 H16999      0.0000 
      8 C6          2.5640  -37.5470   18.2750 C.2       1 H16999      0.0000 
      9 O2          3.4380  -37.8530   17.4410 O.2       1 H16999      0.0000 
     10 C5          2.7660  -37.7600   19.7400 C.2       1 H16999      0.0000 
     11 C4          1.7600  -37.4150   20.6290 C.2       1 H16999      0.0000 
     12 S4          2.0220  -37.7240   22.4120 S.3       1 H16999      0.0000 
     13 C2          0.3410  -36.6970   18.7630 C.ar      1 H16999      0.0000 
     14 C3          0.5560  -36.8940   20.1720 C.ar      1 H16999      0.0000 
     15 C7         -0.4910  -36.5890   21.0750 C.ar      1 H16999      0.0000 
     16 C8         -1.7240  -36.1110   20.6050 C.ar      1 H16999      0.0000 
     17 C9         -1.9320  -35.9280   19.2310 C.ar      1 H16999      0.0000 
     18 C10        -0.8920  -36.2220   18.3010 C.ar      1 H16999      0.0000 
     19 CL         -2.9710  -35.7450   21.7040 Cl        1 H16999      0.0000 
     20 C11         4.0150  -38.4670   20.2460 C.3       1 H16999      0.0000 
     21 C12         3.8790  -40.0000   20.0820 C.3       1 H16999      0.0000 
     22 C13         3.5340  -40.7230   21.4070 C.3       1 H16999      0.0000 
     23 H           2.3293  -35.4474   22.3270 H         1 H16999      0.0000 
     24 H           4.6305  -36.1828   22.5896 H         1 H16999      0.0000 
     25 H           4.2085  -37.0885   24.0529 H         1 H16999      0.0000 
     26 H           4.2498  -34.0487   23.8083 H         1 H16999      0.0000 
     27 H           5.5088  -35.0323   24.5746 H         1 H16999      0.0000 
     28 H           4.0079  -34.1214   26.2874 H         1 H16999      0.0000 
     29 H           3.8295  -35.8823   26.2022 H         1 H16999      0.0000 
     30 H           1.9580  -33.7764   25.0299 H         1 H16999      0.0000 
     31 H           1.6092  -34.9111   26.3454 H         1 H16999      0.0000 
     32 H           1.3957  -36.7684   24.8717 H         1 H16999      0.0000 
     33 H           0.6240  -35.4419   23.9856 H         1 H16999      0.0000 
     34 H           1.1759  -36.8660   16.8396 H         1 H16999      0.0000 
     35 H          -0.3415  -36.7206   22.0819 H         1 H16999      0.0000 
     36 H          -2.8296  -35.5827   18.8834 H         1 H16999      0.0000 
     37 H          -1.0574  -36.0827   17.3046 H         1 H16999      0.0000 
     38 H           4.1638  -38.2410   21.2983 H         1 H16999      0.0000 
     39 H           4.8807  -38.1316   19.6815 H         1 H16999      0.0000 
     40 H           4.8212  -40.3998   19.6958 H         1 H16999      0.0000 
     41 H           3.0937  -40.2096   19.3498 H         1 H16999      0.0000 
     42 H           3.4512  -41.7115   21.2801 H         1 H16999      0.0000 
     43 H           4.2351  -40.5747   22.1045 H         1 H16999      0.0000 
     44 H           2.6674  -40.4031   21.7899 H         1 H16999      0.0000 
@<TRIPOS>BOND
     1    2    1 1    
     2    6    1 1    
     3   12    1 1    
     4   23    1 1    
     5    3    2 1    
     6   24    2 1    
     7   25    2 1    
     8    4    3 1    
     9   26    3 1    
    10   27    3 1    
    11    5    4 1    
    12   28    4 1    
    13   29    4 1    
    14    6    5 1    
    15   30    5 1    
    16   31    5 1    
    17   32    6 1    
    18   33    6 1    
    19    8    7 am   
    20   13    7 1    
    21   34    7 1    
    22    9    8 2    
    23   10    8 1    
    24   11   10 2    
    25   20   10 1    
    26   12   11 1    
    27   14   11 1    
    28   14   13 ar   
    29   18   13 ar   
    30   15   14 ar   
    31   16   15 ar   
    32   35   15 1    
    33   17   16 ar   
    34   19   16 1    
    35   18   17 ar   
    36   36   17 1    
    37   37   18 1    
    38   21   20 1    
    39   38   20 1    
    40   39   20 1    
    41   22   21 1    
    42   40   21 1    
    43   41   21 1    
    44   42   22 1    
    45   43   22 1    
    46   44   22 1    
@<TRIPOS>SUBSTRUCTURE
     1 H16999      1 GROUP   
@<TRIPOS>SET

