#    Name: 4l33_F70_1_INTS_M
#    Modification time : Mon Apr  7 23:53:28 2014

@<TRIPOS>MOLECULE
4l33_F70_1_INTS_M
   56     0     6     0     0
SMALL
NO_CHARGES


@<TRIPOS>ATOM
      1 N         -44.2785  -12.2875    5.1580 N.am      1 SEC2        0.0000 
      2 N         -43.0750  -12.2890    4.3200 N.am      5 SEL2        0.0000 
      3 N         -45.4820  -12.2860    5.9960 N.am      3 SEP2        0.0000 
      4 CA        -43.1410  -11.6640    6.1270 C.3       2 GLC5        0.0000 
      5 CA        -42.1600  -11.6590    4.3390 C.3       6 GLL5        0.0000 
      6 CA        -44.1220  -11.6690    7.9150 C.3       4 GLP5        0.0000 
      7 CA        -44.1470  -11.4530    3.7695 C.3       2 GLC5        0.0000 
      8 CA        -46.1340  -11.2470    3.2000 C.3       4 GLP5        0.0000 
      9 CA        -41.0940  -11.4760   13.0215 C.3       2 GLC5        0.0000 
     10 CA        -39.2190  -11.6790   12.0460 C.3       6 GLL5        0.0000 
     11 CA        -42.9690  -11.2730   13.9970 C.3       4 GLP5        0.0000 
     12 CA        -38.0390  -12.9070   11.9060 C.3       2 GLC5        0.0000 
     13 CA        -36.8590  -14.1350   11.7660 C.3       4 GLP5        0.0000 
     14 CA        -39.5910  -15.5635   16.3260 C.3       2 GLC5        0.0000 
     15 CA        -41.0620  -14.3430   15.5780 C.3       6 GLL5        0.0000 
     16 CA        -38.1200  -16.7840   17.0740 C.3       4 GLP5        0.0000 
     17 CA        -41.2415  -14.4915   18.1665 C.3       2 GLC5        0.0000 
     18 CA        -40.3130  -13.5750   16.4980 C.3       6 GLL5        0.0000 
     19 CA        -42.1700  -15.4080   19.8350 C.3       4 GLP5        0.0000 
     20 CA        -40.3655  -10.8635   16.9010 C.3       2 GLC5        0.0000 
     21 CA        -39.4670  -12.5480   16.1030 C.3       6 GLL5        0.0000 
     22 CA        -41.2640   -9.1790   17.6990 C.3       4 GLP5        0.0000 
     23 CA        -37.2675  -12.5275   16.2885 C.3       2 GLC5        0.0000 
     24 CA        -35.0680  -12.5070   16.4740 C.3       4 GLP5        0.0000 
     25 N         -36.5405   -9.7500   14.6715 N.am      1 SEC2        0.0000 
     26 N         -37.6550  -10.6450   15.0080 N.am      5 SEL2        0.0000 
     27 N         -35.4260   -8.8550   14.3350 N.am      3 SEP2        0.0000 
     28 N         -37.0295  -10.6660   16.2140 N.am      1 SEC2        0.0000 
     29 N         -36.4040  -10.6870   17.4200 N.am      3 SEP2        0.0000 
     30 CA        -38.2435   -8.8205   13.4630 C.3       2 GLC5        0.0000 
     31 CA        -38.4250  -10.9690   12.9270 C.3       6 GLL5        0.0000 
     32 CA        -38.0620   -6.6720   13.9990 C.3       4 GLP5        0.0000 
     33 CA        -37.1100  -12.0390   12.2250 C.3       2 GLC5        0.0000 
     34 CA        -35.7950  -13.1090   11.5230 C.3       4 GLP5        0.0000 
     35 CA        -40.6990  -13.0585    4.8180 C.3       2 GLC5        0.0000 
     36 CA        -40.9360  -10.8350    4.5170 C.3       6 GLL5        0.0000 
     37 CA        -39.8500  -14.8700    5.2080 C.3       4 GLP5        0.0000 
     38 CA        -39.3828  -13.3445    7.2680 C.3       2 GLC5        0.0000 
     39 CA        -40.1020  -12.0460    8.4140 C.3       6 GLL5        0.0000 
     40 CA        -39.0230  -15.1630    6.4330 C.3       4 GLP5        0.0000 
     41 CA        -37.1240   -8.8673    9.4578 C.3       2 GLC5        0.0000 
     42 CA        -38.5970  -10.2150    8.6120 C.3       6 GLL5        0.0000 
     43 CA        -35.6840   -7.4080    9.6120 C.3       4 GLP5        0.0000 
     44 CA        -37.3450  -12.0305   10.9185 C.3       2 GLC5        0.0000 
     45 CA        -38.5310  -10.4380    9.9950 C.3       6 GLL5        0.0000 
     46 CA        -41.9153  -12.2490    9.1692 C.3       2 GLC5        0.0000 
     47 CA        -40.0510  -12.2760    9.7990 C.3       6 GLL5        0.0000 
     48 CA        -43.7540  -12.3370    9.2320 C.3       4 GLP5        0.0000 
     49 CA        -41.7235  -12.4025   14.0117 C.3       2 GLC5        0.0000 
     50 CA        -40.0480  -13.0180   13.8340 C.3       6 GLL5        0.0000 
     51 CA        -41.8283  -12.6160   15.0175 C.3       2 GLC5        0.0000 
     52 CA        -39.2535  -12.7362   17.9868 C.3       2 GLC5        0.0000 
     53 CA        -38.6170  -12.4110   19.6730 C.3       4 GLP5        0.0000 
     54 CA        -38.9550  -14.3807   17.2258 C.3       2 GLC5        0.0000 
     55 CA        -38.0200  -15.7000   18.1510 C.3       4 GLP5        0.0000 
     56 CA        -41.1773  -11.8432   14.7115 C.3       2 GLC5        0.0000 
@<TRIPOS>BOND
@<TRIPOS>SUBSTRUCTURE
     1 SEC2        1 GROUP        1 X    SEC  0     ROOT SEC X 2
     2 GLC5        4 GROUP        1 X    GLC  0     **** GLC X 6
     3 SEP2        3 GROUP        1 Y    SEP  0     ROOT SEP Y 9
     4 GLP5        6 GROUP        1 Y    GLP  0     **** GLP Y 13
     5 SEL2        2 GROUP        1 Z    SEL  0     ROOT SEL Z 16
     6 GLL5        5 GROUP        1 Z    GLL  0     **** GLL Z 20
@<TRIPOS>SET

