#    Name: 4l33_F70_1_ligand
#    Modification time : Mon Apr  7 23:53:28 2014

@<TRIPOS>MOLECULE
4l33_F70_1_ligand
   34    36     1     0     0
SMALL
NO_CHARGES


@<TRIPOS>ATOM
      1 NAB       -43.0750  -12.2890    4.3200 N.1       1 F701204     0.0000 
      2 CAC       -42.1600  -11.6590    4.3390 C.1       1 F701204     0.0000 
      3 CAD       -40.9360  -10.8350    4.5170 C.3       1 F701204     0.0000 
      4 OAE       -40.4300  -11.3980    5.7380 O.3       1 F701204     0.0000 
      5 CAF       -39.4080  -10.8030    6.3720 C.2       1 F701204     0.0000 
      6 OAG       -38.4830  -10.2640    5.7370 O.2       1 F701204     0.0000 
      7 CAH       -39.3830  -11.0060    7.7920 C.ar      1 F701204     0.0000 
      8 CAK       -38.5970  -10.2150    8.6120 C.ar      1 F701204     0.0000 
      9 CAL       -38.5310  -10.4380    9.9950 C.ar      1 F701204     0.0000 
     10 CAI       -40.1020  -12.0460    8.4140 C.ar      1 F701204     0.0000 
     11 CAJ       -40.0510  -12.2760    9.7990 C.ar      1 F701204     0.0000 
     12 CAM       -39.2590  -11.4660   10.6330 C.ar      1 F701204     0.0000 
     13 CAN       -39.2190  -11.6790   12.0460 C.2       1 F701204     0.0000 
     14 OAO       -39.9430  -12.7250   12.5170 O.3       1 F701204     0.0000 
     15 CAP       -40.0480  -13.0180   13.8340 C.ar      1 F701204     0.0000 
     16 CAQ       -40.9080  -14.0460   14.2190 C.ar      1 F701204     0.0000 
     17 CAR       -41.0620  -14.3430   15.5780 C.ar      1 F701204     0.0000 
     18 CAS       -40.3130  -13.5750   16.4980 C.ar      1 F701204     0.0000 
     19 CAT       -39.4670  -12.5480   16.1030 C.ar      1 F701204     0.0000 
     20 CAU       -39.3040  -12.2790   14.7490 C.ar      1 F701204     0.0000 
     21 CAV       -38.4490  -11.2510   14.2810 C.2       1 F701204     0.0000 
     22 OAW       -37.6550  -10.6450   15.0080 O.2       1 F701204     0.0000 
     23 CAX       -38.4250  -10.9690   12.9270 C.2       1 F701204     0.0000 
     24 H         -41.2056   -9.8147    4.6359 H         1 F701204     0.0000 
     25 H         -40.2731  -10.9985    3.7037 H         1 F701204     0.0000 
     26 H         -38.0428   -9.4399    8.2031 H         1 F701204     0.0000 
     27 H         -37.9238   -9.8250   10.5764 H         1 F701204     0.0000 
     28 H         -40.6929  -12.6665    7.8233 H         1 F701204     0.0000 
     29 H         -40.5981  -13.0444   10.2082 H         1 F701204     0.0000 
     30 H         -41.4232  -14.5801   13.5155 H         1 F701204     0.0000 
     31 H         -41.6778  -15.0707   15.8930 H         1 F701204     0.0000 
     32 H         -40.4071  -13.7974   17.5137 H         1 F701204     0.0000 
     33 H         -38.9660  -11.9919   16.8033 H         1 F701204     0.0000 
     34 H         -37.8066  -10.2193   12.5707 H         1 F701204     0.0000 
@<TRIPOS>BOND
     1    2    1 3    
     2    3    2 1    
     3    4    3 1    
     4   24    3 1    
     5   25    3 1    
     6    5    4 1    
     7    6    5 2    
     8    7    5 1    
     9    8    7 ar   
    10   10    7 ar   
    11    9    8 ar   
    12   26    8 1    
    13   12    9 ar   
    14   27    9 1    
    15   11   10 ar   
    16   28   10 1    
    17   12   11 ar   
    18   29   11 1    
    19   13   12 1    
    20   14   13 1    
    21   23   13 2    
    22   15   14 1    
    23   16   15 ar   
    24   20   15 ar   
    25   17   16 ar   
    26   30   16 1    
    27   18   17 ar   
    28   31   17 1    
    29   19   18 ar   
    30   32   18 1    
    31   20   19 ar   
    32   33   19 1    
    33   21   20 1    
    34   22   21 2    
    35   23   21 1    
    36   34   23 1    
@<TRIPOS>SUBSTRUCTURE
     1 F701204     1 GROUP   
@<TRIPOS>SET

