#    Name: 1NX3_1_CAVITY_N1_6.mol2
#    Modification time : Mon Mar 10 20:30:37 2014

@<TRIPOS>MOLECULE
1NX3_1_CAVITY_N1_6.mol2
   51     0     5     0     0
SMALL
NO_CHARGES


@<TRIPOS>ATOM
      1 CA        -10.6419   15.7242   -8.7944 C.3       4 GLY6        0.0000 
      2 CA        -10.2711   17.7380   -8.2400 C.3       4 GLY6        0.0000 
      3 N          -9.3405   18.8145   -8.7143 N.2       1 ALA2        0.0000 
      4 N          -8.4098   19.8911   -9.1886 N.2       1 ALA2        0.0000 
      5 N          -7.4792   20.9676   -9.6628 N.2       1 ALA2        0.0000 
      6 CZ        -12.2364   17.1226   -8.7489 C.ar      3 PHE5        0.0000 
      7 CZ        -11.3057   18.1992   -9.2232 C.ar      3 PHE5        0.0000 
      8 DU        -10.3751   19.2757   -9.6975 H         5 CUB7        0.0000 
      9 CZ        -13.2710   17.5838   -9.7322 C.ar      3 PHE5        0.0000 
     10 O         -12.3404   18.6604  -10.2065 O.2       1 ALA2        0.0000 
     11 CA         -7.8310   18.8293   -5.7190 C.3       4 GLY6        0.0000 
     12 CA         -6.9004   19.9058   -6.1933 C.3       4 GLY6        0.0000 
     13 CA         -8.8657   19.2905   -6.7023 C.3       4 GLY6        0.0000 
     14 N          -7.9350   20.3670   -7.1766 N.2       1 ALA2        0.0000 
     15 CA        -10.8309   18.6751   -7.2112 C.3       4 GLY6        0.0000 
     16 CA         -9.9003   19.7517   -7.6855 C.3       4 GLY6        0.0000 
     17 N          -8.9697   20.8283   -8.1598 N.2       1 ALA2        0.0000 
     18 CZ        -11.8656   19.1363   -8.1945 C.ar      3 PHE5        0.0000 
     19 DU        -10.9350   20.2129   -8.6688 H         5 CUB7        0.0000 
     20 N         -10.0043   21.2895   -9.1431 N.2       1 ALA2        0.0000 
     21 OD1       -11.9696   20.6741   -9.6520 O.3       2 ASP3        0.0000 
     22 CA         -7.3562   19.3052   -3.7071 C.3       4 GLY6        0.0000 
     23 CA         -9.3215   18.6899   -4.2160 C.3       4 GLY6        0.0000 
     24 CA         -8.3909   19.7664   -4.6903 C.3       4 GLY6        0.0000 
     25 CA         -7.4602   20.8430   -5.1646 C.3       4 GLY6        0.0000 
     26 CA        -10.3561   19.1511   -5.1993 C.3       4 GLY6        0.0000 
     27 CA         -9.4255   20.2277   -5.6736 C.3       4 GLY6        0.0000 
     28 CA         -8.4949   21.3042   -6.1479 C.3       4 GLY6        0.0000 
     29 CZ        -11.3908   19.6123   -6.1825 C.ar      3 PHE5        0.0000 
     30 DU        -10.4602   20.6889   -6.6568 H         5 CUB7        0.0000 
     31 N          -9.5295   21.7654   -7.1311 N.2       1 ALA2        0.0000 
     32 CZ        -11.4948   21.1501   -7.6401 C.ar      3 PHE5        0.0000 
     33 CA        -10.5642   22.2266   -8.1144 C.3       4 GLY6        0.0000 
     34 OD1       -12.5295   21.6113   -8.6233 O.3       2 ASP3        0.0000 
     35 CA         -8.8467   19.1658   -2.2041 C.3       4 GLY6        0.0000 
     36 CZ         -7.9161   20.2424   -2.6784 C.ar      3 PHE5        0.0000 
     37 N         -10.8120   18.5505   -2.7130 N.2       1 ALA2        0.0000 
     38 CA         -9.8813   19.6271   -3.1873 C.3       4 GLY6        0.0000 
     39 CZ         -8.9507   20.7036   -3.6616 C.ar      3 PHE5        0.0000 
     40 CZ         -8.0201   21.7802   -4.1359 C.ar      3 PHE5        0.0000 
     41 CZ        -11.8466   19.0117   -3.6963 C.ar      3 PHE5        0.0000 
     42 CA        -10.9160   20.0883   -4.1706 C.3       4 GLY6        0.0000 
     43 CA         -9.9854   21.1648   -4.6448 C.3       4 GLY6        0.0000 
     44 CA         -9.0547   22.2414   -5.1191 C.3       4 GLY6        0.0000 
     45 CZ        -11.9506   20.5495   -5.1538 C.ar      3 PHE5        0.0000 
     46 CA        -11.0200   21.6260   -5.6281 C.3       4 GLY6        0.0000 
     47 CA        -10.0894   22.7026   -6.1024 C.3       4 GLY6        0.0000 
     48 CZ        -12.9853   21.0107   -6.1370 C.ar      3 PHE5        0.0000 
     49 CA        -12.0547   22.0873   -6.6113 C.3       4 GLY6        0.0000 
     50 CZ        -10.4412   20.5642   -2.1586 C.ar      3 PHE5        0.0000 
     51 CA        -11.4758   21.0254   -3.1418 C.3       4 GLY6        0.0000 
@<TRIPOS>BOND
@<TRIPOS>SUBSTRUCTURE
     1 ALA2        3 GROUP   
     2 ASP3       21 GROUP   
     3 PHE5        6 GROUP   
     4 GLY6        1 GROUP   
     5 CUB7        8 GROUP   
@<TRIPOS>SET

