#    Name: 1nx3_ISA_1_INTS_M
#    Modification time : Mon Mar 24 19:05:38 2014

@<TRIPOS>MOLECULE
1nx3_ISA_1_INTS_M
   33     0     6     0     0
SMALL
NO_CHARGES


@<TRIPOS>ATOM
      1 CA        -11.8430   19.6175   -1.9030 C.3       2 GLC5        0.0000 
      2 CA        -10.0480   19.7090   -2.8190 C.3       6 GLL5        0.0000 
      3 CA        -13.6380   19.5260   -0.9870 C.3       4 GLP5        0.0000 
      4 CA         -8.4925   18.6540   -1.8760 C.3       2 GLC5        0.0000 
      5 CA         -6.9370   17.5990   -0.9330 C.3       4 GLP5        0.0000 
      6 CA         -9.7865   19.8055   -0.6595 C.3       2 GLC5        0.0000 
      7 CA         -9.5250   19.9020    1.5000 C.3       4 GLP5        0.0000 
      8 CA         -8.8025   21.1195   -2.2530 C.3       2 GLC5        0.0000 
      9 CA         -7.5570   22.5300   -1.6870 C.3       4 GLP5        0.0000 
     10 CA         -6.5925   20.9925   -4.6725 C.3       2 GLC5        0.0000 
     11 CA         -8.5470   20.3510   -5.2610 C.3       6 GLL5        0.0000 
     12 CA         -4.6380   21.6340   -4.0840 C.3       4 GLP5        0.0000 
     13 CA        -10.6150   22.4740   -9.8610 C.3       2 GLC5        0.0000 
     14 CA         -9.4760   20.8950   -8.9950 C.3       6 GLL5        0.0000 
     15 CA        -11.7540   24.0530  -10.7270 C.3       4 GLP5        0.0000 
     16 CA        -11.6835   22.2305  -10.6635 C.3       2 GLC5        0.0000 
     17 CA        -11.6130   20.4080  -10.6000 C.3       6 GLL5        0.0000 
     18 N          -7.5045   17.8600   -9.2495 N.am      1 SEC2        0.0000 
     19 N          -8.6060   17.9230  -10.2800 N.am      5 SEL2        0.0000 
     20 N          -6.4030   17.7970   -8.2190 N.am      3 SEP2        0.0000 
     21 CA         -9.9190   18.2950   -4.7150 C.3       2 GLC5        0.0000 
     22 CA         -9.8020   20.1270   -4.7490 C.3       6 GLL5        0.0000 
     23 CA         -9.9130   16.6720   -5.6460 C.3       4 GLP5        0.0000 
     24 CA        -10.8430   21.7150   -3.8370 C.3       2 GLC5        0.0000 
     25 CA        -11.7610   23.5120   -3.8900 C.3       4 GLP5        0.0000 
     26 CA        -11.3385   21.9008   -5.0760 C.3       2 GLC5        0.0000 
     27 CA        -10.9690   20.1620   -5.5850 C.3       6 GLL5        0.0000 
     28 CA         -7.1890   19.0425   -6.4597 C.3       2 GLC5        0.0000 
     29 CA         -5.8940   17.6020   -6.9570 C.3       4 GLP5        0.0000 
     30 CA         -7.9415   22.1822   -6.6454 C.3       2 GLC5        0.0000 
     31 CA         -9.5820   20.6480   -7.5350 C.3       6 GLL5        0.0000 
     32 CA         -6.8500   23.7990   -6.5420 C.3       4 GLP5        0.0000 
     33 CA         -9.6397   18.5739   -6.0382 C.3       2 GLC5        0.0000 
@<TRIPOS>BOND
@<TRIPOS>SUBSTRUCTURE
     1 SEC2       18 GROUP        1 X    SEC  0     ROOT SEC X 2
     2 GLC5        1 GROUP        1 X    GLC  0     **** GLC X 6
     3 SEP2       20 GROUP        1 Y    SEP  0     ROOT SEP Y 9
     4 GLP5        3 GROUP        1 Y    GLP  0     **** GLP Y 13
     5 SEL2       19 GROUP        1 Z    SEL  0     ROOT SEL Z 16
     6 GLL5        2 GROUP        1 Z    GLL  0     **** GLL Z 20
@<TRIPOS>SET

