#    Name: 1nx3_ISA_1_ligand
#    Modification time : Mon Mar 24 19:05:38 2014

@<TRIPOS>MOLECULE
1nx3_ISA_1_ligand
   20    20     1     0     0
SMALL
NO_CHARGES


@<TRIPOS>ATOM
      1 I         -10.0480   19.7090   -2.8190 I         1 ISA267      0.0000 
      2 CZ         -9.8020   20.1270   -4.7490 C.ar      1 ISA267      0.0000 
      3 CE1       -10.9690   20.1620   -5.5850 C.ar      1 ISA267      0.0000 
      4 CD1       -10.8630   20.4170   -6.9390 C.ar      1 ISA267      0.0000 
      5 CE2        -8.5470   20.3510   -5.2610 C.ar      1 ISA267      0.0000 
      6 CD2        -8.4210   20.6150   -6.6640 C.ar      1 ISA267      0.0000 
      7 CG         -9.5820   20.6480   -7.5350 C.ar      1 ISA267      0.0000 
      8 C4         -9.4760   20.8950   -8.9950 C.3       1 ISA267      0.0000 
      9 C3        -10.1170   19.7100   -9.8980 C.3       1 ISA267      0.0000 
     10 S3        -11.6130   20.4080  -10.6000 S.3       1 ISA267      0.0000 
     11 C2         -9.8310   18.2930  -10.2070 C.2       1 ISA267      0.0000 
     12 O3        -10.8290   17.5140  -10.3800 O.co2     1 ISA267      0.0000 
     13 O2         -8.6060   17.9230  -10.2800 O.co2     1 ISA267      0.0000 
     14 H         -11.8844   19.9922   -5.1482 H         1 ISA267      0.0000 
     15 H         -11.6945   20.4456   -7.5396 H         1 ISA267      0.0000 
     16 H          -7.7145   20.3358   -4.6843 H         1 ISA267      0.0000 
     17 H          -7.4982   20.7845   -7.0673 H         1 ISA267      0.0000 
     18 H          -8.4308   20.9866   -9.3120 H         1 ISA267      0.0000 
     19 H          -9.9975   21.8141   -9.2857 H         1 ISA267      0.0000 
     20 H          -9.4687   20.2349  -11.0653 H         1 ISA267      0.0000 
@<TRIPOS>BOND
     1    2    1 1    
     2    3    2 ar   
     3    5    2 ar   
     4    4    3 ar   
     5   14    3 1    
     6    7    4 ar   
     7   15    4 1    
     8    6    5 ar   
     9   16    5 1    
    10    7    6 ar   
    11   17    6 1    
    12    8    7 1    
    13    9    8 1    
    14   18    8 1    
    15   19    8 1    
    16   10    9 1    
    17   11    9 1    
    18   20    9 1    
    19   12   11 ar   
    20   13   11 ar   
@<TRIPOS>SUBSTRUCTURE
     1 ISA267      1 GROUP   
@<TRIPOS>SET

