#    Name: 3zw3_ZW3_1_INTS_M
#    Modification time : Tue Mar 25 04:02:22 2014

@<TRIPOS>MOLECULE
3zw3_ZW3_1_INTS_M
   59     0     9     0     0
SMALL
NO_CHARGES


@<TRIPOS>ATOM
      1 CA         51.5725   15.4175   32.1000 C.3       3 GLC5        0.0000 
      2 CA         51.7910   15.7450   30.3700 C.3       9 GLL5        0.0000 
      3 CA         51.3540   15.0900   33.8300 C.3       6 GLP5        0.0000 
      4 CA         51.2760   13.8635   31.1370 C.3       3 GLC5        0.0000 
      5 CA         50.7610   11.9820   31.9040 C.3       6 GLP5        0.0000 
      6 CA         51.5185   16.4725   28.4055 C.3       3 GLC5        0.0000 
      7 CA         51.2460   17.2000   26.4410 C.3       6 GLP5        0.0000 
      8 O          50.3005   13.9940   29.1230 O.2       1 ALC1        0.0000 
      9 O          49.6070   14.7580   30.0380 O.2       7 ALL1        0.0000 
     10 O          50.9940   13.2300   28.2080 O.2       4 ALP1        0.0000 
     11 CA         49.5280   13.2110   31.0050 C.3       3 GLC5        0.0000 
     12 CA         48.2950   14.4400   30.1060 C.3       9 GLL5        0.0000 
     13 CA         49.1320   12.7910   28.8395 C.3       3 GLC5        0.0000 
     14 CA         49.9690   11.1420   27.5730 C.3       6 GLP5        0.0000 
     15 CA         49.2205   15.2925   28.2780 C.3       3 GLC5        0.0000 
     16 CA         50.1460   16.1450   26.4500 C.3       6 GLP5        0.0000 
     17 CA         46.7940   13.8655   32.6585 C.3       3 GLC5        0.0000 
     18 CA         47.3380   14.9630   30.8760 C.3       9 GLL5        0.0000 
     19 CA         46.2500   12.7680   34.4410 C.3       6 GLP5        0.0000 
     20 CA         45.4105   15.7195   29.7515 C.3       3 GLC5        0.0000 
     21 CA         44.8960   14.3720   31.1780 C.3       9 GLL5        0.0000 
     22 CA         45.9250   17.0670   28.3250 C.3       6 GLP5        0.0000 
     23 CA         43.6210   15.8090   30.4415 C.3       3 GLC5        0.0000 
     24 CA         42.3460   17.2460   29.7050 C.3       6 GLP5        0.0000 
     25 CA         41.8200   12.2030   29.5760 C.3       3 GLC5        0.0000 
     26 CA         42.4910   13.4430   31.1970 C.3       9 GLL5        0.0000 
     27 CA         41.1490   10.9630   27.9550 C.3       6 GLP5        0.0000 
     28 CA         41.8710   14.4105   29.7675 C.3       3 GLC5        0.0000 
     29 CA         41.2510   15.3780   28.3380 C.3       6 GLP5        0.0000 
     30 CA         41.6065   12.2590   33.3930 C.3       3 GLC5        0.0000 
     31 CA         41.9730   14.0860   32.3410 C.3       9 GLL5        0.0000 
     32 CA         41.2400   10.4320   34.4450 C.3       6 GLP5        0.0000 
     33 CA         44.4755   13.9475   34.0385 C.3       3 GLC5        0.0000 
     34 CA         42.7010   15.1270   33.6360 C.3       9 GLL5        0.0000 
     35 N          38.9855   13.5785   33.6955 N.am      2 SEC2        0.0000 
     36 N          39.7490   13.4260   32.1900 N.am      8 SEL2        0.0000 
     37 N          38.2220   13.7310   35.2010 N.am      5 SEP2        0.0000 
     38 CA         46.6610   11.6435   27.7720 C.3       3 GLC5        0.0000 
     39 CA         45.4840   12.4910   29.2900 C.3       9 GLL5        0.0000 
     40 CA         47.8380   10.7960   26.2540 C.3       6 GLP5        0.0000 
     41 CA         47.7475   11.8355   30.4620 C.3       3 GLC5        0.0000 
     42 CA         46.4950   13.3500   29.7080 C.3       9 GLL5        0.0000 
     43 CA         49.0000   10.3210   31.2160 C.3       6 GLP5        0.0000 
     44 CA         47.7720   12.5185   28.0885 C.3       3 GLC5        0.0000 
     45 CA         49.0490   11.6870   26.4690 C.3       6 GLP5        0.0000 
     46 CA         46.2100   15.2085   29.0165 C.3       3 GLC5        0.0000 
     47 O          49.3945   13.3470   28.7925 O.2       1 ALC1        0.0000 
     48 O          47.7950   13.4640   29.3770 O.2       7 ALL1        0.0000 
     49 CA         47.6132   16.2982   29.6820 C.3       3 GLC5        0.0000 
     50 CA         47.4100   17.8950   28.8730 C.3       6 GLP5        0.0000 
     51 CA         45.3247   13.3495   32.7022 C.3       3 GLC5        0.0000 
     52 CA         43.3700   11.6342   31.5100 C.3       3 GLC5        0.0000 
     53 CA         43.9030   13.4900   30.7490 C.3       9 GLL5        0.0000 
     54 CA         43.5430    9.8020   32.0470 C.3       6 GLP5        0.0000 
     55 CA         42.3415   15.9262   31.3468 C.3       3 GLC5        0.0000 
     56 CA         44.2022   11.1575   30.7942 C.3       3 GLC5        0.0000 
     57 CA         44.2390   12.5350   29.7930 C.3       9 GLL5        0.0000 
     58 CA         43.6568   13.8704   28.6677 C.3       3 GLC5        0.0000 
     59 CA         42.5360   14.9890   27.5550 C.3       6 GLP5        0.0000 
@<TRIPOS>BOND
@<TRIPOS>SUBSTRUCTURE
     1 ALC1        8 GROUP        1 X    ALC  0     ROOT ALC X 1
     2 SEC2       35 GROUP        1 X    SEC  0     **** SEC X 2
     3 GLC5        1 GROUP        1 X    GLC  0     **** GLC X 6
     4 ALP1       10 GROUP        1 Y    ALP  0     ROOT ALP Y 8
     5 SEP2       37 GROUP        1 Y    SEP  0     **** SEP Y 9
     6 GLP5        3 GROUP        1 Y    GLP  0     **** GLP Y 13
     7 ALL1        9 GROUP        1 Z    ALL  0     ROOT ALL Z 15
     8 SEL2       36 GROUP        1 Z    SEL  0     **** SEL Z 16
     9 GLL5        2 GROUP        1 Z    GLL  0     **** GLL Z 20
@<TRIPOS>SET

