#    Name: 3zw3_ZW3_1_ligand
#    Modification time : Tue Mar 25 04:02:23 2014

@<TRIPOS>MOLECULE
3zw3_ZW3_1_ligand
   32    34     1     0     0
SMALL
NO_CHARGES


@<TRIPOS>ATOM
      1 C1         51.7910   15.7450   30.3700 C.3       1 ZW32191     0.0000 
      2 C2         50.3140   15.7200   30.6570 C.2       1 ZW32191     0.0000 
      3 O3         49.8290   16.5620   31.3550 O.2       1 ZW32191     0.0000 
      4 N4         49.6070   14.7580   30.0380 N.am      1 ZW32191     0.0000 
      5 C5         48.2950   14.4400   30.1060 C.2       1 ZW32191     0.0000 
      6 C6         47.3380   14.9630   30.8760 C.2       1 ZW32191     0.0000 
      7 N7         46.1770   14.2790   30.6530 N.pl3     1 ZW32191     0.0000 
      8 C8         44.8960   14.3720   31.1780 C.ar      1 ZW32191     0.0000 
      9 C9         43.9030   13.4900   30.7490 C.ar      1 ZW32191     0.0000 
     10 C10        42.4910   13.4430   31.1970 C.2       1 ZW32191     0.0000 
     11 C11        41.9730   14.0860   32.3410 C.2       1 ZW32191     0.0000 
     12 S12        42.7010   15.1270   33.6360 S.3       1 ZW32191     0.0000 
     13 C13        41.1980   15.3490   34.4750 C.2       1 ZW32191     0.0000 
     14 O14        40.9950   16.0230   35.4790 O.2       1 ZW32191     0.0000 
     15 N15        40.3200   14.6540   33.7870 N.am      1 ZW32191     0.0000 
     16 C16        40.5900   14.0270   32.7490 C.2       1 ZW32191     0.0000 
     17 O17        39.7490   13.4260   32.1900 O.2       1 ZW32191     0.0000 
     18 C18        44.2390   12.5350   29.7930 C.ar      1 ZW32191     0.0000 
     19 C19        45.4840   12.4910   29.2900 C.ar      1 ZW32191     0.0000 
     20 C20        46.4950   13.3500   29.7080 C.ar      1 ZW32191     0.0000 
     21 N21        47.7950   13.4640   29.3770 N.pl3     1 ZW32191     0.0000 
     22 H          50.2040   14.1094   29.3492 H         1 ZW32191     0.0000 
     23 H          47.4326   15.7010   31.4930 H         1 ZW32191     0.0000 
     24 H          44.6752   15.0873   31.8812 H         1 ZW32191     0.0000 
     25 H          41.8435   12.8766   30.5940 H         1 ZW32191     0.0000 
     26 H          39.2995   14.6459   34.1759 H         1 ZW32191     0.0000 
     27 H          43.5102   11.8651   29.4825 H         1 ZW32191     0.0000 
     28 H          45.7249   11.7824   28.5460 H         1 ZW32191     0.0000 
     29 H          48.2569   12.9235   28.7257 H         1 ZW32191     0.0000 
     30 H          52.3333   15.6728   31.2071 H         1 ZW32191     0.0000 
     31 H          52.0668   14.9892   29.7761 H         1 ZW32191     0.0000 
     32 H          52.0665   16.5914   29.9144 H         1 ZW32191     0.0000 
@<TRIPOS>BOND
     1    2    1 1    
     2   30    1 1    
     3   31    1 1    
     4   32    1 1    
     5    3    2 2    
     6    4    2 am   
     7    5    4 1    
     8   22    4 1    
     9    6    5 2    
    10   21    5 1    
    11    7    6 1    
    12   23    6 1    
    13    8    7 ar   
    14   20    7 ar   
    15    9    8 ar   
    16   24    8 1    
    17   10    9 1    
    18   18    9 ar   
    19   11   10 2    
    20   25   10 1    
    21   12   11 1    
    22   16   11 1    
    23   13   12 1    
    24   14   13 2    
    25   15   13 am   
    26   16   15 am   
    27   26   15 1    
    28   17   16 2    
    29   19   18 ar   
    30   27   18 1    
    31   20   19 ar   
    32   28   19 1    
    33   21   20 1    
    34   29   21 1    
@<TRIPOS>SUBSTRUCTURE
     1 ZW32191     1 GROUP   
@<TRIPOS>SET

