#    Name: 4mt9_2D6_1_INTS_M
#    Modification time : Tue Mar 25 12:22:58 2014

@<TRIPOS>MOLECULE
4mt9_2D6_1_INTS_M
   81     0     9     0     0
SMALL
NO_CHARGES


@<TRIPOS>ATOM
      1 N          -2.9755   41.6140   25.6245 N.am      2 SEC2        0.0000 
      2 N          -3.9340   42.0640   26.5000 N.am      8 SEL2        0.0000 
      3 N          -2.0170   41.1640   24.7490 N.am      5 SEP2        0.0000 
      4 CA         -2.9855   46.0380   26.0805 C.3       3 GLC5        0.0000 
      5 CA         -3.9740   44.4450   26.8100 C.3       9 GLL5        0.0000 
      6 CA         -1.9970   47.6310   25.3510 C.3       6 GLP5        0.0000 
      7 CA         -2.8780   44.2160   25.2910 C.3       3 GLC5        0.0000 
      8 CA         -1.7820   43.9870   23.7720 C.3       6 GLP5        0.0000 
      9 CA         -2.6375   46.4175   27.3515 C.3       3 GLC5        0.0000 
     10 CA         -3.9340   45.1290   28.1240 C.3       9 GLL5        0.0000 
     11 CA         -1.3410   47.7060   26.5790 C.3       6 GLP5        0.0000 
     12 CA         -4.0015   46.9150   28.8130 C.3       3 GLC5        0.0000 
     13 CA         -4.0690   48.7010   29.5020 C.3       6 GLP5        0.0000 
     14 CA         -4.6325   42.9150   30.8815 C.3       3 GLC5        0.0000 
     15 CA         -3.5250   44.0140   29.6050 C.3       9 GLL5        0.0000 
     16 CA         -5.7400   41.8160   32.1580 C.3       6 GLP5        0.0000 
     17 CA         -2.5175   44.5245   31.2350 C.3       3 GLC5        0.0000 
     18 CA         -1.5100   45.0350   32.8650 C.3       6 GLP5        0.0000 
     19 O          -2.0235   42.3695   31.2330 O.2       1 ALC1        0.0000 
     20 O          -1.2540   42.6780   30.1310 O.2       7 ALL1        0.0000 
     21 O          -2.7930   42.0610   32.3350 O.2       4 ALP1        0.0000 
     22 N          -0.3255   40.5950   31.5965 N.am      2 SEC2        0.0000 
     23 N           0.5240   41.3490   30.6960 N.am      8 SEL2        0.0000 
     24 N          -1.1750   39.8410   32.4970 N.am      5 SEP2        0.0000 
     25 N           1.6350   40.6865   31.4070 N.am      2 SEC2        0.0000 
     26 N           2.7460   40.0240   32.1180 N.am      5 SEP2        0.0000 
     27 CA          2.2050   41.0075   27.8670 C.3       3 GLC5        0.0000 
     28 CA          2.3660   42.7820   28.9940 C.3       9 GLL5        0.0000 
     29 CA          2.0440   39.2330   26.7400 C.3       6 GLP5        0.0000 
     30 CA          3.7140   45.7230   28.6050 C.3       3 GLC5        0.0000 
     31 CA          2.5320   44.7920   27.4200 C.3       9 GLL5        0.0000 
     32 CA          4.8960   46.6540   29.7900 C.3       6 GLP5        0.0000 
     33 CA         -7.9840   42.1035   24.0080 C.3       3 GLC5        0.0000 
     34 CA         -7.5190   41.3310   25.8930 C.3       9 GLL5        0.0000 
     35 CA         -8.4490   42.8760   22.1230 C.3       6 GLP5        0.0000 
     36 CA         -5.4140   40.0705   26.1925 C.3       3 GLC5        0.0000 
     37 CA         -6.5700   41.6220   27.1060 C.3       9 GLL5        0.0000 
     38 CA         -4.2580   38.5190   25.2790 C.3       6 GLP5        0.0000 
     39 CA         -6.5070   41.6405   30.3220 C.3       3 GLC5        0.0000 
     40 CA         -7.2740   41.4650   28.4860 C.3       9 GLL5        0.0000 
     41 CA         -7.8010   38.6375   29.6015 C.3       3 GLC5        0.0000 
     42 CA         -8.2140   40.2930   28.5830 C.3       9 GLL5        0.0000 
     43 CA         -7.3880   36.9820   30.6200 C.3       6 GLP5        0.0000 
     44 CA        -13.5000   40.8765   27.6845 C.3       3 GLC5        0.0000 
     45 CA        -13.0150   40.7570   29.3120 C.3       9 GLL5        0.0000 
     46 CA        -13.9850   40.9960   26.0570 C.3       6 GLP5        0.0000 
     47 CA        -13.5965   40.9795   31.2915 C.3       3 GLC5        0.0000 
     48 CA        -15.0750   40.1440   30.1170 C.3       9 GLL5        0.0000 
     49 CA        -12.1180   41.8150   32.4660 C.3       6 GLP5        0.0000 
     50 CA        -14.2335   38.3090   31.0925 C.3       3 GLC5        0.0000 
     51 CA        -13.3920   36.4740   32.0680 C.3       6 GLP5        0.0000 
     52 CA          0.1430   43.2108   27.1405 C.3       3 GLC5        0.0000 
     53 CA          0.2940   44.2250   28.4670 C.3       9 GLL5        0.0000 
     54 CA         -0.3380   42.7790   25.4540 C.3       6 GLP5        0.0000 
     55 CA          1.2125   42.9978   27.0030 C.3       3 GLC5        0.0000 
     56 CA          4.0700   42.0932   28.9660 C.3       3 GLC5        0.0000 
     57 CA          5.3770   40.9700   29.3800 C.3       6 GLP5        0.0000 
     58 CA          4.1705   43.8308   29.6690 C.3       3 GLC5        0.0000 
     59 CA          5.5780   44.4450   30.7860 C.3       6 GLP5        0.0000 
     60 CA          3.7970   44.2142   25.9480 C.3       3 GLC5        0.0000 
     61 CA          3.1600   43.6510   28.1100 C.3       9 GLL5        0.0000 
     62 CA          4.7480   44.2070   24.1310 C.3       6 GLP5        0.0000 
     63 CA          0.7395   43.8565   26.4832 C.3       3 GLC5        0.0000 
     64 CA        -10.7532   40.8545   26.1973 C.3       3 GLC5        0.0000 
     65 CA         -8.4820   40.1880   26.0880 C.3       9 GLL5        0.0000 
     66 CA        -12.6440   41.5110   25.6310 C.3       6 GLP5        0.0000 
     67 CA         -7.0068   39.8147   24.7527 C.3       3 GLC5        0.0000 
     68 CA         -6.0130   38.8700   23.5150 C.3       6 GLP5        0.0000 
     69 CA         -8.8725   41.5795   29.9907 C.3       3 GLC5        0.0000 
     70 CA        -10.0010   42.2800   31.4470 C.3       6 GLP5        0.0000 
     71 CA        -11.0242   39.8998   30.3322 C.3       3 GLC5        0.0000 
     72 CA        -11.7510   40.5450   28.6880 C.3       9 GLL5        0.0000 
     73 CA        -10.4850   39.9270   32.1920 C.3       6 GLP5        0.0000 
     74 CA        -12.1037   40.6918   27.0518 C.3       3 GLC5        0.0000 
     75 CA        -11.9590   40.0645   30.7975 C.3       3 GLC5        0.0000 
     76 CA        -14.7485   40.7567   28.2243 C.3       3 GLC5        0.0000 
     77 CA        -13.8510   39.6470   29.4940 C.3       9 GLL5        0.0000 
     78 CA        -15.0340   41.6180   26.6430 C.3       6 GLP5        0.0000 
     79 CA        -13.4302   39.5770   27.4117 C.3       3 GLC5        0.0000 
     80 CA        -13.5040   38.2700   29.0820 C.3       9 GLL5        0.0000 
     81 CA        -13.1771   37.4881   30.4688 C.3       3 GLC5        0.0000 
@<TRIPOS>BOND
@<TRIPOS>SUBSTRUCTURE
     1 ALC1       19 GROUP        1 X    ALC  0     ROOT ALC X 1
     2 SEC2        1 GROUP        1 X    SEC  0     **** SEC X 2
     3 GLC5        4 GROUP        1 X    GLC  0     **** GLC X 6
     4 ALP1       21 GROUP        1 Y    ALP  0     ROOT ALP Y 8
     5 SEP2        3 GROUP        1 Y    SEP  0     **** SEP Y 9
     6 GLP5        6 GROUP        1 Y    GLP  0     **** GLP Y 13
     7 ALL1       20 GROUP        1 Z    ALL  0     ROOT ALL Z 15
     8 SEL2        2 GROUP        1 Z    SEL  0     **** SEL Z 16
     9 GLL5        5 GROUP        1 Z    GLL  0     **** GLL Z 20
@<TRIPOS>SET

