#    Name: 4mt9_2D6_1_ligand
#    Modification time : Tue Mar 25 12:22:58 2014

@<TRIPOS>MOLECULE
4mt9_2D6_1_ligand
   56    59     1     0     0
SMALL
NO_CHARGES


@<TRIPOS>ATOM
      1 N4         -5.9950   42.9850   26.9670 N.am      1 2D61402     0.0000 
      2 C8         -4.6320   43.0540   26.7700 C.2       1 2D61402     0.0000 
      3 O2         -3.9340   42.0640   26.5000 O.2       1 2D61402     0.0000 
      4 C9         -3.9740   44.4450   26.8100 C.3       1 2D61402     0.0000 
      5 C10        -3.9340   45.1290   28.1240 C.3       1 2D61402     0.0000 
      6 S1         -3.5250   44.0140   29.6050 S.3       1 2D61402     0.0000 
      7 C11        -1.7980   43.7370   29.4390 C.2       1 2D61402     0.0000 
      8 N2         -1.2540   42.6780   30.1310 N.am      1 2D61402     0.0000 
      9 C12         0.0650   42.2940   30.0490 C.2       1 2D61402     0.0000 
     10 O3          0.5240   41.3490   30.6960 O.2       1 2D61402     0.0000 
     11 N3         -1.0340   44.4970   28.6340 N.2       1 2D61402     0.0000 
     12 C13         0.2940   44.2250   28.4670 C.ar      1 2D61402     0.0000 
     13 C14         0.9540   43.0600   29.1870 C.ar      1 2D61402     0.0000 
     14 C15         2.3660   42.7820   28.9940 C.ar      1 2D61402     0.0000 
     15 C16         3.1600   43.6510   28.1100 C.ar      1 2D61402     0.0000 
     16 C17         2.5320   44.7920   27.4200 C.ar      1 2D61402     0.0000 
     17 C18         1.1020   45.0760   27.6050 C.ar      1 2D61402     0.0000 
     18 C19        -8.4820   40.1880   26.0880 C.3       1 2D61402     0.0000 
     19 C20        -7.5190   41.3310   25.8930 C.3       1 2D61402     0.0000 
     20 C21        -6.5700   41.6220   27.1060 C.3       1 2D61402     0.0000 
     21 C22        -7.2740   41.4650   28.4860 C.3       1 2D61402     0.0000 
     22 C23        -8.2140   40.2930   28.5830 C.3       1 2D61402     0.0000 
     23 C24        -9.2430   40.2080   27.4390 C.3       1 2D61402     0.0000 
     24 O1        -10.0800   38.9950   27.6030 O.3       1 2D61402     0.0000 
     25 C1        -11.3760   39.2000   28.2570 C.ar      1 2D61402     0.0000 
     26 C2        -11.7510   40.5450   28.6880 C.ar      1 2D61402     0.0000 
     27 C3        -13.0150   40.7570   29.3120 C.ar      1 2D61402     0.0000 
     28 C4        -13.8510   39.6470   29.4940 C.ar      1 2D61402     0.0000 
     29 C5        -13.5040   38.2700   29.0820 C.ar      1 2D61402     0.0000 
     30 C6        -12.2470   38.0460   28.4510 C.ar      1 2D61402     0.0000 
     31 C7        -15.0750   40.1440   30.1170 C.1       1 2D61402     0.0000 
     32 N1        -16.0060   40.6200   30.6070 N.1       1 2D61402     0.0000 
     33 H          -6.5988   43.7659   27.0203 H         1 2D61402     0.0000 
     34 H          -4.5029   45.0899   26.0635 H         1 2D61402     0.0000 
     35 H          -2.9352   44.3384   26.4069 H         1 2D61402     0.0000 
     36 H          -4.8790   45.5435   28.4663 H         1 2D61402     0.0000 
     37 H          -3.1533   45.8765   28.2404 H         1 2D61402     0.0000 
     38 H          -1.8950   42.1209   30.7702 H         1 2D61402     0.0000 
     39 H           2.8037   42.0089   29.4537 H         1 2D61402     0.0000 
     40 H           4.1384   43.4654   27.9753 H         1 2D61402     0.0000 
     41 H           3.0855   45.3771   26.8209 H         1 2D61402     0.0000 
     42 H           0.6867   45.8602   27.1332 H         1 2D61402     0.0000 
     43 H          -7.9395   39.2278   26.0163 H         1 2D61402     0.0000 
     44 H          -9.2305   40.1890   25.2749 H         1 2D61402     0.0000 
     45 H          -8.0782   42.2612   25.6772 H         1 2D61402     0.0000 
     46 H          -6.8808   41.1385   25.0097 H         1 2D61402     0.0000 
     47 H          -5.7585   40.8911   27.0617 H         1 2D61402     0.0000 
     48 H          -7.8211   42.4023   28.6945 H         1 2D61402     0.0000 
     49 H          -6.4881   41.3798   29.2582 H         1 2D61402     0.0000 
     50 H          -8.7647   40.3376   29.5401 H         1 2D61402     0.0000 
     51 H          -7.6339   39.3525   28.5961 H         1 2D61402     0.0000 
     52 H          -9.8492   41.0946   27.4690 H         1 2D61402     0.0000 
     53 H         -11.1091   41.3072   28.5379 H         1 2D61402     0.0000 
     54 H         -13.2880   41.6786   29.6084 H         1 2D61402     0.0000 
     55 H         -14.1523   37.5317   29.2531 H         1 2D61402     0.0000 
     56 H         -11.9595   37.1446   28.1487 H         1 2D61402     0.0000 
@<TRIPOS>BOND
     1    2    1 am   
     2   20    1 1    
     3   33    1 1    
     4    3    2 2    
     5    4    2 1    
     6    5    4 1    
     7   34    4 1    
     8   35    4 1    
     9    6    5 1    
    10   36    5 1    
    11   37    5 1    
    12    7    6 1    
    13    8    7 1    
    14   11    7 2    
    15    9    8 am   
    16   38    8 1    
    17   10    9 2    
    18   13    9 1    
    19   12   11 1    
    20   13   12 ar   
    21   17   12 ar   
    22   14   13 ar   
    23   15   14 ar   
    24   39   14 1    
    25   16   15 ar   
    26   40   15 1    
    27   17   16 ar   
    28   41   16 1    
    29   42   17 1    
    30   19   18 1    
    31   23   18 1    
    32   43   18 1    
    33   44   18 1    
    34   20   19 1    
    35   45   19 1    
    36   46   19 1    
    37   21   20 1    
    38   47   20 1    
    39   22   21 1    
    40   48   21 1    
    41   49   21 1    
    42   23   22 1    
    43   50   22 1    
    44   51   22 1    
    45   24   23 1    
    46   52   23 1    
    47   25   24 1    
    48   26   25 ar   
    49   30   25 ar   
    50   27   26 ar   
    51   53   26 1    
    52   28   27 ar   
    53   54   27 1    
    54   29   28 ar   
    55   31   28 1    
    56   30   29 ar   
    57   55   29 1    
    58   56   30 1    
    59   32   31 3    
@<TRIPOS>SUBSTRUCTURE
     1 2D61402     1 GROUP   
@<TRIPOS>SET

