#    Name: 2c94_TSF_5_INTS_M
#    Modification time : Mon Mar 24 23:16:21 2014

@<TRIPOS>MOLECULE
2c94_TSF_5_INTS_M
   85     0    12     0     0
SMALL
NO_CHARGES


@<TRIPOS>ATOM
      1 N          53.9940  -15.8330    2.2380 N.am      2 SEC2        0.0000 
      2 N          55.1970  -15.9940    3.2980 N.am     10 SEL2        0.0000 
      3 N          52.7910  -15.6720    1.1780 N.am      6 SEP2        0.0000 
      4 N          56.2975  -15.0385    2.9395 N.am      2 SEC2        0.0000 
      5 N          57.3980  -14.0830    2.5810 N.am      6 SEP2        0.0000 
      6 N          55.4045  -12.9160    3.8580 N.am      2 SEC2        0.0000 
      7 N          55.0810  -13.9260    4.7550 N.am     10 SEL2        0.0000 
      8 N          55.7280  -11.9060    2.9610 N.am      6 SEP2        0.0000 
      9 N          54.2150  -12.9520    4.8065 N.am      2 SEC2        0.0000 
     10 N          53.3490  -11.9780    4.8580 N.am      6 SEP2        0.0000 
     11 NZ         52.9365  -15.5650    2.8975 N.4       3 LYC4        0.0000 
     12 NZ         53.0820  -15.4580    4.6170 N.4      11 LYL4        0.0000 
     13 NZ         51.5020  -15.3470    1.2410 N.4       7 LYP4        0.0000 
     14 N          51.9885  -15.3740    3.5215 N.am      2 SEC2        0.0000 
     15 N          53.0820  -15.4580    4.6170 N.am     10 SEL2        0.0000 
     16 N          50.8950  -15.2900    2.4260 N.am      6 SEP2        0.0000 
     17 N          52.9365  -15.5650    2.8975 N.am      2 SEC2        0.0000 
     18 CA         58.4665  -15.3055    6.7945 C.3       4 GLC5        0.0000 
     19 CA         56.5520  -16.1470    5.9670 C.3      12 GLL5        0.0000 
     20 CA         60.3810  -14.4640    7.6220 C.3       8 GLP5        0.0000 
     21 CA         56.3725  -15.5015   11.3575 C.3       4 GLC5        0.0000 
     22 CA         54.9990  -15.7490    9.6820 C.3      12 GLL5        0.0000 
     23 CA         57.7460  -15.2540   13.0330 C.3       8 GLP5        0.0000 
     24 CA         53.9920  -18.8230    9.5595 C.3       4 GLC5        0.0000 
     25 CA         54.4490  -17.1600    9.7730 C.3      12 GLL5        0.0000 
     26 CA         53.5350  -20.4860    9.3460 C.3       8 GLP5        0.0000 
     27 CA         54.1675  -19.4530   11.3445 C.3       4 GLC5        0.0000 
     28 CA         54.2700  -17.9400   12.1600 C.3      12 GLL5        0.0000 
     29 CA         54.0650  -20.9660   10.5290 C.3       8 GLP5        0.0000 
     30 CA         56.0080  -16.5970   12.5965 C.3       4 GLC5        0.0000 
     31 O          57.0575  -19.3550   14.0530 O.2       1 ALC1        0.0000 
     32 O          55.8080  -18.9370   13.6920 O.2       9 ALL1        0.0000 
     33 O          58.3070  -19.7730   14.4140 O.2       5 ALP1        0.0000 
     34 CA         53.2045  -19.6795   12.3705 C.3       4 GLC5        0.0000 
     35 CA         53.2210  -18.0080   13.1940 C.3      12 GLL5        0.0000 
     36 CA         53.1880  -21.3510   11.5470 C.3       8 GLP5        0.0000 
     37 N          54.7260  -20.4535   16.8725 N.am      2 SEC2        0.0000 
     38 N          55.0880  -19.4630   15.7440 N.am     10 SEL2        0.0000 
     39 N          54.3640  -21.4440   18.0010 N.am      6 SEP2        0.0000 
     40 N          54.1075  -18.9930   16.6980 N.am      2 SEC2        0.0000 
     41 N          53.1270  -18.5230   17.6520 N.am      6 SEP2        0.0000 
     42 CA         51.2810  -19.2425   12.2040 C.3       4 GLC5        0.0000 
     43 CA         50.7610  -17.2500   13.0800 C.3      12 GLL5        0.0000 
     44 CA         51.8010  -21.2350   11.3280 C.3       8 GLP5        0.0000 
     45 CA         51.9065  -15.3545   13.0575 C.3       4 GLC5        0.0000 
     46 CA         53.0520  -13.4590   13.0350 C.3       8 GLP5        0.0000 
     47 N          51.6440  -16.5725   16.8900 N.am      2 SEC2        0.0000 
     48 N          51.4840  -17.0320   15.4000 N.am     10 SEL2        0.0000 
     49 N          51.8040  -16.1130   18.3800 N.am      6 SEP2        0.0000 
     50 O          48.6360  -18.7885   16.6085 O.2       1 ALC1        0.0000 
     51 O          48.6980  -18.7250   15.3950 O.2       9 ALL1        0.0000 
     52 O          48.5740  -18.8520   17.8220 O.2       5 ALP1        0.0000 
     53 CA         49.2830  -15.5335   15.2630 C.3       4 GLC5        0.0000 
     54 CA         48.0170  -16.8650   14.0350 C.3      12 GLL5        0.0000 
     55 CA         50.5490  -14.2020   16.4910 C.3       8 GLP5        0.0000 
     56 O          47.0685  -14.9305   13.0920 O.2       1 ALC1        0.0000 
     57 O          48.2250  -15.4940   13.6550 O.2       9 ALL1        0.0000 
     58 O          45.9120  -14.3670   12.5290 O.2       5 ALP1        0.0000 
     59 CA         44.8420  -16.7470   15.6510 C.3       4 GLC5        0.0000 
     60 CA         46.6440  -16.9330   14.6910 C.3      12 GLL5        0.0000 
     61 CA         43.0400  -16.5610   16.6110 C.3       8 GLP5        0.0000 
     62 CA         45.8495  -14.9945   14.5355 C.3       4 GLC5        0.0000 
     63 CA         45.0550  -13.0560   14.3800 C.3       8 GLP5        0.0000 
     64 CA         45.0160  -17.7845   13.8525 C.3       4 GLC5        0.0000 
     65 CA         43.3880  -18.6360   13.0140 C.3       8 GLP5        0.0000 
     66 CA         46.0350  -18.6575   15.5830 C.3       4 GLC5        0.0000 
     67 CA         45.4260  -20.3820   16.4750 C.3       8 GLP5        0.0000 
     68 N          45.7710  -15.0610   15.6310 N.am      2 SEC2        0.0000 
     69 N          46.6760  -16.0680   15.8380 N.am     10 SEL2        0.0000 
     70 N          44.8660  -14.0540   15.4240 N.am      6 SEP2        0.0000 
     71 O          46.8710  -16.6805   17.0245 O.2       1 ALC1        0.0000 
     72 O          46.6760  -16.0680   15.8380 O.2       9 ALL1        0.0000 
     73 O          47.0660  -17.2930   18.2110 O.2       5 ALP1        0.0000 
     74 CA         57.2475  -15.7032    5.1430 C.3       4 GLC5        0.0000 
     75 CA         55.2360  -16.2740    5.9250 C.3      12 GLL5        0.0000 
     76 CA         58.6010  -15.1960    4.3400 C.3       8 GLP5        0.0000 
     77 CA         56.0048  -13.7762    9.5260 C.3       4 GLC5        0.0000 
     78 CA         55.6460  -15.5900    8.3160 C.3      12 GLL5        0.0000 
     79 CA         56.6870  -11.8830   10.0530 C.3       8 GLP5        0.0000 
     80 CA         53.9361  -14.0629    8.3295 C.3       4 GLC5        0.0000 
     81 CA         52.8080  -12.4200    7.9380 C.3       8 GLP5        0.0000 
     82 CA         50.6723  -18.8742   15.8955 C.3       4 GLC5        0.0000 
     83 CA         50.5140  -17.6090   14.5290 C.3      12 GLL5        0.0000 
     84 CA         51.5470  -20.2460   17.0180 C.3       8 GLP5        0.0000 
     85 CA         50.1732  -15.8522   15.6320 C.3       4 GLC5        0.0000 
@<TRIPOS>BOND
@<TRIPOS>SUBSTRUCTURE
     1 ALC1       31 GROUP        1 X    ALC  0     ROOT ALC X 1
     2 SEC2        1 GROUP        1 X    SEC  0     **** SEC X 2
     3 LYC4       11 GROUP        1 X    LYC  0     **** LYC X 4
     4 GLC5       18 GROUP        1 X    GLC  0     **** GLC X 6
     5 ALP1       33 GROUP        1 Y    ALP  0     ROOT ALP Y 8
     6 SEP2        3 GROUP        1 Y    SEP  0     **** SEP Y 9
     7 LYP4       13 GROUP        1 Y    LYP  0     **** LYP Y 11
     8 GLP5       20 GROUP        1 Y    GLP  0     **** GLP Y 13
     9 ALL1       32 GROUP        1 Z    ALL  0     ROOT ALL Z 15
    10 SEL2        2 GROUP        1 Z    SEL  0     **** SEL Z 16
    11 LYL4       12 GROUP        1 Z    LYL  0     **** LYL Z 18
    12 GLL5       19 GROUP        1 Z    GLL  0     **** GLL Z 20
@<TRIPOS>SET

