#    Name: 2c94_TSF_5_ligand
#    Modification time : Mon Mar 24 23:16:21 2014

@<TRIPOS>MOLECULE
2c94_TSF_5_ligand
   53    54     1     0     0
SMALL
NO_CHARGES


@<TRIPOS>ATOM
      1 O2P        55.1970  -15.9940    3.2980 O.co2     1 TSF701      0.0000 
      2 P          54.5860  -15.3310    4.5150 P.3       1 TSF701      0.0000 
      3 O3P        55.0810  -13.9260    4.7550 O.co2     1 TSF701      0.0000 
      4 O1P        53.0820  -15.4580    4.6170 O.co2     1 TSF701      0.0000 
      5 C19        55.2360  -16.2740    5.9250 C.3       1 TSF701      0.0000 
      6 F1         56.5520  -16.1470    5.9670 F         1 TSF701      0.0000 
      7 F2         54.9280  -17.5540    5.7980 F         1 TSF701      0.0000 
      8 C18        54.6130  -15.7350    7.2040 C.3       1 TSF701      0.0000 
      9 C17        55.6460  -15.5900    8.3160 C.3       1 TSF701      0.0000 
     10 C16        54.9990  -15.7490    9.6820 C.3       1 TSF701      0.0000 
     11 C15        54.4490  -17.1600    9.7730 C.3       1 TSF701      0.0000 
     12 N5         53.7780  -17.3980   11.0490 N.am      1 TSF701      0.0000 
     13 C9         54.2700  -17.9400   12.1600 C.2       1 TSF701      0.0000 
     14 C4         55.6280  -18.4330   12.4670 C.2       1 TSF701      0.0000 
     15 O2         56.5510  -18.4100   11.6220 O.2       1 TSF701      0.0000 
     16 N3         55.8080  -18.9370   13.6920 N.am      1 TSF701      0.0000 
     17 C6         52.5060  -17.1480   11.3770 C.2       1 TSF701      0.0000 
     18 O4         51.6620  -16.6170   10.5580 O.2       1 TSF701      0.0000 
     19 N7         52.1260  -17.4810   12.6110 N.am      1 TSF701      0.0000 
     20 C8         53.2210  -18.0080   13.1940 C.2       1 TSF701      0.0000 
     21 N1         53.5620  -18.5340   14.3830 N.am      1 TSF701      0.0000 
     22 C2         54.8190  -18.9780   14.6220 C.2       1 TSF701      0.0000 
     23 O1         55.0880  -19.4630   15.7440 O.2       1 TSF701      0.0000 
     24 C10        50.7610  -17.2500   13.0800 C.3       1 TSF701      0.0000 
     25 C11        50.5140  -17.6090   14.5290 C.3       1 TSF701      0.0000 
     26 O19        51.4840  -17.0320   15.4000 O.3       1 TSF701      0.0000 
     27 C12        49.0810  -17.3960   15.0170 C.3       1 TSF701      0.0000 
     28 O21        48.6980  -18.7250   15.3950 O.3       1 TSF701      0.0000 
     29 C13        48.0170  -16.8650   14.0350 C.3       1 TSF701      0.0000 
     30 O23        48.2250  -15.4940   13.6550 O.3       1 TSF701      0.0000 
     31 C14        46.6440  -16.9330   14.6910 C.3       1 TSF701      0.0000 
     32 O26        46.6760  -16.0680   15.8380 O.3       1 TSF701      0.0000 
     33 H          53.8229  -16.4145    7.5349 H         1 TSF701      0.0000 
     34 H          54.1631  -14.7589    7.0029 H         1 TSF701      0.0000 
     35 H          56.1106  -14.6059    8.2478 H         1 TSF701      0.0000 
     36 H          56.4175  -16.3502    8.1901 H         1 TSF701      0.0000 
     37 H          54.1947  -15.0385    9.7855 H         1 TSF701      0.0000 
     38 H          55.7386  -15.5974   10.4517 H         1 TSF701      0.0000 
     39 H          55.2828  -17.8665    9.6364 H         1 TSF701      0.0000 
     40 H          53.7521  -17.3151    8.9343 H         1 TSF701      0.0000 
     41 H          56.7602  -19.3235   13.9577 H         1 TSF701      0.0000 
     42 H          52.8420  -18.6041   15.1455 H         1 TSF701      0.0000 
     43 H          50.0383  -17.8246   12.4534 H         1 TSF701      0.0000 
     44 H          50.4830  -16.1789   12.9370 H         1 TSF701      0.0000 
     45 H          50.6680  -18.7513   14.5786 H         1 TSF701      0.0000 
     46 H          49.1036  -16.7819   15.9015 H         1 TSF701      0.0000 
     47 H          47.9943  -17.5104   13.1709 H         1 TSF701      0.0000 
     48 H          46.4514  -17.9641   14.9700 H         1 TSF701      0.0000 
     49 H          45.9042  -16.6111   13.9650 H         1 TSF701      0.0000 
     50 H          51.8494  -16.2485   14.8974 H         1 TSF701      0.0000 
     51 H          49.1274  -18.8746   16.2856 H         1 TSF701      0.0000 
     52 H          47.3529  -15.1985   13.2650 H         1 TSF701      0.0000 
     53 H          46.8736  -16.6707   16.6111 H         1 TSF701      0.0000 
@<TRIPOS>BOND
     1    2    1 ar   
     2    3    2 ar   
     3    4    2 ar   
     4    5    2 1    
     5    6    5 1    
     6    7    5 1    
     7    8    5 1    
     8    9    8 1    
     9   33    8 1    
    10   34    8 1    
    11   10    9 1    
    12   35    9 1    
    13   36    9 1    
    14   11   10 1    
    15   37   10 1    
    16   38   10 1    
    17   12   11 1    
    18   39   11 1    
    19   40   11 1    
    20   13   12 1    
    21   17   12 am   
    22   14   13 1    
    23   20   13 2    
    24   15   14 2    
    25   16   14 1    
    26   22   16 1    
    27   41   16 1    
    28   18   17 2    
    29   19   17 am   
    30   20   19 1    
    31   24   19 1    
    32   21   20 1    
    33   22   21 1    
    34   42   21 1    
    35   23   22 2    
    36   25   24 1    
    37   43   24 1    
    38   44   24 1    
    39   26   25 1    
    40   27   25 1    
    41   45   25 1    
    42   50   26 1    
    43   28   27 1    
    44   29   27 1    
    45   46   27 1    
    46   51   28 1    
    47   30   29 1    
    48   31   29 1    
    49   47   29 1    
    50   52   30 1    
    51   32   31 1    
    52   48   31 1    
    53   49   31 1    
    54   53   32 1    
@<TRIPOS>SUBSTRUCTURE
     1 TSF701      1 GROUP   
@<TRIPOS>SET

