#    Name: 3qch_NX2_1_INTS_M
#    Modification time : Tue Mar 25 09:36:55 2014

@<TRIPOS>MOLECULE
3qch_NX2_1_INTS_M
   71     0     6     0     0
SMALL
NO_CHARGES


@<TRIPOS>ATOM
      1 CA         17.6055   31.0125   62.8260 C.3       2 GLC5        0.0000 
      2 CA         19.0920   29.7120   63.2730 C.3       6 GLL5        0.0000 
      3 CA         16.1190   32.3130   62.3790 C.3       4 GLP5        0.0000 
      4 CA         20.6865   28.3260   64.7605 C.3       2 GLC5        0.0000 
      5 CA         19.4850   30.0290   64.6420 C.3       6 GLL5        0.0000 
      6 CA         21.8880   26.6230   64.8790 C.3       4 GLP5        0.0000 
      7 CA         20.6645   32.7700   63.7280 C.3       2 GLC5        0.0000 
      8 CA         21.1100   31.0380   62.8920 C.3       6 GLL5        0.0000 
      9 CA         20.2190   34.5020   64.5640 C.3       4 GLP5        0.0000 
     10 CA         19.3120   31.7625   59.5740 C.3       2 GLC5        0.0000 
     11 CA         19.7010   30.2280   60.7600 C.3       6 GLL5        0.0000 
     12 CA         18.9230   33.2970   58.3880 C.3       4 GLP5        0.0000 
     13 CA         21.0150   29.9805   59.2835 C.3       2 GLC5        0.0000 
     14 CA         22.3290   29.7330   57.8070 C.3       4 GLP5        0.0000 
     15 CA         16.7940   28.2880   61.3815 C.3       2 GLC5        0.0000 
     16 CA         18.1670   29.3100   60.8110 C.3       6 GLL5        0.0000 
     17 CA         15.4210   27.2660   61.9520 C.3       4 GLP5        0.0000 
     18 CA         17.7900   28.3675   55.1075 C.3       2 GLC5        0.0000 
     19 CA         16.1760   27.5490   55.4670 C.3       6 GLL5        0.0000 
     20 CA         19.4040   29.1860   54.7480 C.3       4 GLP5        0.0000 
     21 CA         15.2970   29.2395   54.9060 C.3       2 GLC5        0.0000 
     22 CA         14.4180   30.9300   54.3450 C.3       4 GLP5        0.0000 
     23 CA         15.0675   27.0630   54.3145 C.3       2 GLC5        0.0000 
     24 CA         13.9590   26.5770   53.1620 C.3       4 GLP5        0.0000 
     25 CA         18.8390   25.9755   55.4095 C.3       2 GLC5        0.0000 
     26 CA         17.7090   25.5130   57.2200 C.3       6 GLL5        0.0000 
     27 CA         19.9690   26.4380   53.5990 C.3       4 GLP5        0.0000 
     28 CA         15.9195   25.8005   57.8485 C.3       2 GLC5        0.0000 
     29 CA         14.1300   26.0880   58.4770 C.3       4 GLP5        0.0000 
     30 CA         18.6200   25.0810   58.9190 C.3       2 GLC5        0.0000 
     31 CA         19.5310   24.6490   60.6180 C.3       4 GLP5        0.0000 
     32 CA         18.4145   24.0190   56.7785 C.3       2 GLC5        0.0000 
     33 CA         19.1200   22.5250   56.3370 C.3       4 GLP5        0.0000 
     34 CA         17.0455   24.0930   58.7955 C.3       2 GLC5        0.0000 
     35 CA         16.3820   22.6730   60.3710 C.3       4 GLP5        0.0000 
     36 N          22.2320   31.9150   59.3920 N.am      1 SEC2        0.0000 
     37 N          22.1410   31.6480   60.8930 N.am      5 SEL2        0.0000 
     38 N          22.3230   32.1820   57.8910 N.am      3 SEP2        0.0000 
     39 N          23.2590   30.3735   61.1210 N.am      1 SEC2        0.0000 
     40 N          24.3770   29.0990   61.3490 N.am      3 SEP2        0.0000 
     41 CA         26.5330   30.8550   63.5420 C.3       2 GLC5        0.0000 
     42 CA         25.6370   31.8930   61.7600 C.3       6 GLL5        0.0000 
     43 CA         27.4290   29.8170   65.3240 C.3       4 GLP5        0.0000 
     44 N          23.1805   34.0355   59.5010 N.am      1 SEC2        0.0000 
     45 N          23.9620   33.6310   60.6940 N.am      5 SEL2        0.0000 
     46 N          22.3990   34.4400   58.3080 N.am      3 SEP2        0.0000 
     47 CA         18.5397   28.2188   64.3932 C.3       2 GLC5        0.0000 
     48 CA         17.7910   26.5670   64.8290 C.3       4 GLP5        0.0000 
     49 CA         20.1400   32.2610   65.3140 C.3       2 GLC5        0.0000 
     50 CA         20.0300   34.0350   66.0020 C.3       4 GLP5        0.0000 
     51 CA         21.2595   30.1810   66.2990 C.3       2 GLC5        0.0000 
     52 CA         22.2690   29.8750   67.9720 C.3       4 GLP5        0.0000 
     53 CA         18.0370   31.3225   61.1167 C.3       2 GLC5        0.0000 
     54 CA         17.1400   32.8760   61.4480 C.3       4 GLP5        0.0000 
     55 CA         17.2600   31.1202   60.2417 C.3       2 GLC5        0.0000 
     56 CA         17.7130   28.8820   59.4560 C.3       6 GLL5        0.0000 
     57 CA         15.9208   26.7043   58.4650 C.3       2 GLC5        0.0000 
     58 CA         17.9540   27.5090   59.0970 C.3       6 GLL5        0.0000 
     59 CA         18.6212   25.9848   59.5355 C.3       2 GLC5        0.0000 
     60 CA         17.4690   27.1320   57.8090 C.3       6 GLL5        0.0000 
     61 CA         15.3215   28.9521   58.6169 C.3       2 GLC5        0.0000 
     62 CA         16.5780   29.4700   57.3220 C.3       6 GLL5        0.0000 
     63 CA         13.6640   28.4870   59.0550 C.3       4 GLP5        0.0000 
     64 CA         18.2404   28.5723   56.1125 C.3       2 GLC5        0.0000 
     65 CA         16.7910   28.1000   56.9680 C.3       6 GLL5        0.0000 
     66 CA         15.3067   26.9563   57.3472 C.3       2 GLC5        0.0000 
     67 CA         19.2867   32.0651   63.0056 C.3       2 GLC5        0.0000 
     68 CA         18.1630   33.5430   62.3370 C.3       4 GLP5        0.0000 
     69 CA         21.6951   29.2415   63.1915 C.3       2 GLC5        0.0000 
     70 CA         20.0320   30.3370   62.5530 C.3       6 GLL5        0.0000 
     71 CA         23.0780   27.9750   63.0510 C.3       4 GLP5        0.0000 
@<TRIPOS>BOND
@<TRIPOS>SUBSTRUCTURE
     1 SEC2       36 GROUP        1 X    SEC  0     ROOT SEC X 2
     2 GLC5        1 GROUP        1 X    GLC  0     **** GLC X 6
     3 SEP2       38 GROUP        1 Y    SEP  0     ROOT SEP Y 9
     4 GLP5        3 GROUP        1 Y    GLP  0     **** GLP Y 13
     5 SEL2       37 GROUP        1 Z    SEL  0     ROOT SEL Z 16
     6 GLL5        2 GROUP        1 Z    GLL  0     **** GLL Z 20
@<TRIPOS>SET

