#    Name: 3qch_NX2_1_ligand
#    Modification time : Tue Mar 25 09:36:55 2014

@<TRIPOS>MOLECULE
3qch_NX2_1_ligand
   33    34     1     0     0
SMALL
NO_CHARGES


@<TRIPOS>ATOM
      1 C1         20.0320   30.3370   62.5530 C.2       1 NX22001     0.0000 
      2 C2         19.0920   29.7120   63.2730 C.2       1 NX22001     0.0000 
      3 C3         19.4850   30.0290   64.6420 C.2       1 NX22001     0.0000 
      4 S4         21.0150   30.9450   64.6100 S.3       1 NX22001     0.0000 
      5 C5         21.1100   31.0380   62.8920 C.2       1 NX22001     0.0000 
      6 S6         19.7010   30.2280   60.7600 S.3       1 NX22001     0.0000 
      7 C7         18.1670   29.3100   60.8110 C.3       1 NX22001     0.0000 
      8 C8         17.7130   28.8820   59.4560 C.ar      1 NX22001     0.0000 
      9 C9         17.9540   27.5090   59.0970 C.ar      1 NX22001     0.0000 
     10 C10        16.5780   29.4700   57.3220 C.ar      1 NX22001     0.0000 
     11 C11        17.0470   29.8470   58.6150 C.ar      1 NX22001     0.0000 
     12 C12        17.4690   27.1320   57.8090 C.ar      1 NX22001     0.0000 
     13 C13        16.7910   28.1000   56.9680 C.ar      1 NX22001     0.0000 
     14 CL14       16.1760   27.5490   55.4670 Cl        1 NX22001     0.0000 
     15 CL15       17.7090   25.5130   57.2200 Cl        1 NX22001     0.0000 
     16 C16        22.1450   31.7440   62.1110 C.2       1 NX22001     0.0000 
     17 N17        23.0550   32.4750   62.7770 N.am      1 NX22001     0.0000 
     18 O18        22.1410   31.6480   60.8930 O.2       1 NX22001     0.0000 
     19 S19        24.3760   33.1540   62.0040 S.o2      1 NX22001     0.0000 
     20 C20        25.6370   31.8930   61.7600 C.3       1 NX22001     0.0000 
     21 O21        23.9620   33.6310   60.6940 O.2       1 NX22001     0.0000 
     22 O22        24.9370   34.1120   62.9360 O.2       1 NX22001     0.0000 
     23 H          18.3714   29.2068   63.0452 H         1 NX22001     0.0000 
     24 H          19.1560   29.8790   65.4407 H         1 NX22001     0.0000 
     25 H          17.4993   30.0027   61.2988 H         1 NX22001     0.0000 
     26 H          18.4091   28.4920   61.4712 H         1 NX22001     0.0000 
     27 H          18.4150   26.8875   59.6940 H         1 NX22001     0.0000 
     28 H          16.1387   30.1053   56.7145 H         1 NX22001     0.0000 
     29 H          16.9154   30.7958   58.9516 H         1 NX22001     0.0000 
     30 H          23.0660   32.6989   63.7641 H         1 NX22001     0.0000 
     31 H          26.4437   32.2593   61.2963 H         1 NX22001     0.0000 
     32 H          25.9483   31.5062   62.6280 H         1 NX22001     0.0000 
     33 H          25.2996   31.1329   61.2046 H         1 NX22001     0.0000 
@<TRIPOS>BOND
     1    2    1 1    
     2    5    1 2    
     3    6    1 1    
     4    3    2 2    
     5   23    2 1    
     6    4    3 1    
     7   24    3 1    
     8    5    4 1    
     9   16    5 1    
    10    7    6 1    
    11    8    7 1    
    12   25    7 1    
    13   26    7 1    
    14    9    8 ar   
    15   11    8 ar   
    16   12    9 ar   
    17   27    9 1    
    18   11   10 ar   
    19   13   10 ar   
    20   28   10 1    
    21   29   11 1    
    22   13   12 ar   
    23   15   12 1    
    24   14   13 1    
    25   17   16 am   
    26   18   16 2    
    27   19   17 1    
    28   30   17 1    
    29   20   19 1    
    30   21   19 2    
    31   22   19 2    
    32   31   20 1    
    33   32   20 1    
    34   33   20 1    
@<TRIPOS>SUBSTRUCTURE
     1 NX22001     1 GROUP   
@<TRIPOS>SET

