#    Name: 3oqu_A8S_2_INTS_M
#    Modification time : Tue Mar 25 05:02:54 2014

@<TRIPOS>MOLECULE
3oqu_A8S_2_INTS_M
   62     0     9     0     0
SMALL
NO_CHARGES


@<TRIPOS>ATOM
      1 CA          1.9720   20.4770   -3.8070 C.3       3 GLC5        0.0000 
      2 CA          1.3720   20.6890   -1.7080 C.3       9 GLL5        0.0000 
      3 CA          2.5720   20.2650   -5.9060 C.3       6 GLP5        0.0000 
      4 CA          3.2465   21.7895   -1.8145 C.3       3 GLC5        0.0000 
      5 CA          5.1210   22.8900   -1.9210 C.3       6 GLP5        0.0000 
      6 CA         -1.8965   22.8325   -3.9610 C.3       3 GLC5        0.0000 
      7 CA         -1.9550   22.2590   -1.8940 C.3       9 GLL5        0.0000 
      8 CA         -1.8380   23.4060   -6.0280 C.3       6 GLP5        0.0000 
      9 CA         -0.5805   22.9735   -4.6000 C.3       3 GLC5        0.0000 
     10 CA          0.6770   22.5410   -3.1720 C.3       9 GLL5        0.0000 
     11 CA          1.4365   21.9655   -4.9025 C.3       3 GLC5        0.0000 
     12 CA          2.1960   21.3900   -6.6330 C.3       6 GLP5        0.0000 
     13 CA          1.8335   23.7290   -4.2550 C.3       3 GLC5        0.0000 
     14 CA          2.9900   24.9170   -5.3380 C.3       6 GLP5        0.0000 
     15 CA         -4.7540   25.2375    0.9895 C.3       3 GLC5        0.0000 
     16 CA         -3.8810   24.6820   -0.9810 C.3       9 GLL5        0.0000 
     17 CA         -5.6270   25.7930    2.9600 C.3       6 GLP5        0.0000 
     18 CA         -6.5740   23.8545   -2.6425 C.3       3 GLC5        0.0000 
     19 CA         -4.5870   23.4350   -3.1490 C.3       9 GLL5        0.0000 
     20 CA         -8.5610   24.2740   -2.1360 C.3       6 GLP5        0.0000 
     21 CA         -6.1010   23.4780   -4.3315 C.3       3 GLC5        0.0000 
     22 CA         -7.6150   23.5210   -5.5140 C.3       6 GLP5        0.0000 
     23 CA         -3.2125   23.4205   -4.5885 C.3       3 GLC5        0.0000 
     24 NZ          0.8685   18.1095    0.5130 N.4       2 LYC4        0.0000 
     25 NZ          0.3140   19.7180    0.2060 N.4       8 LYL4        0.0000 
     26 NZ          1.4230   16.5010    0.8200 N.4       5 LYP4        0.0000 
     27 N           0.8685   18.1095    0.5130 N.am      1 SEC2        0.0000 
     28 N           0.3140   19.7180    0.2060 N.am      7 SEL2        0.0000 
     29 N           1.4230   16.5010    0.8200 N.am      4 SEP2        0.0000 
     30 N           1.4725   20.2000    1.0740 N.am      1 SEC2        0.0000 
     31 N           2.6310   20.6820    1.9420 N.am      4 SEP2        0.0000 
     32 NZ          1.7170   17.5855    0.0790 N.4       2 LYC4        0.0000 
     33 NZ          2.0110   18.6700   -0.6620 N.4       8 LYL4        0.0000 
     34 N           1.7170   17.5855    0.0790 N.am      1 SEC2        0.0000 
     35 N           2.0110   18.6700   -0.6620 N.am      7 SEL2        0.0000 
     36 CA         -3.2195   23.5395    2.9580 C.3       3 GLC5        0.0000 
     37 CA         -3.0250   23.5480    1.0270 C.3       9 GLL5        0.0000 
     38 CA         -3.4140   23.5310    4.8890 C.3       6 GLP5        0.0000 
     39 CA         -4.3260   24.6705    1.9935 C.3       3 GLC5        0.0000 
     40 CA         -1.9110   24.9965    0.8630 C.3       3 GLC5        0.0000 
     41 CA         -0.7970   26.4450    0.6990 C.3       6 GLP5        0.0000 
     42 CA         -5.3450   19.5690   -3.1590 C.3       3 GLC5        0.0000 
     43 CA         -4.1210   21.0190   -3.2930 C.3       9 GLL5        0.0000 
     44 CA         -6.5690   18.1190   -3.0250 C.3       6 GLP5        0.0000 
     45 CA         -3.0150   19.8485   -4.3125 C.3       3 GLC5        0.0000 
     46 CA         -1.9090   18.6780   -5.3320 C.3       6 GLP5        0.0000 
     47 CA         -2.9795   22.2125   -4.6605 C.3       3 GLC5        0.0000 
     48 CA         -6.0320   21.4350    0.1415 C.3       3 GLC5        0.0000 
     49 CA         -5.7600   21.8060   -1.6510 C.3       9 GLL5        0.0000 
     50 CA         -6.3040   21.0640    1.9340 C.3       6 GLP5        0.0000 
     51 CA         -7.1605   23.0400   -1.8935 C.3       3 GLC5        0.0000 
     52 CA         -6.1645   19.9625   -2.3380 C.3       3 GLC5        0.0000 
     53 CA         -1.6623   24.0252   -1.6567 C.3       3 GLC5        0.0000 
     54 CA         -0.6850   25.7910   -1.7460 C.3       6 GLP5        0.0000 
     55 CA         -0.2419   23.9131   -2.1042 C.3       3 GLC5        0.0000 
     56 CA         -0.9420   21.5180   -1.4280 C.3       9 GLL5        0.0000 
     57 CA         -4.7663   22.3032    1.1175 C.3       3 GLC5        0.0000 
     58 CA         -3.4320   23.5370   -0.4250 C.3       9 GLL5        0.0000 
     59 CA         -2.1707   24.9503   -1.2245 C.3       3 GLC5        0.0000 
     60 CA         -5.6508   21.9072   -4.3945 C.3       3 GLC5        0.0000 
     61 CA         -4.4260   22.1520   -2.3170 C.3       9 GLL5        0.0000 
     62 CA         -7.0280   22.2290   -5.9840 C.3       6 GLP5        0.0000 
@<TRIPOS>BOND
@<TRIPOS>SUBSTRUCTURE
     1 SEC2       27 GROUP        1 X    SEC  0     ROOT SEC X 2
     2 LYC4       24 GROUP        1 X    LYC  0     **** LYC X 4
     3 GLC5        1 GROUP        1 X    GLC  0     **** GLC X 6
     4 SEP2       29 GROUP        1 Y    SEP  0     ROOT SEP Y 9
     5 LYP4       26 GROUP        1 Y    LYP  0     **** LYP Y 11
     6 GLP5        3 GROUP        1 Y    GLP  0     **** GLP Y 13
     7 SEL2       28 GROUP        1 Z    SEL  0     ROOT SEL Z 16
     8 LYL4       25 GROUP        1 Z    LYL  0     **** LYL Z 18
     9 GLL5        2 GROUP        1 Z    GLL  0     **** GLL Z 20
@<TRIPOS>SET

