#    Name: 3oqu_A8S_2_ligand
#    Modification time : Tue Mar 25 05:02:54 2014

@<TRIPOS>MOLECULE
3oqu_A8S_2_ligand
   38    38     1     0     0
SMALL
NO_CHARGES


@<TRIPOS>ATOM
      1 C1          1.2200   19.6450   -0.6580 C.2       1 A8S191      0.0000 
      2 C2          1.3720   20.6890   -1.7080 C.2       1 A8S191      0.0000 
      3 C3          0.3930   21.5410   -2.0780 C.2       1 A8S191      0.0000 
      4 C4         -0.9420   21.5180   -1.4280 C.2       1 A8S191      0.0000 
      5 C5         -1.9550   22.2590   -1.8940 C.2       1 A8S191      0.0000 
      6 C6          0.6770   22.5410   -3.1720 C.3       1 A8S191      0.0000 
      7 C7         -3.3240   22.2600   -1.2410 C.3       1 A8S191      0.0000 
      8 O7         -3.4380   21.1350   -0.3450 O.3       1 A8S191      0.0000 
      9 C8         -3.4320   23.5370   -0.4250 C.2       1 A8S191      0.0000 
     10 C9         -3.8810   24.6820   -0.9810 C.2       1 A8S191      0.0000 
     11 C10        -4.5690   24.6920   -2.2950 C.2       1 A8S191      0.0000 
     12 O10        -5.1290   25.7170   -2.6850 O.2       1 A8S191      0.0000 
     13 C11        -4.5870   23.4350   -3.1490 C.3       1 A8S191      0.0000 
     14 O11         0.3140   19.7180    0.2060 O.co2     1 A8S191      0.0000 
     15 C12        -4.4260   22.1520   -2.3170 C.3       1 A8S191      0.0000 
     16 O12         2.0110   18.6700   -0.6620 O.co2     1 A8S191      0.0000 
     17 C13        -3.0250   23.5480    1.0270 C.3       1 A8S191      0.0000 
     18 C14        -4.1210   21.0190   -3.2930 C.3       1 A8S191      0.0000 
     19 C15        -5.7600   21.8060   -1.6510 C.3       1 A8S191      0.0000 
     20 H           2.3219   20.7199   -2.1564 H         1 A8S191      0.0000 
     21 H          -1.0267   20.8992   -0.6060 H         1 A8S191      0.0000 
     22 H          -1.8769   22.8755   -2.7217 H         1 A8S191      0.0000 
     23 H          -3.7705   25.6029   -0.5256 H         1 A8S191      0.0000 
     24 H          -3.7747   23.4819   -3.8838 H         1 A8S191      0.0000 
     25 H          -5.5341   23.3812   -3.6986 H         1 A8S191      0.0000 
     26 H           1.4320   23.1508   -2.9309 H         1 A8S191      0.0000 
     27 H           0.9255   22.0920   -4.0302 H         1 A8S191      0.0000 
     28 H          -0.1169   23.1185   -3.3625 H         1 A8S191      0.0000 
     29 H          -2.0633   23.3005    1.1450 H         1 A8S191      0.0000 
     30 H          -3.1484   24.4501    1.4405 H         1 A8S191      0.0000 
     31 H          -3.5626   22.9015    1.5683 H         1 A8S191      0.0000 
     32 H          -3.2487   21.1576   -3.7620 H         1 A8S191      0.0000 
     33 H          -4.0675   20.1343   -2.8300 H         1 A8S191      0.0000 
     34 H          -4.8241   20.9381   -3.9995 H         1 A8S191      0.0000 
     35 H          -5.7160   20.9348   -1.1620 H         1 A8S191      0.0000 
     36 H          -6.0350   22.5013   -0.9870 H         1 A8S191      0.0000 
     37 H          -6.5000   21.7300   -2.3193 H         1 A8S191      0.0000 
     38 H          -2.6799   21.2392    0.2988 H         1 A8S191      0.0000 
@<TRIPOS>BOND
     1    2    1 1    
     2   14    1 ar   
     3   16    1 ar   
     4    3    2 2    
     5   20    2 1    
     6    4    3 1    
     7    6    3 1    
     8    5    4 2    
     9   21    4 1    
    10    7    5 1    
    11   22    5 1    
    12   26    6 1    
    13   27    6 1    
    14   28    6 1    
    15    8    7 1    
    16    9    7 1    
    17   15    7 1    
    18   38    8 1    
    19   10    9 2    
    20   17    9 1    
    21   11   10 1    
    22   23   10 1    
    23   12   11 2    
    24   13   11 1    
    25   15   13 1    
    26   24   13 1    
    27   25   13 1    
    28   18   15 1    
    29   19   15 1    
    30   29   17 1    
    31   30   17 1    
    32   31   17 1    
    33   32   18 1    
    34   33   18 1    
    35   34   18 1    
    36   35   19 1    
    37   36   19 1    
    38   37   19 1    
@<TRIPOS>SUBSTRUCTURE
     1 A8S191      1 GROUP   
@<TRIPOS>SET

