#    Name: 1g8j_MGD_3_INTS_M
#    Modification time : Tue Mar 25 02:46:14 2014

@<TRIPOS>MOLECULE
1g8j_MGD_3_INTS_M
  102     0     9     0     0
SMALL
NO_CHARGES


@<TRIPOS>ATOM
      1 N          -1.9975    6.5390   37.9735 N.am      2 SEC2        0.0000 
      2 N          -3.2350    6.0280   37.1620 N.am      8 SEL2        0.0000 
      3 N          -0.7600    7.0500   38.7850 N.am      5 SEP2        0.0000 
      4 N          -3.2140    5.8830   38.3530 N.am      2 SEC2        0.0000 
      5 N          -3.1930    5.7380   39.5440 N.am      5 SEP2        0.0000 
      6 N          -2.9490    7.4315   34.2970 N.am      2 SEC2        0.0000 
      7 N          -3.9470    6.4350   34.7380 N.am      8 SEL2        0.0000 
      8 N          -1.9510    8.4280   33.8560 N.am      5 SEP2        0.0000 
      9 N          -5.2125    6.2240   33.9475 N.am      2 SEC2        0.0000 
     10 N          -6.4780    6.0130   33.1570 N.am      5 SEP2        0.0000 
     11 N          -6.4900   10.5895   36.8150 N.am      2 SEC2        0.0000 
     12 N          -5.7540    9.9660   35.5940 N.am      8 SEL2        0.0000 
     13 N          -7.2260   11.2130   38.0360 N.am      5 SEP2        0.0000 
     14 N          -7.9235    7.8215   37.7535 N.am      2 SEC2        0.0000 
     15 N          -7.0940    8.6690   37.1340 N.am      8 SEL2        0.0000 
     16 N          -8.7530    6.9740   38.3730 N.am      5 SEP2        0.0000 
     17 N          -7.1600    9.9410   37.5850 N.am      2 SEC2        0.0000 
     18 N          -6.0005    5.7420   34.7885 N.am      2 SEC2        0.0000 
     19 N          -5.5230    5.4710   36.4200 N.am      8 SEL2        0.0000 
     20 CA         -3.7115    3.3905   36.2480 C.3       3 GLC5        0.0000 
     21 CA         -5.6230    4.1970   35.8310 C.3       9 GLL5        0.0000 
     22 CA         -1.8000    2.5840   36.6650 C.3       6 GLP5        0.0000 
     23 CA         -8.1490    2.8730   35.6985 C.3       3 GLC5        0.0000 
     24 CA         -6.3840    3.2880   36.7620 C.3       9 GLL5        0.0000 
     25 CA         -9.9140    2.4580   34.6350 C.3       6 GLP5        0.0000 
     26 CA         -3.8175    2.6680   37.9930 C.3       3 GLC5        0.0000 
     27 CA         -5.5840    2.7810   37.9520 C.3       9 GLL5        0.0000 
     28 CA         -2.0510    2.5550   38.0340 C.3       6 GLP5        0.0000 
     29 N          -7.5205    2.1665   39.1430 N.am      2 SEC2        0.0000 
     30 N          -6.2970    2.8970   39.1760 N.am      8 SEL2        0.0000 
     31 N          -8.7440    1.4360   39.1100 N.am      5 SEP2        0.0000 
     32 CA         -3.6990    1.3390   38.1695 C.3       3 GLC5        0.0000 
     33 CA         -5.2870    1.3300   37.6080 C.3       9 GLL5        0.0000 
     34 CA         -2.1110    1.3480   38.7310 C.3       6 GLP5        0.0000 
     35 O          -6.3950    0.0595   39.1400 O.2       1 ALC1        0.0000 
     36 O          -5.2470    0.5450   38.7830 O.2       7 ALL1        0.0000 
     37 O          -7.5430   -0.4260   39.4970 O.2       4 ALP1        0.0000 
     38 CA         -8.1925    1.7110   35.6710 C.3       3 GLC5        0.0000 
     39 CA         -6.4710    0.9640   36.7070 C.3       9 GLL5        0.0000 
     40 O          -9.3920   -2.5865   32.3995 O.2       1 ALC1        0.0000 
     41 O          -8.4820   -2.2880   33.4120 O.2       7 ALL1        0.0000 
     42 O         -10.3020   -2.8850   31.3870 O.2       4 ALP1        0.0000 
     43 O         -11.2380   -0.8695   35.5625 O.2       1 ALC1        0.0000 
     44 O         -10.4380   -1.5870   34.4330 O.2       7 ALL1        0.0000 
     45 O         -12.0380   -0.1520   36.6920 O.2       4 ALP1        0.0000 
     46 O         -10.3700   -2.2360   32.9100 O.2       1 ALC1        0.0000 
     47 O         -11.2355   -2.1215   33.5805 O.2       1 ALC1        0.0000 
     48 O         -12.0330   -2.6560   32.7280 O.2       4 ALP1        0.0000 
     49 CA         -8.5125    0.8530   34.8145 C.3       3 GLC5        0.0000 
     50 CA         -7.1110   -0.7520   34.9940 C.3       9 GLL5        0.0000 
     51 CA         -5.7530    9.6625   32.8565 C.3       3 GLC5        0.0000 
     52 CA         -4.7170   10.1970   34.6900 C.3       9 GLL5        0.0000 
     53 CA         -6.7890    9.1280   31.0230 C.3       6 GLP5        0.0000 
     54 CA         -4.8030   10.5340   36.6355 C.3       3 GLC5        0.0000 
     55 CA         -4.8890   10.8710   38.5810 C.3       6 GLP5        0.0000 
     56 CA         -5.3520   11.7645   36.2675 C.3       3 GLC5        0.0000 
     57 CA         -4.7210   11.6310   34.2900 C.3       9 GLL5        0.0000 
     58 CA         -5.9830   11.8980   38.2450 C.3       6 GLP5        0.0000 
     59 CA         -5.0705    9.9080   31.4735 C.3       3 GLC5        0.0000 
     60 CA         -3.3520   10.6880   31.9240 C.3       9 GLL5        0.0000 
     61 CA         -2.2745   14.3970   30.0325 C.3       3 GLC5        0.0000 
     62 CA         -2.2940   13.3780   31.5170 C.3       9 GLL5        0.0000 
     63 CA         -2.2550   15.4160   28.5480 C.3       6 GLP5        0.0000 
     64 CA         -3.8005   15.7235   32.5025 C.3       3 GLC5        0.0000 
     65 CA         -3.6170   14.3320   33.9080 C.3       9 GLL5        0.0000 
     66 CA         -3.9840   17.1150   31.0970 C.3       6 GLP5        0.0000 
     67 N           0.3320   15.5735   34.1985 N.am      2 SEC2        0.0000 
     68 N          -0.3220   16.8090   34.7500 N.am      8 SEL2        0.0000 
     69 N           0.9860   14.3380   33.6470 N.am      5 SEP2        0.0000 
     70 N           0.7080   17.6400   34.4540 N.am      2 SEC2        0.0000 
     71 N           1.7380   18.4710   34.1580 N.am      5 SEP2        0.0000 
     72 O          -0.3675   18.3635   37.1325 O.2       1 ALC1        0.0000 
     73 O          -1.2310   17.4580   36.7130 O.2       7 ALL1        0.0000 
     74 O           0.4960   19.2690   37.5520 O.2       4 ALP1        0.0000 
     75 O          -1.5185   18.6865   39.7015 O.2       1 ALC1        0.0000 
     76 O          -2.2010   18.1880   38.6950 O.2       7 ALL1        0.0000 
     77 O          -0.8360   19.1850   40.7080 O.2       4 ALP1        0.0000 
     78 O          -5.5380   14.6620   37.0930 O.2       1 ALC1        0.0000 
     79 O          -4.3430   14.6750   36.3010 O.2       7 ALL1        0.0000 
     80 O          -6.7330   14.6490   37.8850 O.2       4 ALP1        0.0000 
     81 CA         -5.2760   12.8925   36.6540 C.3       3 GLC5        0.0000 
     82 CA         -4.5690   13.8870   35.0630 C.3       9 GLL5        0.0000 
     83 CA         -5.5945   15.7145   35.0195 C.3       3 GLC5        0.0000 
     84 CA         -6.6200   17.5420   34.9760 C.3       6 GLP5        0.0000 
     85 CA         -7.5488    4.7523   36.3028 C.3       3 GLC5        0.0000 
     86 CA         -9.0940    5.7620   36.3090 C.3       6 GLP5        0.0000 
     87 CA         -6.6873   -0.6472   32.6785 C.3       3 GLC5        0.0000 
     88 CA         -6.6190   -0.1780   30.8260 C.3       6 GLP5        0.0000 
     89 CA         -6.1792   -2.3217   35.5910 C.3       3 GLC5        0.0000 
     90 CA         -6.4000   -1.4810   34.0680 C.3       9 GLL5        0.0000 
     91 CA         -5.6030   -3.5270   36.6510 C.3       6 GLP5        0.0000 
     92 CA         -5.6505   11.8475   33.0180 C.3       3 GLC5        0.0000 
     93 CA         -6.5820   12.7810   31.5460 C.3       6 GLP5        0.0000 
     94 CA         -5.0787   12.0360   32.0328 C.3       3 GLC5        0.0000 
     95 CA         -3.7990   11.8940   33.1150 C.3       9 GLL5        0.0000 
     96 CA         -4.6877   13.0267   31.8870 C.3       3 GLC5        0.0000 
     97 CA         -3.2930   13.1670   32.9390 C.3       9 GLL5        0.0000 
     98 CA         -3.8798   14.7523   31.4170 C.3       3 GLC5        0.0000 
     99 CA         -4.9660   16.2320   30.6060 C.3       6 GLP5        0.0000 
    100 CA         -5.3375   13.4452   33.0158 C.3       3 GLC5        0.0000 
    101 CA         -2.6455   13.3073   35.7782 C.3       3 GLC5        0.0000 
    102 CA         -1.1980   12.5050   37.0710 C.3       6 GLP5        0.0000 
@<TRIPOS>BOND
@<TRIPOS>SUBSTRUCTURE
     1 ALC1       35 GROUP        1 X    ALC  0     ROOT ALC X 1
     2 SEC2        1 GROUP        1 X    SEC  0     **** SEC X 2
     3 GLC5       20 GROUP        1 X    GLC  0     **** GLC X 6
     4 ALP1       37 GROUP        1 Y    ALP  0     ROOT ALP Y 8
     5 SEP2        3 GROUP        1 Y    SEP  0     **** SEP Y 9
     6 GLP5       22 GROUP        1 Y    GLP  0     **** GLP Y 13
     7 ALL1       36 GROUP        1 Z    ALL  0     ROOT ALL Z 15
     8 SEL2        2 GROUP        1 Z    SEL  0     **** SEL Z 16
     9 GLL5       21 GROUP        1 Z    GLL  0     **** GLL Z 20
@<TRIPOS>SET

