#    Name: 1g8j_MGD_3_ligand
#    Modification time : Tue Mar 25 02:46:15 2014

@<TRIPOS>MOLECULE
1g8j_MGD_3_ligand
   69    74     1     0     0
SMALL
NO_CHARGES


@<TRIPOS>ATOM
      1 PB         -4.2710    6.4280   36.1740 P.3       1 MGD3001     0.0000 
      2 O1B        -3.2350    6.0280   37.1620 O.co2     1 MGD3001     0.0000 
      3 O2B        -3.9470    6.4350   34.7380 O.co2     1 MGD3001     0.0000 
      4 O3B        -4.7900    7.8650   36.6130 O.3       1 MGD3001     0.0000 
      5 O3A        -5.7540    9.9660   35.5940 O.3       1 MGD3001     0.0000 
      6 PA         -6.1390    8.5010   36.0250 P.3       1 MGD3001     0.0000 
      7 O1A        -6.5330    7.8000   34.7940 O.co2     1 MGD3001     0.0000 
      8 O2A        -7.0940    8.6690   37.1340 O.co2     1 MGD3001     0.0000 
      9 O5'        -5.5230    5.4710   36.4200 O.3       1 MGD3001     0.0000 
     10 C5'        -5.6230    4.1970   35.8310 C.3       1 MGD3001     0.0000 
     11 C4'        -6.3840    3.2880   36.7620 C.3       1 MGD3001     0.0000 
     12 O4'        -6.8400    2.1380   36.0240 O.3       1 MGD3001     0.0000 
     13 C3'        -5.5840    2.7810   37.9520 C.3       1 MGD3001     0.0000 
     14 O3'        -6.2970    2.8970   39.1760 O.3       1 MGD3001     0.0000 
     15 C2'        -5.2870    1.3300   37.6080 C.3       1 MGD3001     0.0000 
     16 O2'        -5.2470    0.5450   38.7830 O.3       1 MGD3001     0.0000 
     17 C1'        -6.4710    0.9640   36.7070 C.3       1 MGD3001     0.0000 
     18 N9         -6.1770   -0.0140   35.6720 N.pl3     1 MGD3001     0.0000 
     19 C8         -4.9530   -0.3540   35.1480 C.2       1 MGD3001     0.0000 
     20 N7         -5.0390   -1.2240   34.1790 N.2       1 MGD3001     0.0000 
     21 C5         -6.4000   -1.4810   34.0680 C.2       1 MGD3001     0.0000 
     22 C6         -7.1060   -2.3380   33.1850 C.2       1 MGD3001     0.0000 
     23 O6         -6.6500   -3.0690   32.2990 O.2       1 MGD3001     0.0000 
     24 N1         -8.4820   -2.2880   33.4120 N.am      1 MGD3001     0.0000 
     25 C2         -9.0970   -1.5150   34.3690 C.2       1 MGD3001     0.0000 
     26 N2        -10.4380   -1.5870   34.4330 N.pl3     1 MGD3001     0.0000 
     27 N3         -8.4470   -0.7210   35.2040 N.2       1 MGD3001     0.0000 
     28 C4         -7.1110   -0.7520   34.9940 C.2       1 MGD3001     0.0000 
     29 C10        -4.7170   10.1970   34.6900 C.3       1 MGD3001     0.0000 
     30 C11        -4.7210   11.6310   34.2900 C.3       1 MGD3001     0.0000 
     31 O11        -4.4350   12.4920   35.3880 O.3       1 MGD3001     0.0000 
     32 C12        -3.7990   11.8940   33.1150 C.2       1 MGD3001     0.0000 
     33 S12        -3.3520   10.6880   31.9240 S.3       1 MGD3001     0.0000 
     34 C13        -3.2930   13.1670   32.9390 C.2       1 MGD3001     0.0000 
     35 S13        -2.2940   13.3780   31.5170 S.3       1 MGD3001     0.0000 
     36 C14        -3.6170   14.3320   33.9080 C.3       1 MGD3001     0.0000 
     37 N15        -2.2860   14.7330   34.3720 N.pl3     1 MGD3001     0.0000 
     38 C16        -2.2800   15.6410   35.4140 C.2       1 MGD3001     0.0000 
     39 C17        -1.1950   16.6180   35.5910 C.2       1 MGD3001     0.0000 
     40 O17        -0.3220   16.8090   34.7500 O.2       1 MGD3001     0.0000 
     41 N18        -1.2310   17.4580   36.7130 N.am      1 MGD3001     0.0000 
     42 C19        -2.2700   17.3710   37.6410 C.2       1 MGD3001     0.0000 
     43 N19        -2.2010   18.1880   38.6950 N.pl3     1 MGD3001     0.0000 
     44 N20        -3.2780   16.4590   37.4680 N.2       1 MGD3001     0.0000 
     45 C21        -3.3130   15.5940   36.3830 C.2       1 MGD3001     0.0000 
     46 N22        -4.3430   14.6750   36.3010 N.pl3     1 MGD3001     0.0000 
     47 C23        -4.5690   13.8870   35.0630 C.3       1 MGD3001     0.0000 
     48 H          -4.6382    3.7485   35.6492 H         1 MGD3001     0.0000 
     49 H          -6.1581    4.2264   34.8735 H         1 MGD3001     0.0000 
     50 H          -7.2524    3.8274   37.1463 H         1 MGD3001     0.0000 
     51 H          -4.6447    3.3081   37.9598 H         1 MGD3001     0.0000 
     52 H          -4.4069    1.3033   37.0255 H         1 MGD3001     0.0000 
     53 H          -7.2820    0.6295   37.3286 H         1 MGD3001     0.0000 
     54 H          -4.1063    0.0440   35.4980 H         1 MGD3001     0.0000 
     55 H          -9.0969   -2.8988   32.7919 H         1 MGD3001     0.0000 
     56 H         -10.8447   -1.4286   35.3327 H         1 MGD3001     0.0000 
     57 H         -10.9091   -1.7925   33.5752 H         1 MGD3001     0.0000 
     58 H          -4.8196    9.5850   33.7785 H         1 MGD3001     0.0000 
     59 H          -3.7307    9.9634   35.1243 H         1 MGD3001     0.0000 
     60 H          -5.7583   11.8584   33.9206 H         1 MGD3001     0.0000 
     61 H          -4.0655   15.1097   33.3383 H         1 MGD3001     0.0000 
     62 H          -1.4825   14.3604   33.9468 H         1 MGD3001     0.0000 
     63 H          -0.4776   18.1493   36.8522 H         1 MGD3001     0.0000 
     64 H          -1.3955   18.0862   39.2786 H         1 MGD3001     0.0000 
     65 H          -2.9611   18.8282   38.8059 H         1 MGD3001     0.0000 
     66 H          -4.9823   14.5035   37.0801 H         1 MGD3001     0.0000 
     67 H          -5.5962   14.0863   34.7200 H         1 MGD3001     0.0000 
     68 H          -5.9350    2.1675   39.7564 H         1 MGD3001     0.0000 
     69 H          -6.1883    0.2366   38.9203 H         1 MGD3001     0.0000 
@<TRIPOS>BOND
     1    2    1 ar   
     2    3    1 ar   
     3    4    1 1    
     4    9    1 1    
     5    6    4 1    
     6    6    5 1    
     7   29    5 1    
     8    7    6 ar   
     9    8    6 ar   
    10   10    9 1    
    11   11   10 1    
    12   48   10 1    
    13   49   10 1    
    14   12   11 1    
    15   13   11 1    
    16   50   11 1    
    17   17   12 1    
    18   14   13 1    
    19   15   13 1    
    20   51   13 1    
    21   68   14 1    
    22   16   15 1    
    23   17   15 1    
    24   52   15 1    
    25   69   16 1    
    26   18   17 1    
    27   53   17 1    
    28   19   18 1    
    29   28   18 1    
    30   20   19 2    
    31   54   19 1    
    32   21   20 1    
    33   22   21 1    
    34   28   21 2    
    35   23   22 2    
    36   24   22 am   
    37   25   24 1    
    38   55   24 1    
    39   26   25 1    
    40   27   25 2    
    41   56   26 1    
    42   57   26 1    
    43   28   27 1    
    44   30   29 1    
    45   58   29 1    
    46   59   29 1    
    47   31   30 1    
    48   32   30 1    
    49   60   30 1    
    50   47   31 1    
    51   33   32 1    
    52   34   32 2    
    53   35   34 1    
    54   36   34 1    
    55   37   36 1    
    56   47   36 1    
    57   61   36 1    
    58   38   37 1    
    59   62   37 1    
    60   39   38 1    
    61   45   38 2    
    62   40   39 2    
    63   41   39 am   
    64   42   41 1    
    65   63   41 1    
    66   43   42 1    
    67   44   42 2    
    68   64   43 1    
    69   65   43 1    
    70   45   44 1    
    71   46   45 1    
    72   47   46 1    
    73   66   46 1    
    74   67   47 1    
@<TRIPOS>SUBSTRUCTURE
     1 MGD3001     1 GROUP   
@<TRIPOS>SET

