#    Name: 2ikf_UTP_1_INTS_M
#    Modification time : Tue Mar 25 18:19:28 2014

@<TRIPOS>MOLECULE
2ikf_UTP_1_INTS_M
   71     0    15     0     0
SMALL
NO_CHARGES


@<TRIPOS>ATOM
      1 Zn         20.8565   24.4305  -46.5730 Zn        4 ZIC7        0.0000 
      2 Zn         22.0100   24.8540  -46.7820 Zn       14 ZIL7        0.0000 
      3 Zn         19.7030   24.0070  -46.3640 Zn        9 ZIP7        0.0000 
      4 N          25.6340   24.4650  -45.1555 N.am      2 SEC2        0.0000 
      5 N          24.5580   24.8680  -46.3730 N.am     12 SEL2        0.0000 
      6 N          26.7100   24.0620  -43.9380 N.am      7 SEP2        0.0000 
      7 Zn         20.2055   23.3375  -45.4935 Zn        4 ZIC7        0.0000 
      8 Zn         20.7080   22.6680  -44.6230 Zn       14 ZIL7        0.0000 
      9 N          20.2670   21.6275  -43.9225 N.am      2 SEC2        0.0000 
     10 N          20.7080   22.6680  -44.6230 N.am     12 SEL2        0.0000 
     11 N          19.8260   20.5870  -43.2220 N.am      7 SEP2        0.0000 
     12 N          21.1920   24.8145  -41.6275 N.am      2 SEC2        0.0000 
     13 N          21.5350   24.7010  -43.2490 N.am     12 SEL2        0.0000 
     14 N          20.8490   24.9280  -40.0060 N.am      7 SEP2        0.0000 
     15 NZ         21.1995   28.3435  -43.0200 N.4       3 LYC4        0.0000 
     16 NZ         21.4800   27.1980  -43.7870 N.4      13 LYL4        0.0000 
     17 NZ         20.9190   29.4890  -42.2530 N.4       8 LYP4        0.0000 
     18 N          21.1995   28.3435  -43.0200 N.am      2 SEC2        0.0000 
     19 N          21.4800   27.1980  -43.7870 N.am     12 SEL2        0.0000 
     20 N          20.9190   29.4890  -42.2530 N.am      7 SEP2        0.0000 
     21 N          22.7160   27.2945  -43.4340 N.am      2 SEC2        0.0000 
     22 N          23.9520   27.3910  -43.0810 N.am      7 SEP2        0.0000 
     23 NZ         20.2310   25.4860  -41.2325 N.4       3 LYC4        0.0000 
     24 NZ         19.6130   26.0440  -42.4590 N.4      13 LYL4        0.0000 
     25 NZ         20.8490   24.9280  -40.0060 N.4       8 LYP4        0.0000 
     26 NZ         20.2660   27.7665  -42.3560 N.4       3 LYC4        0.0000 
     27 N          18.5275   26.3365  -42.0215 N.am      2 SEC2        0.0000 
     28 N          19.6130   26.0440  -42.4590 N.am     12 SEL2        0.0000 
     29 N          17.4420   26.6290  -41.5840 N.am      7 SEP2        0.0000 
     30 N          20.2310   25.4860  -41.2325 N.am      2 SEC2        0.0000 
     31 Zn         19.7955   24.8400  -45.6245 Zn        4 ZIC7        0.0000 
     32 Zn         19.8880   25.6730  -44.8850 Zn       14 ZIL7        0.0000 
     33 CA         20.2650   21.0430  -48.1650 C.3       5 GLC5        0.0000 
     34 CA         22.1890   21.8320  -47.3950 C.3      15 GLL5        0.0000 
     35 CA         18.3410   20.2540  -48.9350 C.3      10 GLP5        0.0000 
     36 CA         23.0435   19.0410  -49.4230 C.3       5 GLC5        0.0000 
     37 CA         24.6670   19.7550  -48.7670 C.3      15 GLL5        0.0000 
     38 CA         21.4200   18.3270  -50.0790 C.3      10 GLP5        0.0000 
     39 CA         24.3675   17.6220  -49.2895 C.3       5 GLC5        0.0000 
     40 CA         24.0680   15.4890  -49.8120 C.3      10 GLP5        0.0000 
     41 CA         26.2930   19.5375  -46.1155 C.3       5 GLC5        0.0000 
     42 CA         24.7910   19.2320  -47.3310 C.3      15 GLL5        0.0000 
     43 CA         27.7950   19.8430  -44.9000 C.3      10 GLP5        0.0000 
     44 N          23.3995   17.2190  -46.3200 N.am      2 SEC2        0.0000 
     45 N          24.3290   17.9010  -47.3500 N.am     12 SEL2        0.0000 
     46 N          22.4700   16.5370  -45.2900 N.am      7 SEP2        0.0000 
     47 O          25.1890   17.1345  -46.8285 O.2       1 ALC1        0.0000 
     48 O          24.3290   17.9010  -47.3500 O.2      11 ALL1        0.0000 
     49 O          26.0490   16.3680  -46.3070 O.2       6 ALP1        0.0000 
     50 CA         25.5725   21.1780  -45.9825 C.3       5 GLC5        0.0000 
     51 CA         23.8740   20.1040  -46.5200 C.3      15 GLL5        0.0000 
     52 CA         27.2710   22.2520  -45.4450 C.3      10 GLP5        0.0000 
     53 O          22.9760   17.9210  -45.3330 O.2       1 ALC1        0.0000 
     54 O          23.4820   19.3050  -45.3760 O.2      11 ALL1        0.0000 
     55 O          22.4700   16.5370  -45.2900 O.2       6 ALP1        0.0000 
     56 CA         26.5630   22.0530  -47.1780 C.3       5 GLC5        0.0000 
     57 CA         25.8550   21.8540  -48.9110 C.3      15 GLL5        0.0000 
     58 N          27.2975   17.4805  -48.9005 N.am      2 SEC2        0.0000 
     59 N          27.1180   18.7130  -49.7830 N.am     12 SEL2        0.0000 
     60 N          27.4770   16.2480  -48.0180 N.am      7 SEP2        0.0000 
     61 CA         27.5940   24.6960  -48.7830 C.3       5 GLC5        0.0000 
     62 CA         26.9750   22.6370  -49.2250 C.3      15 GLL5        0.0000 
     63 CA         28.2130   26.7550  -48.3410 C.3      10 GLP5        0.0000 
     64 CA         28.0090   21.7770  -47.9295 C.3       5 GLC5        0.0000 
     65 CA         29.0430   20.9170  -46.6340 C.3      10 GLP5        0.0000 
     66 CA         21.9610   19.7468  -48.7892 C.3       5 GLC5        0.0000 
     67 CA         22.8150   20.5010  -47.6040 C.3      15 GLL5        0.0000 
     68 CA         22.7952   18.5740  -47.9282 C.3       5 GLC5        0.0000 
     69 CA         21.2580   17.4800  -48.9310 C.3      10 GLP5        0.0000 
     70 CA         21.8000   19.9961  -46.1089 C.3       5 GLC5        0.0000 
     71 CA         20.4120   19.3570  -45.2080 C.3      10 GLP5        0.0000 
@<TRIPOS>BOND
@<TRIPOS>SUBSTRUCTURE
     1 ALC1       47 GROUP        1 X    ALC  0     ROOT ALC X 1
     2 SEC2        4 GROUP        1 X    SEC  0     **** SEC X 2
     3 LYC4       15 GROUP        1 X    LYC  0     **** LYC X 4
     4 ZIC7        1 GROUP        1 X    ZIC  0     **** ZIC X 5
     5 GLC5       33 GROUP        1 X    GLC  0     **** GLC X 6
     6 ALP1       49 GROUP        1 Y    ALP  0     ROOT ALP Y 8
     7 SEP2        6 GROUP        1 Y    SEP  0     **** SEP Y 9
     8 LYP4       17 GROUP        1 Y    LYP  0     **** LYP Y 11
     9 ZIP7        3 GROUP        1 Y    ZIP  0     **** ZIP Y 12
    10 GLP5       35 GROUP        1 Y    GLP  0     **** GLP Y 13
    11 ALL1       48 GROUP        1 Z    ALL  0     ROOT ALL Z 15
    12 SEL2        5 GROUP        1 Z    SEL  0     **** SEL Z 16
    13 LYL4       16 GROUP        1 Z    LYL  0     **** LYL Z 18
    14 ZIL7        2 GROUP        1 Z    ZIL  0     **** ZIL Z 19
    15 GLL5       34 GROUP        1 Z    GLL  0     **** GLL Z 20
@<TRIPOS>SET

