#    Name: 2ikf_UTP_1_ligand
#    Modification time : Tue Mar 25 18:19:28 2014

@<TRIPOS>MOLECULE
2ikf_UTP_1_ligand
   40    41     1     0     0
SMALL
NO_CHARGES


@<TRIPOS>ATOM
      1 PA         23.2270   24.0380  -46.3500 P.3       1 UTP501      0.0000 
      2 O1A        22.0100   24.8540  -46.7820 O.co2     1 UTP501      0.0000 
      3 O2A        24.5580   24.8680  -46.3730 O.co2     1 UTP501      0.0000 
      4 O3A        23.0680   23.4720  -44.8790 O.3       1 UTP501      0.0000 
      5 O5'        23.2810   22.7520  -47.2710 O.3       1 UTP501      0.0000 
      6 PB         21.8800   23.3060  -43.9130 P.3       1 UTP501      0.0000 
      7 O1B        20.7080   22.6680  -44.6230 O.co2     1 UTP501      0.0000 
      8 O2B        22.3020   22.4050  -42.7920 O.co2     1 UTP501      0.0000 
      9 O3B        21.5350   24.7010  -43.2490 O.3       1 UTP501      0.0000 
     10 PG         20.5990   25.9160  -43.6100 P.3       1 UTP501      0.0000 
     11 O1G        21.4800   27.1980  -43.7870 O.co2     1 UTP501      0.0000 
     12 O2G        19.6130   26.0440  -42.4590 O.co2     1 UTP501      0.0000 
     13 O3G        19.8880   25.6730  -44.8850 O.co2     1 UTP501      0.0000 
     14 C5'        22.1890   21.8320  -47.3950 C.3       1 UTP501      0.0000 
     15 C4'        22.8150   20.5010  -47.6040 C.3       1 UTP501      0.0000 
     16 O4'        23.4430   20.4530  -48.8890 O.3       1 UTP501      0.0000 
     17 C1'        24.6670   19.7550  -48.7670 C.3       1 UTP501      0.0000 
     18 C2'        24.7910   19.2320  -47.3310 C.3       1 UTP501      0.0000 
     19 O2'        24.3290   17.9010  -47.3500 O.3       1 UTP501      0.0000 
     20 C3'        23.8740   20.1040  -46.5200 C.3       1 UTP501      0.0000 
     21 O3'        23.4820   19.3050  -45.3760 O.3       1 UTP501      0.0000 
     22 N1         25.8750   20.5450  -49.0880 N.am      1 UTP501      0.0000 
     23 C6         25.8550   21.8540  -48.9110 C.2       1 UTP501      0.0000 
     24 C2         26.9960   19.9410  -49.5760 C.2       1 UTP501      0.0000 
     25 O2         27.1180   18.7130  -49.7830 O.2       1 UTP501      0.0000 
     26 N3         28.0950   20.6810  -49.8950 N.am      1 UTP501      0.0000 
     27 C4         28.1010   21.9760  -49.7330 C.2       1 UTP501      0.0000 
     28 O4         29.2180   22.6450  -50.0740 O.2       1 UTP501      0.0000 
     29 C5         26.9750   22.6370  -49.2250 C.2       1 UTP501      0.0000 
     30 H          21.5650   22.0712  -48.2467 H         1 UTP501      0.0000 
     31 H          21.5886   21.8071  -46.4946 H         1 UTP501      0.0000 
     32 H          22.0311   19.7277  -47.5612 H         1 UTP501      0.0000 
     33 H          24.6614   18.8528  -49.4040 H         1 UTP501      0.0000 
     34 H          25.7791   19.3450  -47.0203 H         1 UTP501      0.0000 
     35 H          24.4329   20.9758  -46.2652 H         1 UTP501      0.0000 
     36 H          25.0138   22.3446  -48.5354 H         1 UTP501      0.0000 
     37 H          28.9382   20.1770  -50.2757 H         1 UTP501      0.0000 
     38 H          26.9697   23.6341  -49.0906 H         1 UTP501      0.0000 
     39 H          25.1527   17.3426  -47.4491 H         1 UTP501      0.0000 
     40 H          23.3953   18.3733  -45.7287 H         1 UTP501      0.0000 
@<TRIPOS>BOND
     1    2    1 ar   
     2    3    1 ar   
     3    4    1 1    
     4    5    1 1    
     5    6    4 1    
     6   14    5 1    
     7    7    6 ar   
     8    8    6 ar   
     9    9    6 1    
    10   10    9 1    
    11   11   10 ar   
    12   12   10 ar   
    13   13   10 ar   
    14   15   14 1    
    15   30   14 1    
    16   31   14 1    
    17   16   15 1    
    18   20   15 1    
    19   32   15 1    
    20   17   16 1    
    21   18   17 1    
    22   22   17 1    
    23   33   17 1    
    24   19   18 1    
    25   20   18 1    
    26   34   18 1    
    27   39   19 1    
    28   21   20 1    
    29   35   20 1    
    30   40   21 1    
    31   23   22 1    
    32   24   22 1    
    33   29   23 2    
    34   36   23 1    
    35   25   24 2    
    36   26   24 1    
    37   27   26 1    
    38   37   26 1    
    39   28   27 2    
    40   29   27 1    
    41   38   29 1    
@<TRIPOS>SUBSTRUCTURE
     1 UTP501      1 GROUP   
@<TRIPOS>SET

