#    Name: 2hj3_FAD_1_INTS_M
#    Modification time : Tue Mar 25 16:34:16 2014

@<TRIPOS>MOLECULE
2hj3_FAD_1_INTS_M
  101     0    12     0     0
SMALL
NO_CHARGES


@<TRIPOS>ATOM
      1 N           6.6960  -41.5955    6.8965 N.am      2 SEC2        0.0000 
      2 N           7.1750  -42.5240    6.1590 N.am     10 SEL2        0.0000 
      3 N           6.2170  -40.6670    7.6340 N.am      6 SEP2        0.0000 
      4 CA         10.2055  -39.8100    7.7595 C.3       4 GLC5        0.0000 
      5 CA         10.5580  -41.8360    8.1400 C.3      12 GLL5        0.0000 
      6 CA          9.8530  -37.7840    7.3790 C.3       8 GLP5        0.0000 
      7 N          12.2110  -43.6820   12.8595 N.am      2 SEC2        0.0000 
      8 N          11.4820  -44.3570   11.7650 N.am     10 SEL2        0.0000 
      9 N          12.9400  -43.0070   13.9540 N.am      6 SEP2        0.0000 
     10 CA         10.8655  -41.0840   11.6570 C.3       4 GLC5        0.0000 
     11 CA          9.7840  -42.7480   11.2110 C.3      12 GLL5        0.0000 
     12 CA         11.9470  -39.4200   12.1030 C.3       8 GLP5        0.0000 
     13 N           4.7570  -42.8915   10.2140 N.am      2 SEC2        0.0000 
     14 N           6.0520  -42.5220   11.0850 N.am     10 SEL2        0.0000 
     15 N           3.4620  -43.2610    9.3430 N.am      6 SEP2        0.0000 
     16 CA          4.4595  -40.0120   14.0760 C.3       4 GLC5        0.0000 
     17 CA          5.6530  -40.5020   12.6490 C.3      12 GLL5        0.0000 
     18 CA          3.2660  -39.5220   15.5030 C.3       8 GLP5        0.0000 
     19 O           3.0865  -39.6625   12.6205 O.2       1 ALC1        0.0000 
     20 O           4.3070  -40.5890   12.6450 O.2       9 ALL1        0.0000 
     21 O           1.8660  -38.7360   12.5960 O.2       5 ALP1        0.0000 
     22 CA          8.3110  -38.3580   12.3435 C.3       4 GLC5        0.0000 
     23 CA          7.7100  -39.5500   13.5580 C.3      12 GLL5        0.0000 
     24 CA          8.9120  -37.1660   11.1290 C.3       8 GLP5        0.0000 
     25 CA          7.1215  -38.9190   15.2560 C.3       4 GLC5        0.0000 
     26 CA          6.5330  -38.2880   16.9540 C.3       8 GLP5        0.0000 
     27 N           9.4640  -39.7425   13.4455 N.am      2 SEC2        0.0000 
     28 N           8.4250  -40.4820   12.7750 N.am     10 SEL2        0.0000 
     29 N          10.5030  -39.0030   14.1160 N.am      6 SEP2        0.0000 
     30 N           3.7140  -42.1735   -3.9155 N.am      2 SEC2        0.0000 
     31 N           3.3120  -42.2060   -2.2510 N.am     10 SEL2        0.0000 
     32 N           4.1160  -42.1410   -5.5800 N.am      6 SEP2        0.0000 
     33 N          -0.5975  -38.5365   -1.0115 N.am      2 SEC2        0.0000 
     34 N           0.8130  -38.6140   -0.9280 N.am     10 SEL2        0.0000 
     35 N          -2.0080  -38.4590   -1.0950 N.am      6 SEP2        0.0000 
     36 CA          2.5075  -37.0210    3.3880 C.3       4 GLC5        0.0000 
     37 CA          3.9460  -35.7780    2.2460 C.3      12 GLL5        0.0000 
     38 CA          1.0690  -38.2640    4.5300 C.3       8 GLP5        0.0000 
     39 CA          4.8215  -35.0470    5.1255 C.3       4 GLC5        0.0000 
     40 CA          4.9460  -33.8470    3.5250 C.3      12 GLL5        0.0000 
     41 CA          4.6970  -36.2470    6.7260 C.3       8 GLP5        0.0000 
     42 CA          3.3650  -33.1400    3.9870 C.3       4 GLC5        0.0000 
     43 CA          1.7840  -32.4330    4.4490 C.3       8 GLP5        0.0000 
     44 CA          8.7755  -37.0465    2.7370 C.3       4 GLC5        0.0000 
     45 CA          7.6020  -35.6600    3.7380 C.3      12 GLL5        0.0000 
     46 CA          9.9490  -38.4330    1.7360 C.3       8 GLP5        0.0000 
     47 CA          8.7355  -34.3485    3.8475 C.3       4 GLC5        0.0000 
     48 CA          9.8690  -33.0370    3.9570 C.3       8 GLP5        0.0000 
     49 CA          6.9845  -36.7085    4.8405 C.3       4 GLC5        0.0000 
     50 CA          6.3670  -37.7570    5.9430 C.3       8 GLP5        0.0000 
     51 CA          7.7235  -35.2470    1.7900 C.3       4 GLC5        0.0000 
     52 CA          7.8450  -34.8340   -0.1580 C.3       8 GLP5        0.0000 
     53 CA          8.1615  -37.8345    2.0475 C.3       4 GLC5        0.0000 
     54 CA          6.3740  -37.2360    2.3590 C.3      12 GLL5        0.0000 
     55 CA          8.0625  -39.2430    1.4045 C.3       4 GLC5        0.0000 
     56 CA          6.1760  -40.0530    1.0730 C.3      12 GLL5        0.0000 
     57 CA          4.0780  -40.6510    2.8070 C.3       4 GLC5        0.0000 
     58 CA          6.0640  -41.0420    2.1870 C.3      12 GLL5        0.0000 
     59 CA          2.0920  -40.2600    3.4270 C.3       8 GLP5        0.0000 
     60 CA          4.4775  -42.3530    1.7560 C.3       4 GLC5        0.0000 
     61 CA          2.8910  -43.6640    1.3250 C.3       8 GLP5        0.0000 
     62 N           6.1410  -39.6030    4.2555 N.am      2 SEC2        0.0000 
     63 N           5.2990  -40.4600    3.2920 N.am     10 SEL2        0.0000 
     64 N           6.9830  -38.7460    5.2190 N.am      6 SEP2        0.0000 
     65 CA          8.6300  -40.1205    2.1205 C.3       4 GLC5        0.0000 
     66 CA          7.3110  -41.8080    2.5050 C.3      12 GLL5        0.0000 
     67 CA          7.7990  -40.3410    4.0785 C.3       4 GLC5        0.0000 
     68 CA          8.2870  -38.8740    5.6520 C.3       8 GLP5        0.0000 
     69 CA          9.3090  -42.6790    0.2475 C.3       4 GLC5        0.0000 
     70 CA          7.9290  -42.9520    1.7170 C.3      12 GLL5        0.0000 
     71 CA         10.6890  -42.4060   -1.2220 C.3       8 GLP5        0.0000 
     72 CA          9.8820  -43.8840    0.5965 C.3       4 GLC5        0.0000 
     73 CA          8.8560  -43.8450    2.4360 C.3      12 GLL5        0.0000 
     74 CA         10.9080  -43.9230   -1.2430 C.3       8 GLP5        0.0000 
     75 CA         10.8050  -43.1620    3.2105 C.3       4 GLC5        0.0000 
     76 CA         12.7540  -42.4790    3.9850 C.3       8 GLP5        0.0000 
     77 N           7.5075  -46.0765    3.5415 N.am      2 SEC2        0.0000 
     78 N           8.3300  -44.5650    3.5550 N.am     10 SEL2        0.0000 
     79 N           6.6850  -47.5880    3.5280 N.am      6 SEP2        0.0000 
     80 NZ          7.5540  -46.9490    4.1945 N.4       3 LYC4        0.0000 
     81 NZ          8.4230  -46.3100    4.8610 N.4      11 LYL4        0.0000 
     82 NZ          6.6850  -47.5880    3.5280 N.4       7 LYP4        0.0000 
     83 N           7.5540  -46.9490    4.1945 N.am      2 SEC2        0.0000 
     84 N           8.4230  -46.3100    4.8610 N.am     10 SEL2        0.0000 
     85 NZ         11.5255  -45.2195    3.1945 N.4       3 LYC4        0.0000 
     86 NZ         10.7160  -45.2380    4.3460 N.4      11 LYL4        0.0000 
     87 NZ         13.4780  -44.6380    1.6520 N.4       7 LYP4        0.0000 
     88 N          11.5255  -45.2195    3.1945 N.am      2 SEC2        0.0000 
     89 N          10.7160  -45.2380    4.3460 N.am     10 SEL2        0.0000 
     90 N          12.3350  -45.2010    2.0430 N.am      6 SEP2        0.0000 
     91 CA          5.9664  -40.2899   10.5656 C.3       4 GLC5        0.0000 
     92 CA          6.3840  -41.4530   11.9080 C.3      12 GLL5        0.0000 
     93 CA          5.0740  -39.3780    8.9950 C.3       8 GLP5        0.0000 
     94 CA          5.7479  -42.4594   13.1561 C.3       4 GLC5        0.0000 
     95 CA          4.6370  -43.7170   14.1760 C.3       8 GLP5        0.0000 
     96 CA          3.3855  -38.8418    2.5200 C.3       4 GLC5        0.0000 
     97 CA          4.0420  -37.0400    1.6200 C.3      12 GLL5        0.0000 
     98 CA          4.1225  -36.6455   -0.1517 C.3       4 GLC5        0.0000 
     99 CA          3.5900  -36.1830   -2.0730 C.3       8 GLP5        0.0000 
    100 CA          7.0563  -44.9397    2.6583 C.3       4 GLC5        0.0000 
    101 CA          5.7200  -46.4810    3.2400 C.3       8 GLP5        0.0000 
@<TRIPOS>BOND
@<TRIPOS>SUBSTRUCTURE
     1 ALC1       19 GROUP        1 X    ALC  0     ROOT ALC X 1
     2 SEC2        1 GROUP        1 X    SEC  0     **** SEC X 2
     3 LYC4       80 GROUP        1 X    LYC  0     **** LYC X 4
     4 GLC5        4 GROUP        1 X    GLC  0     **** GLC X 6
     5 ALP1       21 GROUP        1 Y    ALP  0     ROOT ALP Y 8
     6 SEP2        3 GROUP        1 Y    SEP  0     **** SEP Y 9
     7 LYP4       82 GROUP        1 Y    LYP  0     **** LYP Y 11
     8 GLP5        6 GROUP        1 Y    GLP  0     **** GLP Y 13
     9 ALL1       20 GROUP        1 Z    ALL  0     ROOT ALL Z 15
    10 SEL2        2 GROUP        1 Z    SEL  0     **** SEL Z 16
    11 LYL4       81 GROUP        1 Z    LYL  0     **** LYL Z 18
    12 GLL5        5 GROUP        1 Z    GLL  0     **** GLL Z 20
@<TRIPOS>SET

