#    Name: 2hj3_FAD_1_ligand
#    Modification time : Tue Mar 25 16:34:16 2014

@<TRIPOS>MOLECULE
2hj3_FAD_1_ligand
   84    89     1     0     0
SMALL
NO_CHARGES


@<TRIPOS>ATOM
      1 PA          8.6630  -42.6020    6.1450 P.3       1 FAD1001     0.0000 
      2 O1A         7.1750  -42.5240    6.1590 O.co2     1 FAD1001     0.0000 
      3 O2A         9.5440  -41.9450    5.1340 O.co2     1 FAD1001     0.0000 
      4 O5B         9.6090  -42.5690    7.3860 O.3       1 FAD1001     0.0000 
      5 C5B        10.5580  -41.8360    8.1400 C.3       1 FAD1001     0.0000 
      6 C4B        10.9130  -42.8650    9.1910 C.3       1 FAD1001     0.0000 
      7 O4B        10.5430  -41.9720   10.2750 O.3       1 FAD1001     0.0000 
      8 C3B        10.3980  -44.2750    9.5970 C.3       1 FAD1001     0.0000 
      9 O3B        11.1580  -45.3460    9.0370 O.3       1 FAD1001     0.0000 
     10 C2B        10.2940  -44.1860   11.0560 C.3       1 FAD1001     0.0000 
     11 O2B        11.4820  -44.3570   11.7650 O.3       1 FAD1001     0.0000 
     12 C1B         9.7840  -42.7480   11.2110 C.3       1 FAD1001     0.0000 
     13 N9A         8.3920  -42.4240   11.3060 N.pl3     1 FAD1001     0.0000 
     14 C8A         7.2160  -43.0120   10.7790 C.2       1 FAD1001     0.0000 
     15 N7A         6.0520  -42.5220   11.0850 N.2       1 FAD1001     0.0000 
     16 C5A         6.3840  -41.4530   11.9080 C.ar      1 FAD1001     0.0000 
     17 C6A         5.6530  -40.5020   12.6490 C.ar      1 FAD1001     0.0000 
     18 N6A         4.3070  -40.5890   12.6450 N.pl3     1 FAD1001     0.0000 
     19 N1A         6.3610  -39.5840   13.4150 N.ar      1 FAD1001     0.0000 
     20 C2A         7.7100  -39.5500   13.5580 C.ar      1 FAD1001     0.0000 
     21 N3A         8.4250  -40.4820   12.7750 N.ar      1 FAD1001     0.0000 
     22 C4A         7.6990  -41.4260   11.9940 C.ar      1 FAD1001     0.0000 
     23 N1          4.1760  -40.6890   -0.7340 N.2       1 FAD1001     0.0000 
     24 C2          3.1840  -41.1720   -1.5680 C.2       1 FAD1001     0.0000 
     25 O2          3.3120  -42.2060   -2.2510 O.2       1 FAD1001     0.0000 
     26 N3          2.0550  -40.3730   -1.5090 N.am      1 FAD1001     0.0000 
     27 C4          1.9120  -39.2190   -0.7000 C.2       1 FAD1001     0.0000 
     28 O4          0.8130  -38.6140   -0.9280 O.2       1 FAD1001     0.0000 
     29 C4X         2.9400  -38.7970    0.1270 C.2       1 FAD1001     0.0000 
     30 N5          2.9550  -37.5790    0.8920 N.2       1 FAD1001     0.0000 
     31 C5X         4.0420  -37.0400    1.6200 C.ar      1 FAD1001     0.0000 
     32 C6          3.9460  -35.7780    2.2460 C.ar      1 FAD1001     0.0000 
     33 C7          5.0880  -35.2530    2.9230 C.ar      1 FAD1001     0.0000 
     34 C7M         4.9460  -33.8470    3.5250 C.3       1 FAD1001     0.0000 
     35 C8          6.3080  -35.9950    3.0060 C.ar      1 FAD1001     0.0000 
     36 C8M         7.6020  -35.6600    3.7380 C.3       1 FAD1001     0.0000 
     37 C9          6.3740  -37.2360    2.3590 C.ar      1 FAD1001     0.0000 
     38 C9A         5.3160  -37.8070    1.6060 C.ar      1 FAD1001     0.0000 
     39 N10         5.1490  -39.0870    0.8690 N.pl3     1 FAD1001     0.0000 
     40 C10         4.1340  -39.5780    0.0840 C.2       1 FAD1001     0.0000 
     41 C1'         6.1760  -40.0530    1.0730 C.3       1 FAD1001     0.0000 
     42 C2'         6.0640  -41.0420    2.1870 C.3       1 FAD1001     0.0000 
     43 O2'         5.2990  -40.4600    3.2920 O.3       1 FAD1001     0.0000 
     44 C3'         7.3110  -41.8080    2.5050 C.3       1 FAD1001     0.0000 
     45 O3'         8.2630  -40.9020    3.0360 O.3       1 FAD1001     0.0000 
     46 C4'         7.9290  -42.9520    1.7170 C.3       1 FAD1001     0.0000 
     47 O4'         6.8750  -43.8330    1.2390 O.3       1 FAD1001     0.0000 
     48 C5'         8.8560  -43.8450    2.4360 C.3       1 FAD1001     0.0000 
     49 O5'         8.3300  -44.5650    3.5550 O.3       1 FAD1001     0.0000 
     50 P           9.2720  -45.1400    4.6620 P.3       1 FAD1001     0.0000 
     51 O1P         8.4230  -46.3100    4.8610 O.co2     1 FAD1001     0.0000 
     52 O2P        10.7160  -45.2380    4.3460 O.co2     1 FAD1001     0.0000 
     53 O3P         8.9680  -44.1460    5.9010 O.3       1 FAD1001     0.0000 
     54 H          10.1334  -40.9904    8.6219 H         1 FAD1001     0.0000 
     55 H          11.4318  -41.6032    7.5834 H         1 FAD1001     0.0000 
     56 H          12.0446  -42.8523    9.2761 H         1 FAD1001     0.0000 
     57 H           9.3460  -44.2859    9.2009 H         1 FAD1001     0.0000 
     58 H           9.4851  -44.8152   11.3869 H         1 FAD1001     0.0000 
     59 H          10.2740  -42.4366   12.2520 H         1 FAD1001     0.0000 
     60 H           7.3399  -43.8333   10.1526 H         1 FAD1001     0.0000 
     61 H           3.9258  -41.5096   12.5603 H         1 FAD1001     0.0000 
     62 H           3.8100  -39.7252   12.7271 H         1 FAD1001     0.0000 
     63 H           8.1894  -38.9202   14.1672 H         1 FAD1001     0.0000 
     64 H           1.2223  -40.6358   -2.1142 H         1 FAD1001     0.0000 
     65 H           3.0847  -35.2486    2.2192 H         1 FAD1001     0.0000 
     66 H           7.2686  -37.7889    2.4327 H         1 FAD1001     0.0000 
     67 H           7.1858  -39.5256    1.1911 H         1 FAD1001     0.0000 
     68 H           6.3442  -40.6487    0.1093 H         1 FAD1001     0.0000 
     69 H           5.3284  -41.8547    1.7327 H         1 FAD1001     0.0000 
     70 H           6.9700  -42.3835    3.5502 H         1 FAD1001     0.0000 
     71 H           8.4382  -42.5423    0.8399 H         1 FAD1001     0.0000 
     72 H           9.7535  -43.2345    2.7596 H         1 FAD1001     0.0000 
     73 H           9.2992  -44.5698    1.6869 H         1 FAD1001     0.0000 
     74 H           5.7860  -33.5511    3.9797 H         1 FAD1001     0.0000 
     75 H           4.7345  -33.1635    2.8264 H         1 FAD1001     0.0000 
     76 H           4.2144  -33.8065    4.2056 H         1 FAD1001     0.0000 
     77 H           8.2922  -36.3735    3.6176 H         1 FAD1001     0.0000 
     78 H           8.0038  -34.8051    3.4097 H         1 FAD1001     0.0000 
     79 H           7.4560  -35.5564    4.7219 H         1 FAD1001     0.0000 
     80 H          12.0836  -44.9813    8.9361 H         1 FAD1001     0.0000 
     81 H          12.1894  -44.4539   11.0649 H         1 FAD1001     0.0000 
     82 H           5.0954  -41.2284    3.8987 H         1 FAD1001     0.0000 
     83 H           8.6482  -41.3687    3.8321 H         1 FAD1001     0.0000 
     84 H           6.6322  -43.4795    0.3356 H         1 FAD1001     0.0000 
@<TRIPOS>BOND
     1    2    1 ar   
     2    3    1 ar   
     3    4    1 1    
     4   53    1 1    
     5    5    4 1    
     6    6    5 1    
     7   54    5 1    
     8   55    5 1    
     9    7    6 1    
    10    8    6 1    
    11   56    6 1    
    12   12    7 1    
    13    9    8 1    
    14   10    8 1    
    15   57    8 1    
    16   80    9 1    
    17   11   10 1    
    18   12   10 1    
    19   58   10 1    
    20   81   11 1    
    21   13   12 1    
    22   59   12 1    
    23   14   13 1    
    24   22   13 1    
    25   15   14 2    
    26   60   14 1    
    27   16   15 1    
    28   17   16 ar   
    29   22   16 ar   
    30   18   17 1    
    31   19   17 ar   
    32   61   18 1    
    33   62   18 1    
    34   20   19 ar   
    35   21   20 ar   
    36   63   20 1    
    37   22   21 ar   
    38   24   23 1    
    39   40   23 2    
    40   25   24 2    
    41   26   24 am   
    42   27   26 am   
    43   64   26 1    
    44   28   27 2    
    45   29   27 1    
    46   30   29 2    
    47   40   29 1    
    48   31   30 1    
    49   32   31 ar   
    50   38   31 ar   
    51   33   32 ar   
    52   65   32 1    
    53   34   33 1    
    54   35   33 ar   
    55   74   34 1    
    56   75   34 1    
    57   76   34 1    
    58   36   35 1    
    59   37   35 ar   
    60   77   36 1    
    61   78   36 1    
    62   79   36 1    
    63   38   37 ar   
    64   66   37 1    
    65   39   38 1    
    66   40   39 1    
    67   41   39 1    
    68   42   41 1    
    69   67   41 1    
    70   68   41 1    
    71   43   42 1    
    72   44   42 1    
    73   69   42 1    
    74   82   43 1    
    75   45   44 1    
    76   46   44 1    
    77   70   44 1    
    78   83   45 1    
    79   47   46 1    
    80   48   46 1    
    81   71   46 1    
    82   84   47 1    
    83   49   48 1    
    84   72   48 1    
    85   73   48 1    
    86   50   49 1    
    87   51   50 ar   
    88   52   50 ar   
    89   53   50 1    
@<TRIPOS>SUBSTRUCTURE
     1 FAD1001     1 GROUP   
@<TRIPOS>SET

