#    Name: 3ou7_SAM_4_INTS_M
#    Modification time : Tue Mar 25 05:19:22 2014

@<TRIPOS>MOLECULE
3ou7_SAM_4_INTS_M
   77     0     9     0     0
SMALL
NO_CHARGES


@<TRIPOS>ATOM
      1 O          40.3385  -87.2760  -10.9560 O.2       1 ALC1        0.0000 
      2 O          40.3660  -85.8560  -10.7840 O.2       7 ALL1        0.0000 
      3 O          40.3110  -88.6960  -11.1280 O.2       4 ALP1        0.0000 
      4 O          40.3180  -85.6265   -9.2375 O.2       1 ALC1        0.0000 
      5 O          40.2700  -85.3970   -7.6910 O.2       4 ALP1        0.0000 
      6 CA         41.3070  -81.7955  -10.8665 C.3       3 GLC5        0.0000 
      7 CA         40.5810  -83.5880  -11.5820 C.3       9 GLL5        0.0000 
      8 CA         42.0330  -80.0030  -10.1510 C.3       6 GLP5        0.0000 
      9 CA         40.0965  -82.9955   -9.5615 C.3       3 GLC5        0.0000 
     10 CA         39.6120  -82.4030   -7.5410 C.3       6 GLP5        0.0000 
     11 CA         38.0320  -82.5300  -13.5440 C.3       3 GLC5        0.0000 
     12 CA         39.1040  -83.3580  -12.0460 C.3       9 GLL5        0.0000 
     13 CA         36.9600  -81.7020  -15.0420 C.3       6 GLP5        0.0000 
     14 CA         40.6585  -82.6075  -13.1335 C.3       3 GLC5        0.0000 
     15 CA         42.2130  -81.8570  -14.2210 C.3       6 GLP5        0.0000 
     16 CA         36.1395  -82.5590  -12.5890 C.3       3 GLC5        0.0000 
     17 CA         36.5150  -83.5340  -10.9080 C.3       9 GLL5        0.0000 
     18 CA         35.7640  -81.5840  -14.2700 C.3       6 GLP5        0.0000 
     19 CA         36.3110  -84.7215   -9.1600 C.3       3 GLC5        0.0000 
     20 CA         36.1070  -85.9090   -7.4120 C.3       6 GLP5        0.0000 
     21 CA         37.1710  -83.7155  -14.6850 C.3       3 GLC5        0.0000 
     22 CA         37.3430  -84.8190  -13.3020 C.3       9 GLL5        0.0000 
     23 CA         36.9990  -82.6120  -16.0680 C.3       6 GLP5        0.0000 
     24 CA         36.7500  -84.8500  -14.9700 C.3       3 GLC5        0.0000 
     25 CA         37.6260  -86.2820  -13.5610 C.3       9 GLL5        0.0000 
     26 CA         35.8740  -83.4180  -16.3790 C.3       6 GLP5        0.0000 
     27 CA         37.6580  -87.6655  -12.1300 C.3       3 GLC5        0.0000 
     28 CA         37.6900  -89.0490  -10.6990 C.3       6 GLP5        0.0000 
     29 CA         39.9380  -87.0950  -15.0255 C.3       3 GLC5        0.0000 
     30 CA         37.8680  -86.2960  -15.0450 C.3       9 GLL5        0.0000 
     31 CA         42.0080  -87.8940  -15.0060 C.3       6 GLP5        0.0000 
     32 CA         39.0295  -85.4855  -16.5030 C.3       3 GLC5        0.0000 
     33 CA         40.1910  -84.6750  -17.9610 C.3       6 GLP5        0.0000 
     34 O          38.9980  -88.3390  -15.0125 O.2       1 ALC1        0.0000 
     35 O          39.0170  -87.0960  -15.2830 O.2       7 ALL1        0.0000 
     36 O          38.9790  -89.5820  -14.7420 O.2       4 ALP1        0.0000 
     37 O          38.4710  -88.5530  -15.9685 O.2       1 ALC1        0.0000 
     38 O          37.9250  -90.0100  -16.6540 O.2       4 ALP1        0.0000 
     39 O          37.8960  -88.6375  -15.6840 O.2       1 ALC1        0.0000 
     40 O          36.8130  -87.6930  -16.6260 O.2       7 ALL1        0.0000 
     41 O          37.3690  -88.8515  -16.6400 O.2       1 ALC1        0.0000 
     42 CA         36.8235  -88.2960  -12.5615 C.3       3 GLC5        0.0000 
     43 CA         35.9570  -87.5430  -14.4240 C.3       9 GLL5        0.0000 
     44 CA         34.6750  -87.4305  -12.7125 C.3       3 GLC5        0.0000 
     45 CA         33.3930  -87.3180  -11.0010 C.3       6 GLP5        0.0000 
     46 CA         31.3205  -92.1240  -14.6000 C.3       3 GLC5        0.0000 
     47 CA         31.7720  -89.9760  -14.1230 C.3       9 GLL5        0.0000 
     48 CA         30.8690  -94.2720  -15.0770 C.3       6 GLP5        0.0000 
     49 O          29.6890  -91.1210  -14.2915 O.2       1 ALC1        0.0000 
     50 O          30.4530  -89.7810  -14.1860 O.2       7 ALL1        0.0000 
     51 O          28.9250  -92.4610  -14.3970 O.2       4 ALP1        0.0000 
     52 N          31.7040  -92.3305  -13.3170 N.am      2 SEC2        0.0000 
     53 N          32.3340  -91.2070  -13.8750 N.am      8 SEL2        0.0000 
     54 N          31.0740  -93.4540  -12.7590 N.am      5 SEP2        0.0000 
     55 CA         35.7360  -92.0400  -14.4255 C.3       3 GLC5        0.0000 
     56 CA         33.7070  -91.3500  -13.8530 C.3       9 GLL5        0.0000 
     57 CA         37.7650  -92.7300  -14.9980 C.3       6 GLP5        0.0000 
     58 CA         34.1655  -91.6495  -15.4395 C.3       3 GLC5        0.0000 
     59 CA         34.6240  -91.9490  -17.0260 C.3       6 GLP5        0.0000 
     60 CA         32.2880  -92.8110  -14.4650 C.3       3 GLC5        0.0000 
     61 CA         33.6835  -92.2175  -12.3625 C.3       3 GLC5        0.0000 
     62 CA         33.6600  -93.0850  -10.8720 C.3       6 GLP5        0.0000 
     63 N          35.1110  -91.0720  -15.0575 N.am      2 SEC2        0.0000 
     64 N          34.5220  -90.2420  -14.0510 N.am      8 SEL2        0.0000 
     65 N          35.7000  -91.9020  -16.0640 N.am      5 SEP2        0.0000 
     66 CA         34.2910  -90.4870  -15.6170 C.3       3 GLC5        0.0000 
     67 CA         33.9580  -89.0250  -14.2080 C.3       9 GLL5        0.0000 
     68 CA         41.5485  -83.0747  -12.9105 C.3       3 GLC5        0.0000 
     69 CA         41.1870  -84.9970  -11.6180 C.3       9 GLL5        0.0000 
     70 CA         35.9705  -83.3383  -10.4895 C.3       3 GLC5        0.0000 
     71 CA         37.8070  -84.5870  -11.6060 C.3       9 GLL5        0.0000 
     72 CA         34.7800  -82.6160   -9.7220 C.3       6 GLP5        0.0000 
     73 CA         36.2489  -85.6915  -16.2268 C.3       3 GLC5        0.0000 
     74 CA         35.9170  -84.3460  -17.5770 C.3       6 GLP5        0.0000 
     75 CA         32.9879  -88.9020  -16.1182 C.3       3 GLC5        0.0000 
     76 CA         32.5950  -88.8780  -14.2710 C.3       9 GLL5        0.0000 
     77 CA         32.9050  -88.5780  -18.0340 C.3       6 GLP5        0.0000 
@<TRIPOS>BOND
@<TRIPOS>SUBSTRUCTURE
     1 ALC1        1 GROUP        1 X    ALC  0     ROOT ALC X 1
     2 SEC2       52 GROUP        1 X    SEC  0     **** SEC X 2
     3 GLC5        6 GROUP        1 X    GLC  0     **** GLC X 6
     4 ALP1        3 GROUP        1 Y    ALP  0     ROOT ALP Y 8
     5 SEP2       54 GROUP        1 Y    SEP  0     **** SEP Y 9
     6 GLP5        8 GROUP        1 Y    GLP  0     **** GLP Y 13
     7 ALL1        2 GROUP        1 Z    ALL  0     ROOT ALL Z 15
     8 SEL2       53 GROUP        1 Z    SEL  0     **** SEL Z 16
     9 GLL5        7 GROUP        1 Z    GLL  0     **** GLL Z 20
@<TRIPOS>SET

