#    Name: 3ou7_SAM_4_ligand
#    Modification time : Tue Mar 25 05:19:22 2014

@<TRIPOS>MOLECULE
3ou7_SAM_4_ligand
   50    52     1     0     0
SMALL
NO_CHARGES


@<TRIPOS>ATOM
      1 N          40.3660  -85.8560  -10.7840 N.4       1 SAM300      0.0000 
      2 CA         41.1870  -84.9970  -11.6180 C.3       1 SAM300      0.0000 
      3 C          42.5530  -85.1700  -10.9670 C.2       1 SAM300      0.0000 
      4 O          43.4620  -84.2980  -10.8520 O.co2     1 SAM300      0.0000 
      5 OXT        42.6460  -86.3300  -10.5340 O.co2     1 SAM300      0.0000 
      6 CB         40.5810  -83.5880  -11.5820 C.3       1 SAM300      0.0000 
      7 CG         39.1040  -83.3580  -12.0460 C.3       1 SAM300      0.0000 
      8 SD         37.8070  -84.5870  -11.6060 S.3       1 SAM300      0.0000 
      9 CE         36.5150  -83.5340  -10.9080 C.3       1 SAM300      0.0000 
     10 C5'        37.3430  -84.8190  -13.3020 C.3       1 SAM300      0.0000 
     11 C4'        37.6260  -86.2820  -13.5610 C.3       1 SAM300      0.0000 
     12 O4'        36.4190  -86.9210  -13.2370 O.3       1 SAM300      0.0000 
     13 C3'        37.8680  -86.2960  -15.0450 C.3       1 SAM300      0.0000 
     14 O3'        39.0170  -87.0960  -15.2830 O.3       1 SAM300      0.0000 
     15 C2'        36.5410  -86.7660  -15.6130 C.3       1 SAM300      0.0000 
     16 O2'        36.8130  -87.6930  -16.6260 O.3       1 SAM300      0.0000 
     17 C1'        35.9570  -87.5430  -14.4240 C.3       1 SAM300      0.0000 
     18 N9         34.4890  -87.7870  -14.4040 N.pl3     1 SAM300      0.0000 
     19 C8         33.4580  -86.9040  -14.5960 C.2       1 SAM300      0.0000 
     20 N7         32.3100  -87.5790  -14.4890 N.2       1 SAM300      0.0000 
     21 C5         32.5950  -88.8780  -14.2710 C.ar      1 SAM300      0.0000 
     22 C6         31.7720  -89.9760  -14.1230 C.ar      1 SAM300      0.0000 
     23 N6         30.4530  -89.7810  -14.1860 N.pl3     1 SAM300      0.0000 
     24 N1         32.3340  -91.2070  -13.8750 N.ar      1 SAM300      0.0000 
     25 C2         33.7070  -91.3500  -13.8530 C.ar      1 SAM300      0.0000 
     26 N3         34.5220  -90.2420  -14.0510 N.ar      1 SAM300      0.0000 
     27 C4         33.9580  -89.0250  -14.2080 C.ar      1 SAM300      0.0000 
     28 H          41.2108  -85.3784  -12.6031 H         1 SAM300      0.0000 
     29 H          41.2348  -82.9013  -12.1893 H         1 SAM300      0.0000 
     30 H          40.6704  -83.1863  -10.5339 H         1 SAM300      0.0000 
     31 H          39.0125  -83.3147  -13.1403 H         1 SAM300      0.0000 
     32 H          38.6801  -82.4277  -11.6427 H         1 SAM300      0.0000 
     33 H          37.9774  -84.1713  -13.8147 H         1 SAM300      0.0000 
     34 H          36.3293  -84.5799  -13.3079 H         1 SAM300      0.0000 
     35 H          38.4493  -86.5709  -13.0368 H         1 SAM300      0.0000 
     36 H          38.0120  -85.2611  -15.3344 H         1 SAM300      0.0000 
     37 H          35.9464  -85.9802  -15.8452 H         1 SAM300      0.0000 
     38 H          36.4650  -88.5630  -14.4717 H         1 SAM300      0.0000 
     39 H          33.5641  -85.9651  -14.7755 H         1 SAM300      0.0000 
     40 H          30.1529  -88.8331  -14.2933 H         1 SAM300      0.0000 
     41 H          29.8835  -90.6003  -14.1202 H         1 SAM300      0.0000 
     42 H          34.1303  -92.2741  -13.6905 H         1 SAM300      0.0000 
     43 H          40.5077  -85.6743   -9.8109 H         1 SAM300      0.0000 
     44 H          39.3910  -85.7294  -10.9669 H         1 SAM300      0.0000 
     45 H          40.5692  -86.8235  -10.9341 H         1 SAM300      0.0000 
     46 H          36.8814  -82.8963  -10.2305 H         1 SAM300      0.0000 
     47 H          36.0621  -82.9861  -11.6114 H         1 SAM300      0.0000 
     48 H          35.8049  -84.0703  -10.4518 H         1 SAM300      0.0000 
     49 H          38.6608  -88.0123  -15.4662 H         1 SAM300      0.0000 
     50 H          37.2682  -88.4544  -16.1645 H         1 SAM300      0.0000 
@<TRIPOS>BOND
     1    2    1 1    
     2   43    1 1    
     3   44    1 1    
     4   45    1 1    
     5    3    2 1    
     6    6    2 1    
     7   28    2 1    
     8    4    3 ar   
     9    5    3 ar   
    10    7    6 1    
    11   29    6 1    
    12   30    6 1    
    13    8    7 1    
    14   31    7 1    
    15   32    7 1    
    16    9    8 1    
    17   10    8 1    
    18   46    9 1    
    19   47    9 1    
    20   48    9 1    
    21   11   10 1    
    22   33   10 1    
    23   34   10 1    
    24   12   11 1    
    25   13   11 1    
    26   35   11 1    
    27   17   12 1    
    28   14   13 1    
    29   15   13 1    
    30   36   13 1    
    31   49   14 1    
    32   16   15 1    
    33   17   15 1    
    34   37   15 1    
    35   50   16 1    
    36   18   17 1    
    37   38   17 1    
    38   19   18 1    
    39   27   18 1    
    40   20   19 2    
    41   39   19 1    
    42   21   20 1    
    43   22   21 ar   
    44   27   21 ar   
    45   23   22 1    
    46   24   22 ar   
    47   40   23 1    
    48   41   23 1    
    49   25   24 ar   
    50   26   25 ar   
    51   42   25 1    
    52   27   26 ar   
@<TRIPOS>SUBSTRUCTURE
     1 SAM300      1 GROUP   
@<TRIPOS>SET

