#    Name: 3zln_H0Y_1_INTS_M
#    Modification time : Tue Mar 25 03:39:01 2014

@<TRIPOS>MOLECULE
3zln_H0Y_1_INTS_M
   78     0    12     0     0
SMALL
NO_CHARGES


@<TRIPOS>ATOM
      1 NZ        -23.1540  -17.8775    9.2235 N.4       3 LYC4        0.0000 
      2 NZ        -22.8520  -17.8700   10.7470 N.4      11 LYL4        0.0000 
      3 NZ        -23.9930  -16.6750    7.7690 N.4       7 LYP4        0.0000 
      4 N         -24.5485  -17.7660   10.5165 N.am      2 SEC2        0.0000 
      5 N         -22.8520  -17.8700   10.7470 N.am     10 SEL2        0.0000 
      6 N         -26.2450  -17.6620   10.2860 N.am      6 SEP2        0.0000 
      7 N         -23.2345  -16.8590    9.7455 N.am      2 SEC2        0.0000 
      8 N         -23.6170  -15.8480    8.7440 N.am      6 SEP2        0.0000 
      9 N         -23.1540  -17.8775    9.2235 N.am      2 SEC2        0.0000 
     10 N         -23.4560  -17.8850    7.7000 N.am      6 SEP2        0.0000 
     11 CA        -23.3100  -13.5105   13.1525 C.3       4 GLC5        0.0000 
     12 CA        -21.9360  -14.6250   14.1170 C.3      12 GLL5        0.0000 
     13 CA        -24.6840  -12.3960   12.1880 C.3       8 GLP5        0.0000 
     14 CA        -18.1270  -14.1685    6.9855 C.3       4 GLC5        0.0000 
     15 CA        -18.7240  -13.9080    9.0510 C.3      12 GLL5        0.0000 
     16 CA        -17.5300  -14.4290    4.9200 C.3       8 GLP5        0.0000 
     17 CA        -16.6875  -10.7540    7.2120 C.3       4 GLC5        0.0000 
     18 CA        -16.6920  -12.4660    8.6270 C.3      12 GLL5        0.0000 
     19 CA        -16.6830   -9.0420    5.7970 C.3       8 GLP5        0.0000 
     20 CA        -17.1110  -13.4475    6.7735 C.3       4 GLC5        0.0000 
     21 CA        -15.3430  -12.6705   12.0840 C.3       4 GLC5        0.0000 
     22 CA        -15.6780  -11.1900   10.4980 C.3      12 GLL5        0.0000 
     23 CA        -15.0080  -14.1510   13.6700 C.3       8 GLP5        0.0000 
     24 CA        -15.1835   -9.2555    9.9040 C.3       4 GLC5        0.0000 
     25 CA        -14.6890   -7.3210    9.3100 C.3       8 GLP5        0.0000 
     26 CA        -17.5115  -10.3485   10.7565 C.3       4 GLC5        0.0000 
     27 CA        -19.3450   -9.5070   11.0150 C.3       8 GLP5        0.0000 
     28 O         -14.4310  -10.6905   13.1090 O.2       1 ALC1        0.0000 
     29 O         -15.8020  -10.5270   13.0920 O.2       9 ALL1        0.0000 
     30 O         -13.0600  -10.8540   13.1260 O.2       5 ALP1        0.0000 
     31 CA        -18.5685   -9.5170   12.8455 C.3       4 GLC5        0.0000 
     32 CA        -17.7920   -9.5270   14.6760 C.3      12 GLL5        0.0000 
     33 CA        -19.8310  -10.1060   14.6670 C.3       4 GLC5        0.0000 
     34 CA        -21.8700  -10.6850   14.6580 C.3       8 GLP5        0.0000 
     35 CA        -18.3425   -6.8045   15.1305 C.3       4 GLC5        0.0000 
     36 CA        -17.1130   -8.4180   15.7620 C.3      12 GLL5        0.0000 
     37 CA        -19.5720   -5.1910   14.4990 C.3       8 GLP5        0.0000 
     38 N         -14.1530   -8.3650   13.9250 N.am      2 SEC2        0.0000 
     39 N         -15.2020   -8.9320   14.7090 N.am     10 SEL2        0.0000 
     40 N         -13.1040   -7.7980   13.1410 N.am      6 SEP2        0.0000 
     41 CA        -15.3900   -7.6805   13.7405 C.3       4 GLC5        0.0000 
     42 CA        -15.7460   -8.1770   15.7040 C.3      12 GLL5        0.0000 
     43 CA        -15.0340   -7.1840   11.7770 C.3       8 GLP5        0.0000 
     44 CA        -23.1517  -15.0497   11.7398 C.3       4 GLC5        0.0000 
     45 CA        -22.5720  -15.7870   13.7020 C.3      12 GLL5        0.0000 
     46 CA        -23.9010  -14.0390   10.3940 C.3       8 GLP5        0.0000 
     47 CA        -24.2755  -14.9660   14.3098 C.3       4 GLC5        0.0000 
     48 CA        -26.2970  -14.7260   14.7100 C.3       8 GLP5        0.0000 
     49 CA        -21.6638  -12.5075   14.1845 C.3       4 GLC5        0.0000 
     50 CA        -22.3672  -14.1822   11.5427 C.3       4 GLC5        0.0000 
     51 CA        -20.9790  -14.0350   13.3050 C.3      12 GLL5        0.0000 
     52 CA        -21.8098  -14.1470   10.4793 C.3       4 GLC5        0.0000 
     53 CA        -19.7270  -14.0760   11.2350 C.3      12 GLL5        0.0000 
     54 CA        -19.8045  -12.2750    8.8633 C.3       4 GLC5        0.0000 
     55 CA        -19.7100  -14.4340    9.8940 C.3      12 GLL5        0.0000 
     56 CA        -20.3920  -10.3790    8.2540 C.3       8 GLP5        0.0000 
     57 CA        -18.8090  -11.5635    8.6707 C.3       4 GLC5        0.0000 
     58 CA        -17.7600  -13.0300    9.5480 C.3      12 GLL5        0.0000 
     59 CA        -16.6375  -13.5475   12.4905 C.3       4 GLC5        0.0000 
     60 CA        -17.7780  -12.6820   10.8910 C.3      12 GLL5        0.0000 
     61 CA        -18.8060  -11.2255   11.1630 C.3       4 GLC5        0.0000 
     62 CA        -16.7975   -9.1420   17.8200 C.3       4 GLC5        0.0000 
     63 CA        -17.9020   -7.7620   16.6920 C.3      12 GLL5        0.0000 
     64 CA        -15.9820  -10.9760   18.5080 C.3       8 GLP5        0.0000 
     65 CA        -19.4420   -7.3375   18.0630 C.3       4 GLC5        0.0000 
     66 CA        -21.2710   -7.3670   18.9940 C.3       8 GLP5        0.0000 
     67 CA        -16.6275   -5.0015   18.2710 C.3       4 GLC5        0.0000 
     68 CA        -17.3240   -6.8540   17.5720 C.3      12 GLL5        0.0000 
     69 CA        -16.6160   -3.2720   18.9940 C.3       8 GLP5        0.0000 
     70 CA        -16.2906   -9.7754   16.9847 C.3       4 GLC5        0.0000 
     71 CA        -15.2873   -8.5595   18.2220 C.3       4 GLC5        0.0000 
     72 CA        -15.1670   -7.2720   16.5940 C.3      12 GLL5        0.0000 
     73 CA        -15.0140  -10.1790   19.3850 C.3       8 GLP5        0.0000 
     74 CA        -14.7583   -5.2990   16.5090 C.3       4 GLC5        0.0000 
     75 CA        -13.9560   -3.6580   15.9590 C.3       8 GLP5        0.0000 
     76 CA        -18.1747   -5.8090   16.6330 C.3       4 GLC5        0.0000 
     77 CA        -15.9540   -6.6080   17.5240 C.3      12 GLL5        0.0000 
     78 CA        -19.5660   -4.6600   15.9380 C.3       8 GLP5        0.0000 
@<TRIPOS>BOND
@<TRIPOS>SUBSTRUCTURE
     1 ALC1       28 GROUP        1 X    ALC  0     ROOT ALC X 1
     2 SEC2        4 GROUP        1 X    SEC  0     **** SEC X 2
     3 LYC4        1 GROUP        1 X    LYC  0     **** LYC X 4
     4 GLC5       11 GROUP        1 X    GLC  0     **** GLC X 6
     5 ALP1       30 GROUP        1 Y    ALP  0     ROOT ALP Y 8
     6 SEP2        6 GROUP        1 Y    SEP  0     **** SEP Y 9
     7 LYP4        3 GROUP        1 Y    LYP  0     **** LYP Y 11
     8 GLP5       13 GROUP        1 Y    GLP  0     **** GLP Y 13
     9 ALL1       29 GROUP        1 Z    ALL  0     ROOT ALL Z 15
    10 SEL2        5 GROUP        1 Z    SEL  0     **** SEL Z 16
    11 LYL4        2 GROUP        1 Z    LYL  0     **** LYL Z 18
    12 GLL5       12 GROUP        1 Z    GLL  0     **** GLL Z 20
@<TRIPOS>SET

