#    Name: 3zln_H0Y_1_ligand
#    Modification time : Tue Mar 25 03:39:01 2014

@<TRIPOS>MOLECULE
3zln_H0Y_1_ligand
   47    51     1     0     0
SMALL
NO_CHARGES


@<TRIPOS>ATOM
      1 O82       -22.8520  -17.8700   10.7470 O.co2     1 H0Y1197     0.0000 
      2 C28       -22.9250  -17.5760   11.9690 C.2       1 H0Y1197     0.0000 
      3 O81       -23.5920  -18.2650   12.7710 O.co2     1 H0Y1197     0.0000 
      4 C24       -22.2330  -16.3340   12.4690 C.ar      1 H0Y1197     0.0000 
      5 N23       -21.3010  -15.7440   11.7060 N.ar      1 H0Y1197     0.0000 
      6 C25       -22.5720  -15.7870   13.7020 C.ar      1 H0Y1197     0.0000 
      7 C26       -21.9360  -14.6250   14.1170 C.ar      1 H0Y1197     0.0000 
      8 C27       -20.9790  -14.0350   13.3050 C.ar      1 H0Y1197     0.0000 
      9 C22       -20.6880  -14.6160   12.0780 C.ar      1 H0Y1197     0.0000 
     10 C19       -19.7270  -14.0760   11.2350 C.ar      1 H0Y1197     0.0000 
     11 C20       -19.7100  -14.4340    9.8940 C.ar      1 H0Y1197     0.0000 
     12 C21       -18.7240  -13.9080    9.0510 C.ar      1 H0Y1197     0.0000 
     13 C16       -17.7600  -13.0300    9.5480 C.ar      1 H0Y1197     0.0000 
     14 C15       -16.6920  -12.4660    8.6270 C.3       1 H0Y1197     0.0000 
     15 C14       -15.4140  -12.2290    9.4150 C.3       1 H0Y1197     0.0000 
     16 C13       -15.6780  -11.1900   10.4980 C.3       1 H0Y1197     0.0000 
     17 C18       -18.7560  -13.2060   11.7310 C.ar      1 H0Y1197     0.0000 
     18 C17       -17.7780  -12.6820   10.8910 C.ar      1 H0Y1197     0.0000 
     19 C12       -16.7280  -11.7470   11.4270 C.2       1 H0Y1197     0.0000 
     20 N11       -16.7190  -11.3670   12.6320 N.2       1 H0Y1197     0.0000 
     21 N10       -15.8020  -10.5270   13.0920 N.pl3     1 H0Y1197     0.0000 
     22 C8        -16.1430   -9.6960   14.1150 C.2       1 H0Y1197     0.0000 
     23 S9        -17.7920   -9.5270   14.6760 S.3       1 H0Y1197     0.0000 
     24 C4        -17.1130   -8.4180   15.7620 C.ar      1 H0Y1197     0.0000 
     25 C3        -17.9020   -7.7620   16.6920 C.ar      1 H0Y1197     0.0000 
     26 C2        -17.3240   -6.8540   17.5720 C.ar      1 H0Y1197     0.0000 
     27 N7        -15.2020   -8.9320   14.7090 N.2       1 H0Y1197     0.0000 
     28 C5        -15.7460   -8.1770   15.7040 C.ar      1 H0Y1197     0.0000 
     29 C6        -15.1670   -7.2720   16.5940 C.ar      1 H0Y1197     0.0000 
     30 C1        -15.9540   -6.6080   17.5240 C.ar      1 H0Y1197     0.0000 
     31 H         -23.2764  -16.2332   14.2906 H         1 H0Y1197     0.0000 
     32 H         -22.1741  -14.2034   15.0239 H         1 H0Y1197     0.0000 
     33 H         -20.4952  -13.1861   13.6043 H         1 H0Y1197     0.0000 
     34 H         -20.4119  -15.0784    9.5186 H         1 H0Y1197     0.0000 
     35 H         -18.7116  -14.1725    8.0557 H         1 H0Y1197     0.0000 
     36 H         -17.0362  -11.5267    8.2063 H         1 H0Y1197     0.0000 
     37 H         -16.4964  -13.1709    7.8254 H         1 H0Y1197     0.0000 
     38 H         -14.6400  -11.8662    8.7496 H         1 H0Y1197     0.0000 
     39 H         -15.0954  -13.1560    9.8761 H         1 H0Y1197     0.0000 
     40 H         -16.0361  -10.2807   10.0408 H         1 H0Y1197     0.0000 
     41 H         -14.7660  -11.0030   11.0433 H         1 H0Y1197     0.0000 
     42 H         -18.7642  -12.9494   12.7303 H         1 H0Y1197     0.0000 
     43 H         -14.8491  -10.4912   12.6958 H         1 H0Y1197     0.0000 
     44 H         -18.9130   -7.9443   16.7336 H         1 H0Y1197     0.0000 
     45 H         -17.9090   -6.3619   18.2610 H         1 H0Y1197     0.0000 
     46 H         -14.1531   -7.0988   16.5579 H         1 H0Y1197     0.0000 
     47 H         -15.5301   -5.9371   18.1756 H         1 H0Y1197     0.0000 
@<TRIPOS>BOND
     1    2    1 ar   
     2    3    2 ar   
     3    4    2 1    
     4    5    4 ar   
     5    6    4 ar   
     6    9    5 ar   
     7    7    6 ar   
     8   31    6 1    
     9    8    7 ar   
    10   32    7 1    
    11    9    8 ar   
    12   33    8 1    
    13   10    9 1    
    14   11   10 ar   
    15   17   10 ar   
    16   12   11 ar   
    17   34   11 1    
    18   13   12 ar   
    19   35   12 1    
    20   14   13 1    
    21   18   13 ar   
    22   15   14 1    
    23   36   14 1    
    24   37   14 1    
    25   16   15 1    
    26   38   15 1    
    27   39   15 1    
    28   19   16 1    
    29   40   16 1    
    30   41   16 1    
    31   18   17 ar   
    32   42   17 1    
    33   19   18 1    
    34   20   19 2    
    35   21   20 1    
    36   22   21 1    
    37   43   21 1    
    38   23   22 1    
    39   27   22 2    
    40   24   23 1    
    41   25   24 ar   
    42   28   24 ar   
    43   26   25 ar   
    44   44   25 1    
    45   30   26 ar   
    46   45   26 1    
    47   28   27 1    
    48   29   28 ar   
    49   30   29 ar   
    50   46   29 1    
    51   47   30 1    
@<TRIPOS>SUBSTRUCTURE
     1 H0Y1197     1 GROUP   
@<TRIPOS>SET

