#    Name: 1SVW_2_CAVITY_N1_6.mol2
#    Modification time : Tue Mar 11 09:14:57 2014

@<TRIPOS>MOLECULE
1SVW_2_CAVITY_N1_6.mol2
   80     0     6     0     0
SMALL
NO_CHARGES


@<TRIPOS>ATOM
      1 O           6.7067   59.3479   82.9979 O.2       2 ALA2        0.0000 
      2 OG          5.9945   60.2533   83.9587 O.2       1 SER1        0.0000 
      3 CA          5.4028   58.6947   82.6470 C.3       5 GLY6        0.0000 
      4 OD1         4.6906   59.6001   83.6078 O.3       3 ASP3        0.0000 
      5 O           3.3867   58.9468   83.2568 O.2       2 ALA2        0.0000 
      6 O           2.6746   59.8522   84.2176 O.2       2 ALA2        0.0000 
      7 CA         -5.8890   61.4023   81.0932 C.3       5 GLY6        0.0000 
      8 CA         -6.6012   62.3077   82.0540 C.3       5 GLY6        0.0000 
      9 N          -7.3133   63.2131   83.0148 N.2       2 ALA2        0.0000 
     10 NZ         -7.1929   60.7491   80.7422 N.2       4 LYS4        0.0000 
     11 NZ         -7.9051   61.6545   81.7030 N.2       4 LYS4        0.0000 
     12 O           5.5813   62.2569   81.7644 O.2       2 ALA2        0.0000 
     13 CA          4.8692   63.1623   82.7253 C.3       5 GLY6        0.0000 
     14 N           4.2774   61.6037   81.4135 N.2       2 ALA2        0.0000 
     15 O           3.5653   62.5090   82.3743 O.2       2 ALA2        0.0000 
     16 CA          2.9735   60.9505   81.0626 C.3       5 GLY6        0.0000 
     17 N           2.2614   61.8558   82.0234 N.2       2 ALA2        0.0000 
     18 O           1.5492   62.7612   82.9842 O.2       2 ALA2        0.0000 
     19 CA          0.9575   61.2026   81.6724 C.3       5 GLY6        0.0000 
     20 CA          0.2453   62.1080   82.6332 C.3       5 GLY6        0.0000 
     21 CA         -0.4668   63.0134   83.5941 C.3       5 GLY6        0.0000 
     22 N          -0.3464   60.5494   81.3215 N.2       2 ALA2        0.0000 
     23 CA         -1.0586   61.4548   82.2823 C.3       5 GLY6        0.0000 
     24 CA         -1.7707   62.3601   83.2431 C.3       5 GLY6        0.0000 
     25 N          -2.3625   60.8016   81.9314 N.2       2 ALA2        0.0000 
     26 OG         -3.0746   61.7069   82.8922 O.2       1 SER1        0.0000 
     27 CA         -3.7868   62.6123   83.8530 C.3       5 GLY6        0.0000 
     28 CA         -3.6664   60.1484   81.5804 C.3       5 GLY6        0.0000 
     29 CA         -4.3785   61.0537   82.5412 C.3       5 GLY6        0.0000 
     30 CA         -5.0907   61.9591   83.5020 C.3       5 GLY6        0.0000 
     31 CA         -5.6824   60.4005   82.1903 C.3       5 GLY6        0.0000 
     32 O          -6.3946   61.3059   83.1511 O.2       2 ALA2        0.0000 
     33 O           5.7879   61.2551   82.8616 O.2       2 ALA2        0.0000 
     34 CA          5.0758   62.1605   83.8224 C.3       5 GLY6        0.0000 
     35 O           5.1962   59.6965   81.5498 O.2       2 ALA2        0.0000 
     36 O           4.4840   60.6019   82.5106 O.2       2 ALA2        0.0000 
     37 OG          3.7719   61.5072   83.4714 O.2       1 SER1        0.0000 
     38 OG          3.0597   62.4126   84.4323 O.2       1 SER1        0.0000 
     39 O           3.1801   59.9487   82.1597 O.2       2 ALA2        0.0000 
     40 O           2.4680   60.8540   83.1205 O.2       2 ALA2        0.0000 
     41 CA          1.7558   61.7594   84.0813 C.3       5 GLY6        0.0000 
     42 O           1.1641   60.2008   82.7696 O.2       2 ALA2        0.0000 
     43 CA         -5.5900   62.5006   77.9381 C.3       5 GLY6        0.0000 
     44 NZ         -7.6061   62.7527   78.5480 N.2       4 LYS4        0.0000 
     45 N          -0.8800   65.0170   81.3998 N.2       2 ALA2        0.0000 
     46 OG         -1.5921   65.9223   82.3606 O.2       1 SER1        0.0000 
     47 N          -0.7596   62.5530   79.1272 N.2       2 ALA2        0.0000 
     48 N          -1.4717   63.4584   80.0880 N.2       2 ALA2        0.0000 
     49 N          -2.1839   64.3638   81.0489 N.2       2 ALA2        0.0000 
     50 DU         -2.8960   65.2691   82.0097 H         6 CUB7        0.0000 
     51 CA         -2.0635   61.8998   78.7763 C.3       5 GLY6        0.0000 
     52 DU         -2.7756   62.8052   79.7371 H         6 CUB7        0.0000 
     53 DU         -4.1999   64.6159   81.6587 H         6 CUB7        0.0000 
     54 N          -4.9121   65.5213   82.6195 N.2       2 ALA2        0.0000 
     55 CA         -2.6552   60.3412   77.4646 C.3       5 GLY6        0.0000 
     56 CA         -3.3674   61.2466   78.4254 C.3       5 GLY6        0.0000 
     57 CA         -4.0795   62.1520   79.3862 C.3       5 GLY6        0.0000 
     58 DU         -4.7917   63.0573   80.3470 H         6 CUB7        0.0000 
     59 DU         -5.5038   63.9627   81.3078 H         6 CUB7        0.0000 
     60 N          -6.2160   64.8681   82.2686 N.2       2 ALA2        0.0000 
     61 CA         -5.3834   61.4988   79.0352 C.3       5 GLY6        0.0000 
     62 DU         -6.0956   62.4041   79.9960 H         6 CUB7        0.0000 
     63 NZ         -6.8078   63.3095   80.9568 N.2       4 LYS4        0.0000 
     64 NZ         -7.3995   61.7509   79.6451 N.2       4 LYS4        0.0000 
     65 CA          0.6305   64.6684   82.8479 C.3       5 GLY6        0.0000 
     66 N           0.7509   62.2044   80.5753 N.2       2 ALA2        0.0000 
     67 N           0.0388   63.1098   81.5361 N.2       2 ALA2        0.0000 
     68 N          -0.6734   64.0152   82.4969 N.2       2 ALA2        0.0000 
     69 N          -0.5530   61.5512   80.2244 N.2       2 ALA2        0.0000 
     70 N          -1.2652   62.4566   81.1852 N.2       2 ALA2        0.0000 
     71 DU         -1.9773   63.3620   82.1460 H         6 CUB7        0.0000 
     72 CA         -2.6895   64.2673   83.1068 C.3       5 GLY6        0.0000 
     73 N          -1.8569   60.8980   79.8734 N.2       2 ALA2        0.0000 
     74 CA         -2.5691   61.8034   80.8342 C.3       5 GLY6        0.0000 
     75 DU         -3.2812   62.7087   81.7950 H         6 CUB7        0.0000 
     76 DU         -3.9934   63.6141   82.7559 H         6 CUB7        0.0000 
     77 N          -4.7055   64.5195   83.7167 N.2       2 ALA2        0.0000 
     78 CA         -3.8730   61.1502   80.4833 C.3       5 GLY6        0.0000 
     79 DU         -4.5851   62.0555   81.4441 H         6 CUB7        0.0000 
     80 N          -5.2973   62.9609   82.4049 N.2       2 ALA2        0.0000 
@<TRIPOS>BOND
@<TRIPOS>SUBSTRUCTURE
     1 SER1        2 GROUP   
     2 ALA2        1 GROUP   
     3 ASP3        4 GROUP   
     4 LYS4       10 GROUP   
     5 GLY6        3 GROUP   
     6 CUB7       50 GROUP   
@<TRIPOS>SET

