#    Name: 1svw_GTP_2_INTS_M
#    Modification time : Tue Mar 25 03:54:23 2014

@<TRIPOS>MOLECULE
1svw_GTP_2_INTS_M
   69     0    15     0     0
SMALL
NO_CHARGES


@<TRIPOS>ATOM
      1 NZ          5.4610   56.8220   83.8420 N.4       3 LYC4        0.0000 
      2 NZ          6.0100   57.7500   83.1030 N.4      13 LYL4        0.0000 
      3 NZ          4.9120   55.8940   84.5810 N.4       8 LYP4        0.0000 
      4 N           6.3795   56.8945   81.9980 N.am      2 SEC2        0.0000 
      5 N           6.0100   57.7500   83.1030 N.am     12 SEL2        0.0000 
      6 N           6.7490   56.0390   80.8930 N.am      7 SEP2        0.0000 
      7 N           5.4610   56.8220   83.8420 N.am      2 SEC2        0.0000 
      8 N           4.9120   55.8940   84.5810 N.am      7 SEP2        0.0000 
      9 NZ          5.4270   57.7300   84.6295 N.4       3 LYC4        0.0000 
     10 NZ          5.9420   59.5660   84.6780 N.4      13 LYL4        0.0000 
     11 Zn          5.4080   59.5750   85.6065 Zn        4 ZIC7        0.0000 
     12 Zn          5.9420   59.5660   84.6780 Zn       14 ZIL7        0.0000 
     13 Zn          4.8740   59.5840   86.5350 Zn        9 ZIP7        0.0000 
     14 N           7.2680   60.6015   84.7890 N.am      2 SEC2        0.0000 
     15 N           5.9420   59.5660   84.6780 N.am     12 SEL2        0.0000 
     16 N           8.5940   61.6370   84.9000 N.am      7 SEP2        0.0000 
     17 N           6.3535   60.1400   85.6595 N.am      2 SEC2        0.0000 
     18 N           6.7650   60.7140   86.6410 N.am      7 SEP2        0.0000 
     19 N           3.5105   58.7040   81.6845 N.am      2 SEC2        0.0000 
     20 N           4.0730   59.3350   83.0170 N.am     12 SEL2        0.0000 
     21 N           2.9480   58.0730   80.3520 N.am      7 SEP2        0.0000 
     22 NZ          3.5430   56.9055   84.3350 N.4       3 LYC4        0.0000 
     23 NZ          2.1740   57.9170   84.0890 N.4      13 LYL4        0.0000 
     24 N           0.9305   58.0360   83.7010 N.am      2 SEC2        0.0000 
     25 N           2.1740   57.9170   84.0890 N.am     12 SEL2        0.0000 
     26 N          -0.3130   58.1550   83.3130 N.am      7 SEP2        0.0000 
     27 N           1.4040   58.1125   85.0990 N.am      2 SEC2        0.0000 
     28 N           0.6340   58.3080   86.1090 N.am      7 SEP2        0.0000 
     29 Zn          4.0515   59.7265   85.9390 Zn        4 ZIC7        0.0000 
     30 Zn          3.2290   59.8690   85.3430 Zn       14 ZIL7        0.0000 
     31 N           1.9315   59.0885   85.7260 N.am      2 SEC2        0.0000 
     32 N           3.2290   59.8690   85.3430 N.am     12 SEL2        0.0000 
     33 N           2.5490   59.9790   86.5820 N.am      2 SEC2        0.0000 
     34 N           1.8690   60.0890   87.8210 N.am      7 SEP2        0.0000 
     35 N           0.1435   61.7850   86.3075 N.am      2 SEC2        0.0000 
     36 N           0.4770   61.6760   84.9980 N.am     12 SEL2        0.0000 
     37 N          -0.1900   61.8940   87.6170 N.am      7 SEP2        0.0000 
     38 N           2.8275   64.1250   83.1655 N.am      2 SEC2        0.0000 
     39 N           2.5900   62.5570   83.8020 N.am     12 SEL2        0.0000 
     40 N           3.0650   65.6930   82.5290 N.am      7 SEP2        0.0000 
     41 CA          1.3945   60.5555   80.4860 C.3       5 GLC5        0.0000 
     42 CA          0.9090   62.3030   81.2630 C.3      15 GLL5        0.0000 
     43 CA          1.8800   58.8080   79.7090 C.3      10 GLP5        0.0000 
     44 CA          0.9965   63.8200   79.0985 C.3       5 GLC5        0.0000 
     45 CA         -0.4270   62.7470   80.4700 C.3      15 GLL5        0.0000 
     46 CA          2.4200   64.8930   77.7270 C.3      10 GLP5        0.0000 
     47 O           0.1950   65.0060   79.9110 O.2       1 ALC1        0.0000 
     48 O          -1.1470   64.8910   79.5610 O.2      11 ALL1        0.0000 
     49 O           1.5370   65.1210   80.2610 O.2       6 ALP1        0.0000 
     50 O          -0.3250   65.6180   78.8205 O.2       1 ALC1        0.0000 
     51 O           0.4970   66.3450   78.0800 O.2       6 ALP1        0.0000 
     52 CA         -3.2450   60.6425   79.9445 C.3       5 GLC5        0.0000 
     53 CA         -2.7810   62.5740   80.7790 C.3      15 GLL5        0.0000 
     54 CA         -3.7090   58.7110   79.1100 C.3      10 GLP5        0.0000 
     55 CA         -5.7310   61.7250   84.2490 C.3       5 GLC5        0.0000 
     56 CA         -5.6780   61.1740   82.3350 C.3      15 GLL5        0.0000 
     57 CA         -5.7840   62.2760   86.1630 C.3      10 GLP5        0.0000 
     58 N          -7.8780   60.8690   84.4350 N.am      2 SEC2        0.0000 
     59 N          -7.7630   60.3760   83.1560 N.am     12 SEL2        0.0000 
     60 N          -7.9930   61.3620   85.7140 N.am      7 SEP2        0.0000 
     61 O          -8.8310   60.9590   81.0400 O.2       1 ALC1        0.0000 
     62 O          -7.6790   61.6640   81.2650 O.2      11 ALL1        0.0000 
     63 O          -9.9830   60.2540   80.8150 O.2       6 ALP1        0.0000 
     64 O          -9.0020   61.9890   80.7130 O.2       1 ALC1        0.0000 
     65 O         -10.3250   62.3140   80.1610 O.2       6 ALP1        0.0000 
     66 O          -9.0125   62.6495   79.7300 O.2       1 ALC1        0.0000 
     67 O          -7.7000   62.9850   79.2990 O.2      11 ALL1        0.0000 
     68 CA         -5.6070   59.8795   81.1153 C.3       5 GLC5        0.0000 
     69 CA         -5.8450   58.2330   80.3630 C.3      10 GLP5        0.0000 
@<TRIPOS>BOND
@<TRIPOS>SUBSTRUCTURE
     1 ALC1       47 GROUP        1 X    ALC  0     ROOT ALC X 1
     2 SEC2        4 GROUP        1 X    SEC  0     **** SEC X 2
     3 LYC4        1 GROUP        1 X    LYC  0     **** LYC X 4
     4 ZIC7       11 GROUP        1 X    ZIC  0     **** ZIC X 5
     5 GLC5       41 GROUP        1 X    GLC  0     **** GLC X 6
     6 ALP1       49 GROUP        1 Y    ALP  0     ROOT ALP Y 8
     7 SEP2        6 GROUP        1 Y    SEP  0     **** SEP Y 9
     8 LYP4        3 GROUP        1 Y    LYP  0     **** LYP Y 11
     9 ZIP7       13 GROUP        1 Y    ZIP  0     **** ZIP Y 12
    10 GLP5       43 GROUP        1 Y    GLP  0     **** GLP Y 13
    11 ALL1       48 GROUP        1 Z    ALL  0     ROOT ALL Z 15
    12 SEL2        5 GROUP        1 Z    SEL  0     **** SEL Z 16
    13 LYL4        2 GROUP        1 Z    LYL  0     **** LYL Z 18
    14 ZIL7       12 GROUP        1 Z    ZIL  0     **** ZIL Z 19
    15 GLL5       42 GROUP        1 Z    GLL  0     **** GLL Z 20
@<TRIPOS>SET

