#    Name: 1svw_GTP_2_ligand
#    Modification time : Tue Mar 25 03:54:23 2014

@<TRIPOS>MOLECULE
1svw_GTP_2_ligand
   44    46     1     0     0
SMALL
NO_CHARGES


@<TRIPOS>ATOM
      1 PG          5.7120   59.2290   83.2870 P.3       1 GTP402      0.0000 
      2 O1G         6.0100   57.7500   83.1030 O.co2     1 GTP402      0.0000 
      3 O2G         6.4250   60.1620   82.3170 O.co2     1 GTP402      0.0000 
      4 O3G         5.9420   59.5660   84.6780 O.co2     1 GTP402      0.0000 
      5 O3B         4.0730   59.3350   83.0170 O.3       1 GTP402      0.0000 
      6 PB          2.7640   59.3230   84.0550 P.3       1 GTP402      0.0000 
      7 O1B         2.1740   57.9170   84.0890 O.co2     1 GTP402      0.0000 
      8 O2B         3.2290   59.8690   85.3430 O.co2     1 GTP402      0.0000 
      9 O3A         1.8010   60.3040   83.3460 O.3       1 GTP402      0.0000 
     10 PA          1.2980   61.7350   83.7930 P.3       1 GTP402      0.0000 
     11 O1A         0.4770   61.6760   84.9980 O.co2     1 GTP402      0.0000 
     12 O2A         2.5900   62.5570   83.8020 O.co2     1 GTP402      0.0000 
     13 O5'         0.2690   62.1630   82.5820 O.3       1 GTP402      0.0000 
     14 C5'         0.9090   62.3030   81.2630 C.3       1 GTP402      0.0000 
     15 C4'        -0.4270   62.7470   80.4700 C.3       1 GTP402      0.0000 
     16 O4'        -1.5660   61.8620   80.5650 O.3       1 GTP402      0.0000 
     17 C3'        -0.9910   64.1050   80.7300 C.3       1 GTP402      0.0000 
     18 O3'        -1.1470   64.8910   79.5610 O.3       1 GTP402      0.0000 
     19 C2'        -2.3120   63.9450   81.5460 C.3       1 GTP402      0.0000 
     20 O2'        -3.1790   64.9330   81.4310 O.3       1 GTP402      0.0000 
     21 C1'        -2.7810   62.5740   80.7790 C.3       1 GTP402      0.0000 
     22 N9         -3.7330   61.8500   81.6720 N.pl3     1 GTP402      0.0000 
     23 C8         -3.3900   61.1200   82.8120 C.2       1 GTP402      0.0000 
     24 N7         -4.6490   60.7310   83.1690 N.2       1 GTP402      0.0000 
     25 C5         -5.6780   61.1740   82.3350 C.2       1 GTP402      0.0000 
     26 C6         -6.9260   60.9740   82.4170 C.2       1 GTP402      0.0000 
     27 O6         -7.7630   60.3760   83.1560 O.2       1 GTP402      0.0000 
     28 N1         -7.6790   61.6640   81.2650 N.am      1 GTP402      0.0000 
     29 C2         -6.9410   62.3230   80.4180 C.2       1 GTP402      0.0000 
     30 N2         -7.7000   62.9850   79.2990 N.pl3     1 GTP402      0.0000 
     31 N3         -5.6250   62.5320   80.3360 N.2       1 GTP402      0.0000 
     32 C4         -5.0600   61.8780   81.4000 C.2       1 GTP402      0.0000 
     33 H           1.2064   61.3996   80.8658 H         1 GTP402      0.0000 
     34 H           1.5618   63.0994   81.2186 H         1 GTP402      0.0000 
     35 H          -0.1246   62.7546   79.3653 H         1 GTP402      0.0000 
     36 H          -0.2845   64.6103   81.4396 H         1 GTP402      0.0000 
     37 H          -2.0157   63.5920   82.5049 H         1 GTP402      0.0000 
     38 H          -3.2381   62.8997   79.8894 H         1 GTP402      0.0000 
     39 H          -2.5944   60.9691   83.1736 H         1 GTP402      0.0000 
     40 H          -8.6666   61.5454   81.2689 H         1 GTP402      0.0000 
     41 H          -7.1483   63.4631   78.6156 H         1 GTP402      0.0000 
     42 H          -8.6954   62.8939   79.3283 H         1 GTP402      0.0000 
     43 H          -0.2294   65.2292   79.3523 H         1 GTP402      0.0000 
     44 H          -2.8294   65.4982   80.6838 H         1 GTP402      0.0000 
@<TRIPOS>BOND
     1    2    1 ar   
     2    3    1 ar   
     3    4    1 ar   
     4    5    1 1    
     5    6    5 1    
     6    7    6 ar   
     7    8    6 ar   
     8    9    6 1    
     9   10    9 1    
    10   11   10 ar   
    11   12   10 ar   
    12   13   10 1    
    13   14   13 1    
    14   15   14 1    
    15   33   14 1    
    16   34   14 1    
    17   16   15 1    
    18   17   15 1    
    19   35   15 1    
    20   21   16 1    
    21   18   17 1    
    22   19   17 1    
    23   36   17 1    
    24   43   18 1    
    25   20   19 1    
    26   21   19 1    
    27   37   19 1    
    28   44   20 1    
    29   22   21 1    
    30   38   21 1    
    31   23   22 1    
    32   32   22 1    
    33   24   23 2    
    34   39   23 1    
    35   25   24 1    
    36   26   25 1    
    37   32   25 2    
    38   27   26 2    
    39   28   26 am   
    40   29   28 1    
    41   40   28 1    
    42   30   29 1    
    43   31   29 2    
    44   41   30 1    
    45   42   30 1    
    46   32   31 1    
@<TRIPOS>SUBSTRUCTURE
     1 GTP402      1 GROUP   
@<TRIPOS>SET

