#    Name: 2jih_097_1_INTS_M
#    Modification time : Tue Mar 25 20:55:04 2014

@<TRIPOS>MOLECULE
2jih_097_1_INTS_M
   44     0    12     0     0
SMALL
NO_CHARGES


@<TRIPOS>ATOM
      1 O           7.0960  -12.9230   11.4595 O.2       1 ALC1        0.0000 
      2 O           7.4840  -11.3390   11.8170 O.2       9 ALL1        0.0000 
      3 O           6.7080  -14.5070   11.1020 O.2       5 ALP1        0.0000 
      4 CA         13.4795  -12.2700   14.7710 C.3       4 GLC5        0.0000 
      5 CA         11.6710  -12.7010   14.0670 C.3      12 GLL5        0.0000 
      6 CA         15.2880  -11.8390   15.4750 C.3       8 GLP5        0.0000 
      7 CA         12.5875  -14.2860   13.2410 C.3       4 GLC5        0.0000 
      8 CA         13.5040  -15.8710   12.4150 C.3       8 GLP5        0.0000 
      9 N           6.0355  -12.9615   14.9935 N.am      2 SEC2        0.0000 
     10 N           6.0960  -11.6160   14.1910 N.am     10 SEL2        0.0000 
     11 N           5.9750  -14.3070   15.7960 N.am      6 SEP2        0.0000 
     12 Zn         12.4570  -14.5210    8.3040 Zn        3 ZIC7        0.0000 
     13 Zn         13.1680  -13.5470    8.1130 Zn       11 ZIL7        0.0000 
     14 Zn         11.7460  -15.4950    8.4950 Zn        7 ZIP7        0.0000 
     15 O          14.3435  -13.4175    8.5125 O.2       1 ALC1        0.0000 
     16 O          13.1680  -13.5470    8.1130 O.2       9 ALL1        0.0000 
     17 O          15.5190  -13.2880    8.9120 O.2       5 ALP1        0.0000 
     18 CA          4.2985  -13.1210   12.2100 C.3       4 GLC5        0.0000 
     19 CA          4.7110  -11.6460   11.1130 C.3      12 GLL5        0.0000 
     20 CA          3.8860  -14.5960   13.3070 C.3       8 GLP5        0.0000 
     21 CA          6.3480  -10.2330   16.3540 C.3       4 GLC5        0.0000 
     22 CA          5.3910   -9.2540   15.8310 C.3      12 GLL5        0.0000 
     23 CA          7.3050  -11.2120   16.8770 C.3       8 GLP5        0.0000 
     24 O          12.7355  -11.0950    8.5615 O.2       1 ALC1        0.0000 
     25 O          12.3090  -12.5790    8.6840 O.2       9 ALL1        0.0000 
     26 O          13.1620   -9.6110    8.4390 O.2       5 ALP1        0.0000 
     27 Zn         11.1020  -14.6655    8.4500 Zn        3 ZIC7        0.0000 
     28 Zn         10.4580  -13.8360    8.4050 Zn       11 ZIL7        0.0000 
     29 CA         11.6255  -14.9935   12.7925 C.3       4 GLC5        0.0000 
     30 CA          9.7470  -14.1160   13.1700 C.3      12 GLL5        0.0000 
     31 CA          7.5590  -14.5120   13.3405 C.3       4 GLC5        0.0000 
     32 CA          5.3710  -14.9080   13.5110 C.3       8 GLP5        0.0000 
     33 N           9.8430   -8.6085   11.3485 N.am      2 SEC2        0.0000 
     34 N           9.1060   -9.8780   11.2990 N.am     10 SEL2        0.0000 
     35 N          10.5800   -7.3390   11.3980 N.am      6 SEP2        0.0000 
     36 CA          7.3230   -8.1275    9.8815 C.3       4 GLC5        0.0000 
     37 CA          5.6930   -9.6070   10.0350 C.3      12 GLL5        0.0000 
     38 CA          8.9530   -6.6480    9.7280 C.3       8 GLP5        0.0000 
     39 CA         12.0190  -13.8927   11.8450 C.3       4 GLC5        0.0000 
     40 CA         10.8040  -12.3020   11.7760 C.3      12 GLL5        0.0000 
     41 CA         13.4370  -15.2700   11.2040 C.3       8 GLP5        0.0000 
     42 CA          4.8855   -7.8196   11.0563 C.3       4 GLC5        0.0000 
     43 CA          5.3030  -10.2470   11.3790 C.3      12 GLL5        0.0000 
     44 CA          4.5490   -5.9300   11.2510 C.3       8 GLP5        0.0000 
@<TRIPOS>BOND
@<TRIPOS>SUBSTRUCTURE
     1 ALC1        1 GROUP        1 X    ALC  0     ROOT ALC X 1
     2 SEC2        9 GROUP        1 X    SEC  0     **** SEC X 2
     3 ZIC7       12 GROUP        1 X    ZIC  0     **** ZIC X 5
     4 GLC5        4 GROUP        1 X    GLC  0     **** GLC X 6
     5 ALP1        3 GROUP        1 Y    ALP  0     ROOT ALP Y 8
     6 SEP2       11 GROUP        1 Y    SEP  0     **** SEP Y 9
     7 ZIP7       14 GROUP        1 Y    ZIP  0     **** ZIP Y 12
     8 GLP5        6 GROUP        1 Y    GLP  0     **** GLP Y 13
     9 ALL1        2 GROUP        1 Z    ALL  0     ROOT ALL Z 15
    10 SEL2       10 GROUP        1 Z    SEL  0     **** SEL Z 16
    11 ZIL7       13 GROUP        1 Z    ZIL  0     **** ZIL Z 19
    12 GLL5        5 GROUP        1 Z    GLL  0     **** GLL Z 20
@<TRIPOS>SET

