#    Name: 2jih_097_1_ligand
#    Modification time : Tue Mar 25 20:55:05 2014

@<TRIPOS>MOLECULE
2jih_097_1_ligand
   52    51     1     0     0
SMALL
NO_CHARGES


@<TRIPOS>ATOM
      1 N1          7.4840  -11.3390   11.8170 N.am      1 0971001     0.0000 
      2 C2         11.6710  -12.7010   14.0670 C.3       1 0971001     0.0000 
      3 O2          6.0960  -11.6160   14.1910 O.2       1 0971001     0.0000 
      4 C4          8.7140  -11.0260   11.3290 C.2       1 0971001     0.0000 
      5 O3         13.1680  -13.5470    8.1130 O.3       1 0971001     0.0000 
      6 C5          6.5490  -10.2990   12.2980 C.3       1 0971001     0.0000 
      7 C6          5.3030  -10.2470   11.3790 C.3       1 0971001     0.0000 
      8 C8          4.7110  -11.6460   11.1130 C.3       1 0971001     0.0000 
      9 C9          4.1990   -9.3760   11.9970 C.3       1 0971001     0.0000 
     10 C10         6.1400  -10.5030   13.7310 C.2       1 0971001     0.0000 
     11 C11         5.3910   -9.2540   15.8310 C.3       1 0971001     0.0000 
     12 N3         12.3090  -12.5790    8.6840 N.am      1 0971001     0.0000 
     13 C12        10.9710  -12.7900    8.8020 C.2       1 0971001     0.0000 
     14 O4         10.4580  -13.8360    8.4050 O.2       1 0971001     0.0000 
     15 C13        10.1570  -11.6830    9.4420 C.3       1 0971001     0.0000 
     16 O5          9.0550  -11.3100    8.6170 O.3       1 0971001     0.0000 
     17 C14         9.6270  -12.1140   10.8130 C.3       1 0971001     0.0000 
     18 C15        10.8040  -12.3020   11.7760 C.3       1 0971001     0.0000 
     19 C1         10.3980  -12.7290   13.1960 C.3       1 0971001     0.0000 
     20 C3          9.7470  -14.1160   13.1700 C.3       1 0971001     0.0000 
     21 O1          9.1060   -9.8780   11.2990 O.2       1 0971001     0.0000 
     22 C7          5.6930   -9.6070   10.0350 C.3       1 0971001     0.0000 
     23 N2          5.8330   -9.3780   14.4320 N.am      1 0971001     0.0000 
     24 H           7.1467  -12.3135   11.8743 H         1 0971001     0.0000 
     25 H           7.0348   -9.3163   12.2134 H         1 0971001     0.0000 
     26 H          12.7357  -11.6881    9.0160 H         1 0971001     0.0000 
     27 H          10.8153  -10.8287    9.6069 H         1 0971001     0.0000 
     28 H           9.0941  -13.0228   10.7148 H         1 0971001     0.0000 
     29 H          11.3693  -11.3577   11.8384 H         1 0971001     0.0000 
     30 H          11.4884  -13.0599   11.3606 H         1 0971001     0.0000 
     31 H           9.7041  -12.0081   13.5795 H         1 0971001     0.0000 
     32 H           5.9122   -8.4215   13.9261 H         1 0971001     0.0000 
     33 H          12.3715  -13.3252   13.7211 H         1 0971001     0.0000 
     34 H          12.0802  -11.7891   14.0974 H         1 0971001     0.0000 
     35 H          11.4807  -12.9685   15.0116 H         1 0971001     0.0000 
     36 H           5.3706  -12.2493   10.6647 H         1 0971001     0.0000 
     37 H           4.4295  -12.0973   11.9598 H         1 0971001     0.0000 
     38 H           3.9053  -11.6021   10.5224 H         1 0971001     0.0000 
     39 H           4.5049   -8.4347   12.1400 H         1 0971001     0.0000 
     40 H           3.3879   -9.3352   11.4135 H         1 0971001     0.0000 
     41 H           3.9034   -9.7263   12.8858 H         1 0971001     0.0000 
     42 H           6.0688   -9.6203   16.4685 H         1 0971001     0.0000 
     43 H           5.2328   -8.3005   16.0874 H         1 0971001     0.0000 
     44 H           4.5370   -9.7474   15.9958 H         1 0971001     0.0000 
     45 H          10.3664  -14.8102   12.8032 H         1 0971001     0.0000 
     46 H           9.4779  -14.4172   14.0848 H         1 0971001     0.0000 
     47 H           8.9234  -14.1291   12.6030 H         1 0971001     0.0000 
     48 H           6.0353   -8.6749   10.1530 H         1 0971001     0.0000 
     49 H           6.4106  -10.1262    9.5707 H         1 0971001     0.0000 
     50 H           4.9155   -9.5566    9.4082 H         1 0971001     0.0000 
     51 H          14.0595  -13.0981    8.0523 H         1 0971001     0.0000 
     52 H           8.4334  -12.0928    8.6462 H         1 0971001     0.0000 
@<TRIPOS>BOND
     1    4    1 am   
     2    6    1 1    
     3   24    1 1    
     4   19    2 1    
     5   33    2 1    
     6   34    2 1    
     7   35    2 1    
     8   10    3 2    
     9   17    4 1    
    10   21    4 2    
    11   12    5 1    
    12   51    5 1    
    13    7    6 1    
    14   10    6 1    
    15   25    6 1    
    16    8    7 1    
    17    9    7 1    
    18   22    7 1    
    19   36    8 1    
    20   37    8 1    
    21   38    8 1    
    22   39    9 1    
    23   40    9 1    
    24   41    9 1    
    25   23   10 am   
    26   23   11 1    
    27   42   11 1    
    28   43   11 1    
    29   44   11 1    
    30   13   12 am   
    31   26   12 1    
    32   14   13 2    
    33   15   13 1    
    34   16   15 1    
    35   17   15 1    
    36   27   15 1    
    37   52   16 1    
    38   18   17 1    
    39   28   17 1    
    40   19   18 1    
    41   29   18 1    
    42   30   18 1    
    43   20   19 1    
    44   31   19 1    
    45   45   20 1    
    46   46   20 1    
    47   47   20 1    
    48   48   22 1    
    49   49   22 1    
    50   50   22 1    
    51   32   23 1    
@<TRIPOS>SUBSTRUCTURE
     1 0971001     1 GROUP   
@<TRIPOS>SET

