#    Name: 1q1w_FAD_1_INTS_M
#    Modification time : Mon Mar 24 22:43:54 2014

@<TRIPOS>MOLECULE
1q1w_FAD_1_INTS_M
  121     0    12     0     0
SMALL
NO_CHARGES


@<TRIPOS>ATOM
      1 NZ         43.3805   82.3945  140.5030 N.4       3 LYC4        0.0000 
      2 NZ         44.9670   82.0310  140.9090 N.4      11 LYL4        0.0000 
      3 NZ         41.1460   81.9400  140.9180 N.4       7 LYP4        0.0000 
      4 N          43.3580   81.7690  141.4675 N.am      2 SEC2        0.0000 
      5 N          44.9670   82.0310  140.9090 N.am     10 SEL2        0.0000 
      6 N          41.7490   81.5070  142.0260 N.am      6 SEP2        0.0000 
      7 N          43.3805   82.3945  140.5030 N.am      2 SEC2        0.0000 
      8 N          41.7940   82.7580  140.0970 N.am      6 SEP2        0.0000 
      9 CA         46.9420   83.7120  140.0420 C.3       4 GLC5        0.0000 
     10 CA         47.9030   82.2140  140.6270 C.3      12 GLL5        0.0000 
     11 CA         45.9810   85.2100  139.4570 C.3       8 GLP5        0.0000 
     12 CA         50.5495   81.8375  141.4170 C.3       4 GLC5        0.0000 
     13 CA         48.6840   81.6490  141.8120 C.3      12 GLL5        0.0000 
     14 CA         52.4150   82.0260  141.0220 C.3       8 GLP5        0.0000 
     15 O          48.6735   82.3605  146.7400 O.2       1 ALC1        0.0000 
     16 O          48.0130   82.1200  145.3300 O.2       9 ALL1        0.0000 
     17 O          49.3340   82.6010  148.1500 O.2       5 ALP1        0.0000 
     18 O          49.0210   81.6265  146.0080 O.2       1 ALC1        0.0000 
     19 O          50.0290   81.1330  146.6860 O.2       5 ALP1        0.0000 
     20 CA         51.0375   82.3515  142.3455 C.3       4 GLC5        0.0000 
     21 CA         49.6600   82.6770  143.6690 C.3      12 GLL5        0.0000 
     22 CA         49.6150   84.2625  142.1195 C.3       4 GLC5        0.0000 
     23 CA         49.5700   85.8480  140.5700 C.3       8 GLP5        0.0000 
     24 CA         51.4530   86.3960  143.2740 C.3       4 GLC5        0.0000 
     25 CA         51.5650   85.3850  145.1340 C.3      12 GLL5        0.0000 
     26 CA         51.3410   87.4070  141.4140 C.3       8 GLP5        0.0000 
     27 CA         53.0795   85.7840  148.0335 C.3       4 GLC5        0.0000 
     28 CA         52.7110   85.7650  145.8300 C.3      12 GLL5        0.0000 
     29 CA         53.4480   85.8030  150.2370 C.3       8 GLP5        0.0000 
     30 CA         54.7225   86.2145  145.8855 C.3       4 GLC5        0.0000 
     31 CA         56.7340   86.6640  145.9410 C.3       8 GLP5        0.0000 
     32 O          53.9255   87.5930  147.0145 O.2       1 ALC1        0.0000 
     33 O          52.8980   87.0410  146.1580 O.2       9 ALL1        0.0000 
     34 O          54.9530   88.1450  147.8710 O.2       5 ALP1        0.0000 
     35 N          54.7400   85.1505  147.0515 N.am      2 SEC2        0.0000 
     36 N          53.6260   84.8220  146.1720 N.am     10 SEL2        0.0000 
     37 N          55.8540   85.4790  147.9310 N.am      6 SEP2        0.0000 
     38 CA         54.0430   84.6480  144.1895 C.3       4 GLC5        0.0000 
     39 CA         53.4410   83.5310  145.8500 C.3      12 GLL5        0.0000 
     40 CA         54.6450   85.7650  142.5290 C.3       8 GLP5        0.0000 
     41 CA         53.6720   81.7395  145.2795 C.3       4 GLC5        0.0000 
     42 CA         53.9030   79.9480  144.7090 C.3       8 GLP5        0.0000 
     43 CA         52.4380   82.5440  147.2110 C.3       4 GLC5        0.0000 
     44 CA         51.4350   81.5570  148.5720 C.3       8 GLP5        0.0000 
     45 CA         54.1880   83.7130  147.6810 C.3       4 GLC5        0.0000 
     46 CA         54.9350   83.8950  149.5120 C.3       8 GLP5        0.0000 
     47 CA         55.3765   84.4580  145.5945 C.3       4 GLC5        0.0000 
     48 CA         57.3120   85.3850  145.3390 C.3       8 GLP5        0.0000 
     49 N          52.4765   81.8140  145.9375 N.am      2 SEC2        0.0000 
     50 N          52.3430   83.1450  145.1820 N.am     10 SEL2        0.0000 
     51 N          52.6100   80.4830  146.6930 N.am      6 SEP2        0.0000 
     52 CA         51.9070   83.0375  142.9205 C.3       4 GLC5        0.0000 
     53 CA         51.3990   84.0490  144.8190 C.3      12 GLL5        0.0000 
     54 N          39.4830   79.2480  132.1870 N.am      2 SEC2        0.0000 
     55 N          38.1840   78.7250  133.1410 N.am     10 SEL2        0.0000 
     56 N          40.7820   79.7710  131.2330 N.am      6 SEP2        0.0000 
     57 N          39.4755   79.2025  131.0480 N.am      2 SEC2        0.0000 
     58 N          38.1690   78.6340  130.8630 N.am     10 SEL2        0.0000 
     59 N          34.8450   74.8670  134.0360 N.am      2 SEC2        0.0000 
     60 N          35.4540   75.7450  133.1830 N.am     10 SEL2        0.0000 
     61 N          34.2360   73.9890  134.8890 N.am      6 SEP2        0.0000 
     62 N          35.2790   75.3340  135.2275 N.am      2 SEC2        0.0000 
     63 N          36.3220   76.6790  135.5660 N.am     10 SEL2        0.0000 
     64 CA         34.6495   75.3805  138.7975 C.3       4 GLC5        0.0000 
     65 CA         36.3380   76.5370  137.9600 C.3      12 GLL5        0.0000 
     66 CA         32.9610   74.2240  139.6350 C.3       8 GLP5        0.0000 
     67 CA         36.9435   74.5375  141.0665 C.3       4 GLC5        0.0000 
     68 CA         36.2710   76.3520  140.4910 C.3      12 GLL5        0.0000 
     69 CA         37.6160   72.7230  141.6420 C.3       8 GLP5        0.0000 
     70 CA         34.6160   75.2880  140.0630 C.3       4 GLC5        0.0000 
     71 CA         35.5580   76.2440  142.1985 C.3       4 GLC5        0.0000 
     72 CA         34.8450   76.1360  143.9060 C.3       8 GLP5        0.0000 
     73 CA         34.5075   77.1750  140.5195 C.3       4 GLC5        0.0000 
     74 CA         32.7440   77.9980  140.5480 C.3       8 GLP5        0.0000 
     75 CA         40.0165   77.5545  140.0705 C.3       4 GLC5        0.0000 
     76 CA         38.4180   78.4720  140.5800 C.3      12 GLL5        0.0000 
     77 CA         41.6150   76.6370  139.5610 C.3       8 GLP5        0.0000 
     78 CA         38.7585   78.5225  142.4775 C.3       4 GLC5        0.0000 
     79 CA         39.0990   78.5730  144.3750 C.3       8 GLP5        0.0000 
     80 CA         35.6485   78.4000  137.1665 C.3       4 GLC5        0.0000 
     81 CA         37.7710   78.1420  136.8040 C.3      12 GLL5        0.0000 
     82 CA         33.5260   78.6580  137.5290 C.3       8 GLP5        0.0000 
     83 CA         40.9250   78.1190  133.7815 C.3       4 GLC5        0.0000 
     84 CA         40.6390   79.2730  135.1960 C.3      12 GLL5        0.0000 
     85 CA         41.2110   76.9650  132.3670 C.3       8 GLP5        0.0000 
     86 O          41.9220   82.7430  134.9475 O.2       1 ALC1        0.0000 
     87 O          41.3520   81.5340  134.7410 O.2       9 ALL1        0.0000 
     88 O          42.4920   83.9520  135.1540 O.2       5 ALP1        0.0000 
     89 O          41.6255   82.5710  135.9900 O.2       1 ALC1        0.0000 
     90 O          41.8990   83.6080  137.2390 O.2       5 ALP1        0.0000 
     91 CA         44.1330   78.4715  133.6590 C.3       4 GLC5        0.0000 
     92 CA         43.0850   79.8450  134.9080 C.3      12 GLL5        0.0000 
     93 CA         45.1810   77.0980  132.4100 C.3       8 GLP5        0.0000 
     94 CA         42.1480   78.4050  133.6375 C.3       4 GLC5        0.0000 
     95 CA         45.3620   79.0665  134.8215 C.3       4 GLC5        0.0000 
     96 CA         44.1970   80.8770  135.1420 C.3      12 GLL5        0.0000 
     97 CA         46.5270   77.2560  134.5010 C.3       8 GLP5        0.0000 
     98 N          47.7910   80.2755  135.7880 N.am      2 SEC2        0.0000 
     99 N          46.9970   80.9160  136.9390 N.am     10 SEL2        0.0000 
    100 N          48.5850   79.6350  134.6370 N.am      6 SEP2        0.0000 
    101 N          45.4120   84.3180  135.5390 N.am      2 SEC2        0.0000 
    102 N          45.9130   83.0420  136.0920 N.am     10 SEL2        0.0000 
    103 N          44.9110   85.5940  134.9860 N.am      6 SEP2        0.0000 
    104 CA         48.4447   80.2248  139.9843 C.3       4 GLC5        0.0000 
    105 CA         48.5960   78.5180  138.7490 C.3       8 GLP5        0.0000 
    106 CA         48.9317   83.8898  140.8947 C.3       4 GLC5        0.0000 
    107 CA         53.2067   85.2885  143.8397 C.3       4 GLC5        0.0000 
    108 CA         39.1502   76.7138  138.7878 C.3       4 GLC5        0.0000 
    109 CA         36.8350   76.9710  139.2020 C.3      12 GLL5        0.0000 
    110 CA         40.9750   75.9430  138.3510 C.3       8 GLP5        0.0000 
    111 CA         35.1145   77.7782  137.9052 C.3       4 GLC5        0.0000 
    112 CA         39.4993   77.1507  137.8885 C.3       4 GLC5        0.0000 
    113 CA         37.4990   75.6260  136.5673 C.3       4 GLC5        0.0000 
    114 CA         37.8270   73.7680  136.0520 C.3       8 GLP5        0.0000 
    115 CA         41.6888   78.8777  137.2070 C.3       4 GLC5        0.0000 
    116 CA         42.1970   77.9520  139.1060 C.3       8 GLP5        0.0000 
    117 CA         40.2965   80.9134  133.5867 C.3       4 GLC5        0.0000 
    118 CA         41.7220   80.3340  135.4200 C.3      12 GLL5        0.0000 
    119 CA         39.7600   81.8900  131.7700 C.3       8 GLP5        0.0000 
    120 CA         44.6665   80.6505  133.3160 C.3       4 GLC5        0.0000 
    121 CA         45.6920   80.9400  131.6070 C.3       8 GLP5        0.0000 
@<TRIPOS>BOND
@<TRIPOS>SUBSTRUCTURE
     1 ALC1       15 GROUP        1 X    ALC  0     ROOT ALC X 1
     2 SEC2        4 GROUP        1 X    SEC  0     **** SEC X 2
     3 LYC4        1 GROUP        1 X    LYC  0     **** LYC X 4
     4 GLC5        9 GROUP        1 X    GLC  0     **** GLC X 6
     5 ALP1       17 GROUP        1 Y    ALP  0     ROOT ALP Y 8
     6 SEP2        6 GROUP        1 Y    SEP  0     **** SEP Y 9
     7 LYP4        3 GROUP        1 Y    LYP  0     **** LYP Y 11
     8 GLP5       11 GROUP        1 Y    GLP  0     **** GLP Y 13
     9 ALL1       16 GROUP        1 Z    ALL  0     ROOT ALL Z 15
    10 SEL2        5 GROUP        1 Z    SEL  0     **** SEL Z 16
    11 LYL4        2 GROUP        1 Z    LYL  0     **** LYL Z 18
    12 GLL5       10 GROUP        1 Z    GLL  0     **** GLL Z 20
@<TRIPOS>SET

