#    Name: 1q1w_FAD_1_ligand
#    Modification time : Mon Mar 24 22:43:55 2014

@<TRIPOS>MOLECULE
1q1w_FAD_1_ligand
   84    89     1     0     0
SMALL
NO_CHARGES


@<TRIPOS>ATOM
      1 PA         45.5890   81.3180  139.7640 P.3       1 FAD449      0.0000 
      2 O1A        44.9670   82.0310  140.9090 O.co2     1 FAD449      0.0000 
      3 O2A        45.0420   79.9970  139.3820 O.co2     1 FAD449      0.0000 
      4 O5B        47.1520   81.1600  140.0350 O.3       1 FAD449      0.0000 
      5 C5B        47.9030   82.2140  140.6270 C.3       1 FAD449      0.0000 
      6 C4B        48.6840   81.6490  141.8120 C.3       1 FAD449      0.0000 
      7 O4B        49.7120   82.5960  142.2310 O.3       1 FAD449      0.0000 
      8 C3B        47.7790   81.4260  143.0250 C.3       1 FAD449      0.0000 
      9 O3B        48.0770   80.1480  143.6020 O.3       1 FAD449      0.0000 
     10 C2B        48.1850   82.5300  143.9710 C.3       1 FAD449      0.0000 
     11 O2B        48.0130   82.1200  145.3300 O.3       1 FAD449      0.0000 
     12 C1B        49.6600   82.6770  143.6690 C.3       1 FAD449      0.0000 
     13 N9A        50.2440   83.9410  144.1750 N.pl3     1 FAD449      0.0000 
     14 C8A        49.7050   85.1670  144.0760 C.2       1 FAD449      0.0000 
     15 N7A        50.5160   86.0490  144.6650 N.2       1 FAD449      0.0000 
     16 C5A        51.5650   85.3850  145.1340 C.ar      1 FAD449      0.0000 
     17 C6A        52.7110   85.7650  145.8300 C.ar      1 FAD449      0.0000 
     18 N6A        52.8980   87.0410  146.1580 N.pl3     1 FAD449      0.0000 
     19 N1A        53.6260   84.8220  146.1720 N.ar      1 FAD449      0.0000 
     20 C2A        53.4410   83.5310  145.8500 C.ar      1 FAD449      0.0000 
     21 N3A        52.3430   83.1450  145.1820 N.ar      1 FAD449      0.0000 
     22 C4A        51.3990   84.0490  144.8190 C.ar      1 FAD449      0.0000 
     23 N1         38.1840   78.7250  133.1410 N.2       1 FAD449      0.0000 
     24 C2         37.7270   78.1970  131.9260 C.2       1 FAD449      0.0000 
     25 O2         38.1690   78.6340  130.8630 O.2       1 FAD449      0.0000 
     26 N3         36.7700   77.1580  131.9380 N.am      1 FAD449      0.0000 
     27 C4         36.2780   76.6620  133.1730 C.2       1 FAD449      0.0000 
     28 O4         35.4540   75.7450  133.1830 O.2       1 FAD449      0.0000 
     29 C4X        36.7440   77.1970  134.3820 C.2       1 FAD449      0.0000 
     30 N5         36.3220   76.6790  135.5660 N.2       1 FAD449      0.0000 
     31 C5X        36.8040   77.1150  136.7620 C.ar      1 FAD449      0.0000 
     32 C6         36.3380   76.5370  137.9600 C.ar      1 FAD449      0.0000 
     33 C7         36.8350   76.9710  139.2020 C.ar      1 FAD449      0.0000 
     34 C7M        36.2710   76.3520  140.4910 C.3       1 FAD449      0.0000 
     35 C8         37.8160   77.9980  139.2470 C.ar      1 FAD449      0.0000 
     36 C8M        38.4180   78.4720  140.5800 C.3       1 FAD449      0.0000 
     37 C9         38.2760   78.5750  138.0480 C.ar      1 FAD449      0.0000 
     38 C9A        37.7710   78.1420  136.8040 C.ar      1 FAD449      0.0000 
     39 N10        38.2240   78.7110  135.5810 N.pl3     1 FAD449      0.0000 
     40 C10        37.6990   78.2280  134.3610 C.2       1 FAD449      0.0000 
     41 C1'        39.2490   79.8060  135.5780 C.3       1 FAD449      0.0000 
     42 C2'        40.6390   79.2730  135.1960 C.3       1 FAD449      0.0000 
     43 O2'        40.9300   78.1240  135.9910 O.3       1 FAD449      0.0000 
     44 C3'        41.7220   80.3340  135.4200 C.3       1 FAD449      0.0000 
     45 O3'        41.3520   81.5340  134.7410 O.3       1 FAD449      0.0000 
     46 C4'        43.0850   79.8450  134.9080 C.3       1 FAD449      0.0000 
     47 O4'        43.4410   78.6360  135.5750 O.3       1 FAD449      0.0000 
     48 C5'        44.1970   80.8770  135.1420 C.3       1 FAD449      0.0000 
     49 O5'        44.5280   81.0070  136.5350 O.3       1 FAD449      0.0000 
     50 P          45.8460   81.8420  136.9530 P.3       1 FAD449      0.0000 
     51 O1P        46.9970   80.9160  136.9390 O.co2     1 FAD449      0.0000 
     52 O2P        45.9130   83.0420  136.0920 O.co2     1 FAD449      0.0000 
     53 O3P        45.5290   82.3190  138.4840 O.3       1 FAD449      0.0000 
     54 H          47.2610   83.0141  141.0014 H         1 FAD449      0.0000 
     55 H          48.6226   82.6464  139.9287 H         1 FAD449      0.0000 
     56 H          49.1251   80.7152  141.5394 H         1 FAD449      0.0000 
     57 H          46.7863   81.5494  142.7369 H         1 FAD449      0.0000 
     58 H          47.6918   83.4115  143.7140 H         1 FAD449      0.0000 
     59 H          50.1656   81.8218  144.0936 H         1 FAD449      0.0000 
     60 H          48.8578   85.3748  143.6430 H         1 FAD449      0.0000 
     61 H          52.1641   87.6720  145.9066 H         1 FAD449      0.0000 
     62 H          53.7556   87.2538  146.6263 H         1 FAD449      0.0000 
     63 H          54.1606   82.8197  146.1231 H         1 FAD449      0.0000 
     64 H          36.4312   76.7629  131.0613 H         1 FAD449      0.0000 
     65 H          35.6311   75.7944  137.9244 H         1 FAD449      0.0000 
     66 H          38.9843   79.3166  138.0779 H         1 FAD449      0.0000 
     67 H          39.3122   80.2622  136.5698 H         1 FAD449      0.0000 
     68 H          38.9654   80.5821  134.8617 H         1 FAD449      0.0000 
     69 H          40.6233   79.0225  134.1459 H         1 FAD449      0.0000 
     70 H          41.8069   80.5032  136.4856 H         1 FAD449      0.0000 
     71 H          43.0040   79.6805  133.8394 H         1 FAD449      0.0000 
     72 H          43.8535   81.8368  134.7187 H         1 FAD449      0.0000 
     73 H          45.0725   80.5621  134.5480 H         1 FAD449      0.0000 
     74 H          36.4146   75.3628  140.5217 H         1 FAD449      0.0000 
     75 H          36.7024   76.7363  141.3072 H         1 FAD449      0.0000 
     76 H          35.2871   76.5082  140.5784 H         1 FAD449      0.0000 
     77 H          38.8803   77.7289  141.0638 H         1 FAD449      0.0000 
     78 H          39.0921   79.1983  140.4457 H         1 FAD449      0.0000 
     79 H          37.7179   78.8322  141.1965 H         1 FAD449      0.0000 
     80 H          48.1032   80.3093  144.5885 H         1 FAD449      0.0000 
     81 H          48.9104   82.2446  145.7533 H         1 FAD449      0.0000 
     82 H          41.9280   78.0937  136.0463 H         1 FAD449      0.0000 
     83 H          41.9542   82.2392  135.1152 H         1 FAD449      0.0000 
     84 H          43.7079   78.9179  136.4966 H         1 FAD449      0.0000 
@<TRIPOS>BOND
     1    2    1 ar   
     2    3    1 ar   
     3    4    1 1    
     4   53    1 1    
     5    5    4 1    
     6    6    5 1    
     7   54    5 1    
     8   55    5 1    
     9    7    6 1    
    10    8    6 1    
    11   56    6 1    
    12   12    7 1    
    13    9    8 1    
    14   10    8 1    
    15   57    8 1    
    16   80    9 1    
    17   11   10 1    
    18   12   10 1    
    19   58   10 1    
    20   81   11 1    
    21   13   12 1    
    22   59   12 1    
    23   14   13 1    
    24   22   13 1    
    25   15   14 2    
    26   60   14 1    
    27   16   15 1    
    28   17   16 ar   
    29   22   16 ar   
    30   18   17 1    
    31   19   17 ar   
    32   61   18 1    
    33   62   18 1    
    34   20   19 ar   
    35   21   20 ar   
    36   63   20 1    
    37   22   21 ar   
    38   24   23 1    
    39   40   23 2    
    40   25   24 2    
    41   26   24 am   
    42   27   26 am   
    43   64   26 1    
    44   28   27 2    
    45   29   27 1    
    46   30   29 2    
    47   40   29 1    
    48   31   30 1    
    49   32   31 ar   
    50   38   31 ar   
    51   33   32 ar   
    52   65   32 1    
    53   34   33 1    
    54   35   33 ar   
    55   74   34 1    
    56   75   34 1    
    57   76   34 1    
    58   36   35 1    
    59   37   35 ar   
    60   77   36 1    
    61   78   36 1    
    62   79   36 1    
    63   38   37 ar   
    64   66   37 1    
    65   39   38 1    
    66   40   39 1    
    67   41   39 1    
    68   42   41 1    
    69   67   41 1    
    70   68   41 1    
    71   43   42 1    
    72   44   42 1    
    73   69   42 1    
    74   82   43 1    
    75   45   44 1    
    76   46   44 1    
    77   70   44 1    
    78   83   45 1    
    79   47   46 1    
    80   48   46 1    
    81   71   46 1    
    82   84   47 1    
    83   49   48 1    
    84   72   48 1    
    85   73   48 1    
    86   50   49 1    
    87   51   50 ar   
    88   52   50 ar   
    89   53   50 1    
@<TRIPOS>SUBSTRUCTURE
     1 FAD449      1 GROUP   
@<TRIPOS>SET

