#    Name: 2qd4_CHD_6_INTS_M
#    Modification time : Mon Mar 24 21:46:16 2014

@<TRIPOS>MOLECULE
2qd4_CHD_6_INTS_M
   60     0     6     0     0
SMALL
NO_CHARGES


@<TRIPOS>ATOM
      1 CA         41.9530   81.9335   17.9505 C.3       2 GLC5        0.0000 
      2 CA         40.3260   81.0450   17.1870 C.3       6 GLL5        0.0000 
      3 CA         43.5800   82.8220   18.7140 C.3       4 GLP5        0.0000 
      4 CA         40.3030   79.3815   19.9320 C.3       2 GLC5        0.0000 
      5 CA         39.5180   80.0130   17.9920 C.3       6 GLL5        0.0000 
      6 CA         41.0880   78.7500   21.8720 C.3       4 GLP5        0.0000 
      7 CA         34.3065   77.2955   15.9410 C.3       2 GLC5        0.0000 
      8 CA         36.2560   77.8500   15.9150 C.3       6 GLL5        0.0000 
      9 CA         32.3570   76.7410   15.9670 C.3       4 GLP5        0.0000 
     10 CA         39.8720   77.8890   20.3330 C.3       2 GLC5        0.0000 
     11 CA         38.6560   77.0280   18.7940 C.3       6 GLL5        0.0000 
     12 CA         40.5375   77.6110   18.3340 C.3       2 GLC5        0.0000 
     13 CA         42.4190   78.1940   17.8740 C.3       4 GLP5        0.0000 
     14 CA         39.9035   75.5295   18.1080 C.3       2 GLC5        0.0000 
     15 CA         41.1510   74.0310   17.4220 C.3       4 GLP5        0.0000 
     16 CA         40.0610   76.5925   15.8420 C.3       2 GLC5        0.0000 
     17 CA         38.1330   76.1840   15.9730 C.3       6 GLL5        0.0000 
     18 CA         41.9890   77.0010   15.7110 C.3       4 GLP5        0.0000 
     19 CA         39.6420   75.1075   16.6975 C.3       2 GLC5        0.0000 
     20 CA         39.2465   75.2350   14.6280 C.3       2 GLC5        0.0000 
     21 CA         40.3600   74.2860   13.2830 C.3       4 GLP5        0.0000 
     22 CA         41.7085   81.4145   14.3775 C.3       2 GLC5        0.0000 
     23 CA         39.8000   80.2930   14.2080 C.3       6 GLL5        0.0000 
     24 CA         43.6170   82.5360   14.5470 C.3       4 GLP5        0.0000 
     25 CA         40.8945   78.6470   14.9595 C.3       2 GLC5        0.0000 
     26 CA         40.8515   79.2500   13.1505 C.3       2 GLC5        0.0000 
     27 CA         41.9030   78.2070   12.0930 C.3       4 GLP5        0.0000 
     28 CA         33.3280   73.7965   15.8960 C.3       2 GLC5        0.0000 
     29 CA         34.8620   74.7170   16.3600 C.3       6 GLL5        0.0000 
     30 CA         31.7940   72.8760   15.4320 C.3       4 GLP5        0.0000 
     31 CA         33.7945   70.6750   17.7635 C.3       2 GLC5        0.0000 
     32 CA         34.7460   72.3630   18.3170 C.3       6 GLL5        0.0000 
     33 CA         32.8430   68.9870   17.2100 C.3       4 GLP5        0.0000 
     34 N          36.2975   70.6885   19.2335 N.am      1 SEC2        0.0000 
     35 N          36.7790   71.0980   18.0790 N.am      5 SEL2        0.0000 
     36 N          35.8160   70.2790   20.3880 N.am      3 SEP2        0.0000 
     37 CA         35.5050   81.9125   14.2758 C.3       2 GLC5        0.0000 
     38 CA         37.8400   81.7500   14.1590 C.3       6 GLL5        0.0000 
     39 CA         33.6440   81.5620   14.0420 C.3       4 GLP5        0.0000 
     40 CA         41.7567   82.0033   15.6103 C.3       2 GLC5        0.0000 
     41 CA         39.4670   81.8960   16.1600 C.3       6 GLL5        0.0000 
     42 CA         40.0817   83.7094   15.1864 C.3       2 GLC5        0.0000 
     43 CA         41.3690   84.8110   14.1400 C.3       4 GLP5        0.0000 
     44 CA         40.8798   78.9873   17.5901 C.3       2 GLC5        0.0000 
     45 CA         35.3750   78.8062   14.3377 C.3       2 GLC5        0.0000 
     46 CA         37.0860   78.8530   15.0780 C.3       6 GLL5        0.0000 
     47 CA         34.0790   79.2610   13.1790 C.3       4 GLP5        0.0000 
     48 CA         38.1757   74.3502   18.4982 C.3       2 GLC5        0.0000 
     49 CA         36.4570   76.0220   17.9210 C.3       6 GLL5        0.0000 
     50 CA         39.3150   72.7460   18.5180 C.3       4 GLP5        0.0000 
     51 CA         37.4942   73.4695   18.2870 C.3       2 GLC5        0.0000 
     52 CA         35.9680   74.5970   17.4500 C.3       6 GLL5        0.0000 
     53 CA         33.8860   75.6990   16.4360 C.3       2 GLC5        0.0000 
     54 CA         35.7908   72.1205   19.8627 C.3       2 GLC5        0.0000 
     55 CA         35.3790   73.7890   18.6620 C.3       6 GLL5        0.0000 
     56 CA         36.5190   71.1650   21.2360 C.3       4 GLP5        0.0000 
     57 CA         33.7293   72.8335   19.7873 C.3       2 GLC5        0.0000 
     58 CA         32.3960   72.5910   21.0850 C.3       4 GLP5        0.0000 
     59 CA         33.3183   72.9435   17.7013 C.3       2 GLC5        0.0000 
     60 CA         31.5740   72.8110   16.9130 C.3       4 GLP5        0.0000 
@<TRIPOS>BOND
@<TRIPOS>SUBSTRUCTURE
     1 SEC2       34 GROUP        1 X    SEC  0     ROOT SEC X 2
     2 GLC5        1 GROUP        1 X    GLC  0     **** GLC X 6
     3 SEP2       36 GROUP        1 Y    SEP  0     ROOT SEP Y 9
     4 GLP5        3 GROUP        1 Y    GLP  0     **** GLP Y 13
     5 SEL2       35 GROUP        1 Z    SEL  0     ROOT SEL Z 16
     6 GLL5        2 GROUP        1 Z    GLL  0     **** GLL Z 20
@<TRIPOS>SET

