#    Name: 2qd4_CHD_6_ligand
#    Modification time : Mon Mar 24 21:46:16 2014

@<TRIPOS>MOLECULE
2qd4_CHD_6_ligand
   68    71     1     0     0
SMALL
NO_CHARGES


@<TRIPOS>ATOM
      1 C1         37.8400   81.7500   14.1590 C.3       1 CHD928      0.0000 
      2 C2         36.8920   82.7760   14.8600 C.3       1 CHD928      0.0000 
      3 C3         37.7290   83.7200   15.7690 C.3       1 CHD928      0.0000 
      4 O3         36.8260   84.6650   16.4220 O.3       1 CHD928      0.0000 
      5 C4         38.5150   82.9190   16.8420 C.3       1 CHD928      0.0000 
      6 C5         39.4670   81.8960   16.1600 C.3       1 CHD928      0.0000 
      7 C6         40.3260   81.0450   17.1870 C.3       1 CHD928      0.0000 
      8 C7         39.5180   80.0130   17.9920 C.3       1 CHD928      0.0000 
      9 O7         38.6080   80.6200   18.9770 O.3       1 CHD928      0.0000 
     10 C8         38.7590   79.0320   17.0230 C.3       1 CHD928      0.0000 
     11 C9         37.8740   79.8680   16.0210 C.3       1 CHD928      0.0000 
     12 C10        38.7200   80.9400   15.1580 C.3       1 CHD928      0.0000 
     13 C11        37.0860   78.8530   15.0780 C.3       1 CHD928      0.0000 
     14 C12        36.2560   77.8500   15.9150 C.3       1 CHD928      0.0000 
     15 O12        35.3050   78.6040   16.7730 O.3       1 CHD928      0.0000 
     16 C13        37.1250   76.9740   16.9060 C.3       1 CHD928      0.0000 
     17 C14        37.8950   77.9640   17.8090 C.3       1 CHD928      0.0000 
     18 C15        38.6560   77.0280   18.7940 C.3       1 CHD928      0.0000 
     19 C16        37.6160   75.8870   19.0360 C.3       1 CHD928      0.0000 
     20 C17        36.4570   76.0220   17.9210 C.3       1 CHD928      0.0000 
     21 C18        38.1330   76.1840   15.9730 C.3       1 CHD928      0.0000 
     22 C19        39.8000   80.2930   14.2080 C.3       1 CHD928      0.0000 
     23 C20        35.9680   74.5970   17.4500 C.3       1 CHD928      0.0000 
     24 C21        34.8620   74.7170   16.3600 C.3       1 CHD928      0.0000 
     25 C22        35.3790   73.7890   18.6620 C.3       1 CHD928      0.0000 
     26 C23        34.7460   72.3630   18.3170 C.3       1 CHD928      0.0000 
     27 O25        36.7790   71.0980   18.0790 O.co2     1 CHD928      0.0000 
     28 C24        35.6430   71.5340   17.4580 C.2       1 CHD928      0.0000 
     29 O26        35.4580   71.2180   16.2980 O.co2     1 CHD928      0.0000 
     30 H          38.4940   82.2915   13.4715 H         1 CHD928      0.0000 
     31 H          37.2320   81.0522   13.5784 H         1 CHD928      0.0000 
     32 H          36.1809   82.2392   15.4641 H         1 CHD928      0.0000 
     33 H          36.3905   83.3598   14.1074 H         1 CHD928      0.0000 
     34 H          38.4357   84.2398   15.1484 H         1 CHD928      0.0000 
     35 H          37.8153   82.3858   17.4696 H         1 CHD928      0.0000 
     36 H          39.1014   83.6044   17.4371 H         1 CHD928      0.0000 
     37 H          40.1976   82.4695   15.5524 H         1 CHD928      0.0000 
     38 H          40.8142   81.7470   17.8749 H         1 CHD928      0.0000 
     39 H          41.1133   80.5332   16.6190 H         1 CHD928      0.0000 
     40 H          40.2587   79.3774   18.5283 H         1 CHD928      0.0000 
     41 H          39.5020   78.5022   16.4387 H         1 CHD928      0.0000 
     42 H          37.1350   80.4102   16.5938 H         1 CHD928      0.0000 
     43 H          37.8118   78.3199   14.4816 H         1 CHD928      0.0000 
     44 H          36.4307   79.4293   14.4415 H         1 CHD928      0.0000 
     45 H          35.7201   77.1919   15.2747 H         1 CHD928      0.0000 
     46 H          37.1343   78.4897   18.4040 H         1 CHD928      0.0000 
     47 H          38.8343   77.5335   19.6934 H         1 CHD928      0.0000 
     48 H          39.5028   76.6331   18.3214 H         1 CHD928      0.0000 
     49 H          37.1653   76.0023   19.9930 H         1 CHD928      0.0000 
     50 H          38.0813   74.9381   18.9120 H         1 CHD928      0.0000 
     51 H          35.6621   76.5505   18.4229 H         1 CHD928      0.0000 
     52 H          36.7938   74.0579   17.0522 H         1 CHD928      0.0000 
     53 H          34.5979   74.3946   19.1456 H         1 CHD928      0.0000 
     54 H          36.1762   73.6315   19.4039 H         1 CHD928      0.0000 
     55 H          33.7914   72.5515   17.8198 H         1 CHD928      0.0000 
     56 H          34.5458   71.8659   19.2693 H         1 CHD928      0.0000 
     57 H          38.7127   76.8037   15.4439 H         1 CHD928      0.0000 
     58 H          38.7420   75.5923   16.5012 H         1 CHD928      0.0000 
     59 H          37.6531   75.6005   15.3178 H         1 CHD928      0.0000 
     60 H          40.3302   80.9873   13.7214 H         1 CHD928      0.0000 
     61 H          40.4514   79.7293   14.7159 H         1 CHD928      0.0000 
     62 H          39.3813   79.7053   13.5157 H         1 CHD928      0.0000 
     63 H          35.1895   75.2046   15.5507 H         1 CHD928      0.0000 
     64 H          34.5442   73.8199   16.0530 H         1 CHD928      0.0000 
     65 H          34.0611   75.2123   16.6965 H         1 CHD928      0.0000 
     66 H          36.6661   84.2832   17.3323 H         1 CHD928      0.0000 
     67 H          39.1385   81.3538   19.4015 H         1 CHD928      0.0000 
     68 H          35.8420   79.3559   17.1555 H         1 CHD928      0.0000 
@<TRIPOS>BOND
     1    2    1 1    
     2   12    1 1    
     3   30    1 1    
     4   31    1 1    
     5    3    2 1    
     6   32    2 1    
     7   33    2 1    
     8    4    3 1    
     9    5    3 1    
    10   34    3 1    
    11   66    4 1    
    12    6    5 1    
    13   35    5 1    
    14   36    5 1    
    15    7    6 1    
    16   12    6 1    
    17   37    6 1    
    18    8    7 1    
    19   38    7 1    
    20   39    7 1    
    21    9    8 1    
    22   10    8 1    
    23   40    8 1    
    24   67    9 1    
    25   11   10 1    
    26   17   10 1    
    27   41   10 1    
    28   12   11 1    
    29   13   11 1    
    30   42   11 1    
    31   22   12 1    
    32   14   13 1    
    33   43   13 1    
    34   44   13 1    
    35   15   14 1    
    36   16   14 1    
    37   45   14 1    
    38   68   15 1    
    39   17   16 1    
    40   20   16 1    
    41   21   16 1    
    42   18   17 1    
    43   46   17 1    
    44   19   18 1    
    45   47   18 1    
    46   48   18 1    
    47   20   19 1    
    48   49   19 1    
    49   50   19 1    
    50   23   20 1    
    51   51   20 1    
    52   57   21 1    
    53   58   21 1    
    54   59   21 1    
    55   60   22 1    
    56   61   22 1    
    57   62   22 1    
    58   24   23 1    
    59   25   23 1    
    60   52   23 1    
    61   63   24 1    
    62   64   24 1    
    63   65   24 1    
    64   26   25 1    
    65   53   25 1    
    66   54   25 1    
    67   28   26 1    
    68   55   26 1    
    69   56   26 1    
    70   28   27 ar   
    71   29   28 ar   
@<TRIPOS>SUBSTRUCTURE
     1 CHD928      1 GROUP   
@<TRIPOS>SET

