#    Name: 4lnk_ADP_5_INTS_M
#    Modification time : Tue Mar 25 11:18:47 2014

@<TRIPOS>MOLECULE
4lnk_ADP_5_INTS_M
   53     0    12     0     0
SMALL
NO_CHARGES


@<TRIPOS>ATOM
      1 NZ         37.8835   97.4975   14.5425 N.4       3 LYC4        0.0000 
      2 NZ         38.1850   98.7380   14.9170 N.4      11 LYL4        0.0000 
      3 NZ         37.5820   96.2570   14.1680 N.4       7 LYP4        0.0000 
      4 N          37.8835   97.4975   14.5425 N.am      2 SEC2        0.0000 
      5 N          38.1850   98.7380   14.9170 N.am     10 SEL2        0.0000 
      6 N          37.5820   96.2570   14.1680 N.am      6 SEP2        0.0000 
      7 N          39.9870  102.1890   15.5155 N.am      2 SEC2        0.0000 
      8 N          39.3330  100.9720   15.3940 N.am     10 SEL2        0.0000 
      9 N          40.6410  103.4060   15.6370 N.am      6 SEP2        0.0000 
     10 NZ         37.8510   96.8830   15.9080 N.4       3 LYC4        0.0000 
     11 NZ         38.1200   97.5090   17.6480 N.4      11 LYL4        0.0000 
     12 N          40.3315  100.6145   18.8715 N.am      2 SEC2        0.0000 
     13 N          39.4370   99.4870   18.7410 N.am     10 SEL2        0.0000 
     14 N          41.2260  101.7420   19.0020 N.am      6 SEP2        0.0000 
     15 CA         34.8105  102.6855   21.4455 C.3       4 GLC5        0.0000 
     16 CA         35.6310  100.9710   20.3290 C.3      12 GLL5        0.0000 
     17 CA         33.9900  104.4000   22.5620 C.3       8 GLP5        0.0000 
     18 N          36.8630  102.9970   20.1650 N.am      2 SEC2        0.0000 
     19 N          35.8470  102.3160   19.8670 N.am     10 SEL2        0.0000 
     20 N          37.8790  103.6780   20.4630 N.am      6 SEP2        0.0000 
     21 CA         34.3245  103.6005   20.8990 C.3       4 GLC5        0.0000 
     22 CA         34.6590  102.8010   19.2360 C.3      12 GLL5        0.0000 
     23 CA         36.1255  103.9195   19.6440 C.3       4 GLC5        0.0000 
     24 CA         37.5920  105.0380   20.0520 C.3       8 GLP5        0.0000 
     25 CA         37.2075  105.5520   16.5050 C.3       4 GLC5        0.0000 
     26 CA         35.1010  105.7080   17.0170 C.3      12 GLL5        0.0000 
     27 CA         39.3140  105.3960   15.9930 C.3       8 GLP5        0.0000 
     28 CA         33.1465  108.1930   16.5945 C.3       4 GLC5        0.0000 
     29 CA         34.7880  107.1640   16.8760 C.3      12 GLL5        0.0000 
     30 CA         31.5050  109.2220   16.3130 C.3       8 GLP5        0.0000 
     31 CA         35.4735  108.7660   17.8200 C.3       4 GLC5        0.0000 
     32 CA         36.1590  110.3680   18.7640 C.3       8 GLP5        0.0000 
     33 O          35.2955  108.8380   16.7470 O.2       1 ALC1        0.0000 
     34 O          35.1870  107.8640   15.7880 O.2       9 ALL1        0.0000 
     35 O          35.4040  109.8120   17.7060 O.2       5 ALP1        0.0000 
     36 N          34.7465  108.7955   17.7845 N.am      2 SEC2        0.0000 
     37 N          34.0890  107.7790   17.8630 N.am     10 SEL2        0.0000 
     38 N          35.4040  109.8120   17.7060 N.am      6 SEP2        0.0000 
     39 CA         32.5885  108.1635   17.6315 C.3       4 GLC5        0.0000 
     40 CA         33.6720  107.1050   18.9500 C.3      12 GLL5        0.0000 
     41 CA         31.5730  107.3255   19.4810 C.3       4 GLC5        0.0000 
     42 CA         29.4740  107.5460   20.0120 C.3       8 GLP5        0.0000 
     43 CA         32.5575  106.0905   17.6270 C.3       4 GLC5        0.0000 
     44 CA         31.4430  105.0760   16.3040 C.3       8 GLP5        0.0000 
     45 CA         33.6285  108.1810   20.6470 C.3       4 GLC5        0.0000 
     46 CA         33.5850  109.2570   22.3440 C.3       8 GLP5        0.0000 
     47 CA         34.9155  108.7365   18.8570 C.3       4 GLC5        0.0000 
     48 CA         35.5200  107.2395   19.9300 C.3       4 GLC5        0.0000 
     49 CA         37.3680  107.3740   20.9100 C.3       8 GLP5        0.0000 
     50 CA         34.2985  104.7275   20.4020 C.3       4 GLC5        0.0000 
     51 CA         34.6070  105.0550   18.2420 C.3      12 GLL5        0.0000 
     52 CA         36.2230  105.2097   18.8407 C.3       4 GLC5        0.0000 
     53 CA         33.1094  105.4108   16.9491 C.3       4 GLC5        0.0000 
@<TRIPOS>BOND
@<TRIPOS>SUBSTRUCTURE
     1 ALC1       33 GROUP        1 X    ALC  0     ROOT ALC X 1
     2 SEC2        4 GROUP        1 X    SEC  0     **** SEC X 2
     3 LYC4        1 GROUP        1 X    LYC  0     **** LYC X 4
     4 GLC5       15 GROUP        1 X    GLC  0     **** GLC X 6
     5 ALP1       35 GROUP        1 Y    ALP  0     ROOT ALP Y 8
     6 SEP2        6 GROUP        1 Y    SEP  0     **** SEP Y 9
     7 LYP4        3 GROUP        1 Y    LYP  0     **** LYP Y 11
     8 GLP5       17 GROUP        1 Y    GLP  0     **** GLP Y 13
     9 ALL1       34 GROUP        1 Z    ALL  0     ROOT ALL Z 15
    10 SEL2        5 GROUP        1 Z    SEL  0     **** SEL Z 16
    11 LYL4        2 GROUP        1 Z    LYL  0     **** LYL Z 18
    12 GLL5       16 GROUP        1 Z    GLL  0     **** GLL Z 20
@<TRIPOS>SET

