#    Name: 4lnk_ADP_5_ligand
#    Modification time : Tue Mar 25 11:18:48 2014

@<TRIPOS>MOLECULE
4lnk_ADP_5_ligand
   39    41     1     0     0
SMALL
NO_CHARGES


@<TRIPOS>ATOM
      1 PB         38.0510  100.1680   15.4150 P.3       1 ADP502      0.0000 
      2 O1B        36.8770  100.9320   14.8290 O.co2     1 ADP502      0.0000 
      3 O2B        38.1850   98.7380   14.9170 O.co2     1 ADP502      0.0000 
      4 O3B        39.3330  100.9720   15.3940 O.co2     1 ADP502      0.0000 
      5 PA         38.1500   98.9500   18.1360 P.3       1 ADP502      0.0000 
      6 O1A        38.1200   97.5090   17.6480 O.co2     1 ADP502      0.0000 
      7 O2A        39.4370   99.4870   18.7410 O.co2     1 ADP502      0.0000 
      8 O3A        37.6540  100.0120   16.9900 O.3       1 ADP502      0.0000 
      9 O5'        36.9080   99.1750   19.1670 O.3       1 ADP502      0.0000 
     10 C5'        36.9230  100.1210   20.2490 C.3       1 ADP502      0.0000 
     11 C4'        35.6310  100.9710   20.3290 C.3       1 ADP502      0.0000 
     12 O4'        35.8470  102.3160   19.8670 O.3       1 ADP502      0.0000 
     13 C3'        34.4060  100.4380   19.5640 C.3       1 ADP502      0.0000 
     14 O3'        33.3640  100.0240   20.4690 O.3       1 ADP502      0.0000 
     15 C2'        33.8770  101.5930   18.7250 C.3       1 ADP502      0.0000 
     16 O2'        32.4620  101.7440   18.9300 O.3       1 ADP502      0.0000 
     17 C1'        34.6590  102.8010   19.2360 C.3       1 ADP502      0.0000 
     18 N9         34.9870  103.7790   18.1710 N.pl3     1 ADP502      0.0000 
     19 C8         35.6690  103.5790   17.0180 C.2       1 ADP502      0.0000 
     20 N7         35.7450  104.7410   16.3050 N.2       1 ADP502      0.0000 
     21 C5         35.1010  105.7080   17.0170 C.ar      1 ADP502      0.0000 
     22 C6         34.7880  107.1640   16.8760 C.ar      1 ADP502      0.0000 
     23 N6         35.1870  107.8640   15.7880 N.pl3     1 ADP502      0.0000 
     24 N1         34.0890  107.7790   17.8630 N.ar      1 ADP502      0.0000 
     25 C2         33.6720  107.1050   18.9500 C.ar      1 ADP502      0.0000 
     26 N3         33.9130  105.7920   19.1480 N.ar      1 ADP502      0.0000 
     27 C4         34.6070  105.0550   18.2420 C.ar      1 ADP502      0.0000 
     28 H          37.7710  100.8267   20.1586 H         1 ADP502      0.0000 
     29 H          37.0408   99.6163   21.2271 H         1 ADP502      0.0000 
     30 H          35.3323  101.0211   21.3994 H         1 ADP502      0.0000 
     31 H          34.7171   99.6614   18.9146 H         1 ADP502      0.0000 
     32 H          34.1430  101.4198   17.7150 H         1 ADP502      0.0000 
     33 H          34.0271  103.2921   19.9889 H         1 ADP502      0.0000 
     34 H          36.0525  102.7306   16.7329 H         1 ADP502      0.0000 
     35 H          35.4296  108.8213   15.9453 H         1 ADP502      0.0000 
     36 H          35.2037  107.3618   14.9234 H         1 ADP502      0.0000 
     37 H          33.1225  107.6340   19.6947 H         1 ADP502      0.0000 
     38 H          32.5738  100.5879   20.2290 H         1 ADP502      0.0000 
     39 H          32.3762  102.4545   19.6285 H         1 ADP502      0.0000 
@<TRIPOS>BOND
     1    2    1 ar   
     2    3    1 ar   
     3    4    1 ar   
     4    8    1 1    
     5    6    5 ar   
     6    7    5 ar   
     7    8    5 1    
     8    9    5 1    
     9   10    9 1    
    10   11   10 1    
    11   28   10 1    
    12   29   10 1    
    13   12   11 1    
    14   13   11 1    
    15   30   11 1    
    16   17   12 1    
    17   14   13 1    
    18   15   13 1    
    19   31   13 1    
    20   38   14 1    
    21   16   15 1    
    22   17   15 1    
    23   32   15 1    
    24   39   16 1    
    25   18   17 1    
    26   33   17 1    
    27   19   18 1    
    28   27   18 1    
    29   20   19 2    
    30   34   19 1    
    31   21   20 1    
    32   22   21 ar   
    33   27   21 ar   
    34   23   22 1    
    35   24   22 ar   
    36   35   23 1    
    37   36   23 1    
    38   25   24 ar   
    39   26   25 ar   
    40   37   25 1    
    41   27   26 ar   
@<TRIPOS>SUBSTRUCTURE
     1 ADP502      1 GROUP   
@<TRIPOS>SET

