#    Name: 3vbj_TYD_1_INTS_M
#    Modification time : Tue Mar 25 00:29:19 2014

@<TRIPOS>MOLECULE
3vbj_TYD_1_INTS_M
   46     0    12     0     0
SMALL
NO_CHARGES


@<TRIPOS>ATOM
      1 NZ         -1.6300  -43.4045  -25.0020 N.4       3 LYC4        0.0000 
      2 NZ         -0.9370  -44.3230  -24.2500 N.4      11 LYL4        0.0000 
      3 NZ         -2.5300  -42.2860  -27.0510 N.4       7 LYP4        0.0000 
      4 N          -1.6300  -43.4045  -25.0020 N.am      2 SEC2        0.0000 
      5 N          -0.9370  -44.3230  -24.2500 N.am     10 SEL2        0.0000 
      6 N          -2.3230  -42.4860  -25.7540 N.am      6 SEP2        0.0000 
      7 N          -2.4420  -46.9610  -22.0220 N.am      2 SEC2        0.0000 
      8 N          -1.7660  -46.1250  -22.6550 N.am     10 SEL2        0.0000 
      9 N          -3.1180  -47.7970  -21.3890 N.am      6 SEP2        0.0000 
     10 NZ         -1.2255  -44.3625  -27.4380 N.4       3 LYC4        0.0000 
     11 NZ         -0.1410  -45.4700  -26.9410 N.4      11 LYL4        0.0000 
     12 N          -1.2255  -44.3625  -27.4380 N.am      2 SEC2        0.0000 
     13 N          -0.1410  -45.4700  -26.9410 N.am     10 SEL2        0.0000 
     14 N          -2.3100  -43.2550  -27.9350 N.am      6 SEP2        0.0000 
     15 N          -2.7015  -44.0960  -25.2675 N.am      2 SEC2        0.0000 
     16 N          -3.0800  -45.7060  -24.7810 N.am     10 SEL2        0.0000 
     17 CA         -8.3870  -44.4250  -26.4710 C.3       4 GLC5        0.0000 
     18 CA         -6.4330  -44.4410  -26.1610 C.3      12 GLL5        0.0000 
     19 CA        -10.3410  -44.4090  -26.7810 C.3       8 GLP5        0.0000 
     20 CA         -7.0345  -43.0555  -27.1395 C.3       4 GLC5        0.0000 
     21 CA         -7.6360  -41.6700  -28.1180 C.3       8 GLP5        0.0000 
     22 CA         -8.7490  -44.4980  -24.9885 C.3       4 GLC5        0.0000 
     23 CA         -6.7190  -44.5580  -24.6680 C.3      12 GLL5        0.0000 
     24 CA        -10.7790  -44.4380  -25.3090 C.3       8 GLP5        0.0000 
     25 CA         -7.8450  -45.0345  -23.0355 C.3       4 GLC5        0.0000 
     26 CA         -8.9710  -45.5110  -21.4030 C.3       8 GLP5        0.0000 
     27 N          -9.4140  -42.1530  -24.3960 N.am      2 SEC2        0.0000 
     28 N          -7.9650  -42.1860  -24.3400 N.am     10 SEL2        0.0000 
     29 N         -10.8630  -42.1200  -24.4520 N.am      6 SEP2        0.0000 
     30 O          -7.2085  -40.1345  -22.1255 O.2       1 ALC1        0.0000 
     31 O          -6.3780  -41.2420  -23.0880 O.2       9 ALL1        0.0000 
     32 O          -8.0390  -39.0270  -21.1630 O.2       5 ALP1        0.0000 
     33 N          -5.0830  -38.9225  -21.7165 N.am      2 SEC2        0.0000 
     34 N          -4.8240  -40.2920  -21.8040 N.am     10 SEL2        0.0000 
     35 N          -5.3420  -37.5530  -21.6290 N.am      6 SEP2        0.0000 
     36 CA         -5.9130  -43.0255  -21.3660 C.3       4 GLC5        0.0000 
     37 CA         -4.4170  -42.4530  -22.5110 C.3      12 GLL5        0.0000 
     38 CA         -7.4090  -43.5980  -20.2210 C.3       8 GLP5        0.0000 
     39 CA         -3.3685  -43.1065  -19.8025 C.3       4 GLC5        0.0000 
     40 CA         -3.0810  -42.4990  -21.8000 C.3      12 GLL5        0.0000 
     41 CA         -3.6560  -43.7140  -17.8050 C.3       8 GLP5        0.0000 
     42 CA         -1.5645  -43.0435  -20.8740 C.3       4 GLC5        0.0000 
     43 CA         -0.0480  -43.5880  -19.9480 C.3       8 GLP5        0.0000 
     44 CA         -5.9450  -44.2095  -21.7690 C.3       4 GLC5        0.0000 
     45 CA         -4.9400  -43.5180  -23.2550 C.3      12 GLL5        0.0000 
     46 CA         -6.9500  -44.9010  -20.2830 C.3       8 GLP5        0.0000 
@<TRIPOS>BOND
@<TRIPOS>SUBSTRUCTURE
     1 ALC1       30 GROUP        1 X    ALC  0     ROOT ALC X 1
     2 SEC2        4 GROUP        1 X    SEC  0     **** SEC X 2
     3 LYC4        1 GROUP        1 X    LYC  0     **** LYC X 4
     4 GLC5       17 GROUP        1 X    GLC  0     **** GLC X 6
     5 ALP1       32 GROUP        1 Y    ALP  0     ROOT ALP Y 8
     6 SEP2        6 GROUP        1 Y    SEP  0     **** SEP Y 9
     7 LYP4        3 GROUP        1 Y    LYP  0     **** LYP Y 11
     8 GLP5       19 GROUP        1 Y    GLP  0     **** GLP Y 13
     9 ALL1       31 GROUP        1 Z    ALL  0     ROOT ALL Z 15
    10 SEL2        5 GROUP        1 Z    SEL  0     **** SEL Z 16
    11 LYL4        2 GROUP        1 Z    LYL  0     **** LYL Z 18
    12 GLL5       18 GROUP        1 Z    GLL  0     **** GLL Z 20
@<TRIPOS>SET

