#    Name: 3vbj_TYD_1_ligand
#    Modification time : Tue Mar 25 00:29:19 2014

@<TRIPOS>MOLECULE
3vbj_TYD_1_ligand
   38    39     1     0     0
SMALL
NO_CHARGES


@<TRIPOS>ATOM
      1 PA         -1.6170  -45.6640  -24.0870 P.3       1 TYD301      0.0000 
      2 O1A        -0.9370  -44.3230  -24.2500 O.co2     1 TYD301      0.0000 
      3 O2A        -1.7660  -46.1250  -22.6550 O.co2     1 TYD301      0.0000 
      4 O3A        -0.7840  -46.7660  -24.9230 O.3       1 TYD301      0.0000 
      5 PB         -0.6730  -46.8250  -26.5320 P.3       1 TYD301      0.0000 
      6 O1B        -2.0780  -47.0260  -27.0510 O.co2     1 TYD301      0.0000 
      7 O2B        -0.1410  -45.4700  -26.9410 O.co2     1 TYD301      0.0000 
      8 O3B         0.2390  -48.0090  -26.7630 O.co2     1 TYD301      0.0000 
      9 O5'        -3.0800  -45.7060  -24.7810 O.3       1 TYD301      0.0000 
     10 C5'        -4.0400  -46.7600  -24.6480 C.3       1 TYD301      0.0000 
     11 C4'        -5.3980  -46.4340  -25.2700 C.3       1 TYD301      0.0000 
     12 O4'        -6.2790  -45.8650  -24.2970 O.3       1 TYD301      0.0000 
     13 C3'        -5.2860  -45.4140  -26.3980 C.3       1 TYD301      0.0000 
     14 O3'        -5.3510  -46.0340  -27.6860 O.3       1 TYD301      0.0000 
     15 C2'        -6.4330  -44.4410  -26.1610 C.3       1 TYD301      0.0000 
     16 C1'        -6.7190  -44.5580  -24.6680 C.3       1 TYD301      0.0000 
     17 N1         -6.1350  -43.4510  -23.8820 N.am      1 TYD301      0.0000 
     18 C2         -6.8440  -42.3090  -23.7840 C.2       1 TYD301      0.0000 
     19 O2         -7.9650  -42.1860  -24.3400 O.2       1 TYD301      0.0000 
     20 N3         -6.3780  -41.2420  -23.0880 N.am      1 TYD301      0.0000 
     21 C4         -5.1880  -41.2960  -22.4470 C.2       1 TYD301      0.0000 
     22 O4         -4.8240  -40.2920  -21.8040 O.2       1 TYD301      0.0000 
     23 C5         -4.4170  -42.4530  -22.5110 C.2       1 TYD301      0.0000 
     24 C5M        -3.0810  -42.4990  -21.8000 C.3       1 TYD301      0.0000 
     25 C6         -4.9400  -43.5180  -23.2550 C.2       1 TYD301      0.0000 
     26 H          -4.2162  -47.0111  -23.5792 H         1 TYD301      0.0000 
     27 H          -3.6753  -47.6983  -25.1203 H         1 TYD301      0.0000 
     28 H          -5.8217  -47.3380  -25.6806 H         1 TYD301      0.0000 
     29 H          -4.3638  -44.8706  -26.2476 H         1 TYD301      0.0000 
     30 H          -7.2863  -44.7464  -26.7158 H         1 TYD301      0.0000 
     31 H          -6.1209  -43.4517  -26.3911 H         1 TYD301      0.0000 
     32 H          -7.8264  -44.5199  -24.5798 H         1 TYD301      0.0000 
     33 H          -6.9484  -40.3654  -23.0474 H         1 TYD301      0.0000 
     34 H          -4.3639  -44.3958  -23.3155 H         1 TYD301      0.0000 
     35 H          -2.6242  -43.3798  -21.9245 H         1 TYD301      0.0000 
     36 H          -2.4564  -41.7946  -22.1372 H         1 TYD301      0.0000 
     37 H          -3.1793  -42.3564  -20.8151 H         1 TYD301      0.0000 
     38 H          -5.4429  -45.2771  -28.3331 H         1 TYD301      0.0000 
@<TRIPOS>BOND
     1    2    1 ar   
     2    3    1 ar   
     3    4    1 1    
     4    9    1 1    
     5    5    4 1    
     6    6    5 ar   
     7    7    5 ar   
     8    8    5 ar   
     9   10    9 1    
    10   11   10 1    
    11   26   10 1    
    12   27   10 1    
    13   12   11 1    
    14   13   11 1    
    15   28   11 1    
    16   16   12 1    
    17   14   13 1    
    18   15   13 1    
    19   29   13 1    
    20   38   14 1    
    21   16   15 1    
    22   30   15 1    
    23   31   15 1    
    24   17   16 1    
    25   32   16 1    
    26   18   17 1    
    27   25   17 1    
    28   19   18 2    
    29   20   18 1    
    30   21   20 1    
    31   33   20 1    
    32   22   21 2    
    33   23   21 1    
    34   24   23 1    
    35   25   23 2    
    36   35   24 1    
    37   36   24 1    
    38   37   24 1    
    39   34   25 1    
@<TRIPOS>SUBSTRUCTURE
     1 TYD301      1 GROUP   
@<TRIPOS>SET

