#    Name: 3f2a_985_1_INTS_M
#    Modification time : Tue Mar 25 03:04:42 2014

@<TRIPOS>MOLECULE
3f2a_985_1_INTS_M
   69     0     9     0     0
SMALL
NO_CHARGES


@<TRIPOS>ATOM
      1 CA         71.4475   39.5740    2.9310 C.3       3 GLC5        0.0000 
      2 CA         72.7300   37.8510    3.2270 C.3       9 GLL5        0.0000 
      3 CA         70.1650   41.2970    2.6350 C.3       6 GLP5        0.0000 
      4 CA         77.2015   34.1000    5.2170 C.3       3 GLC5        0.0000 
      5 CA         75.6310   33.7940    4.0240 C.3       9 GLL5        0.0000 
      6 CA         78.7720   34.4060    6.4100 C.3       6 GLP5        0.0000 
      7 CA         76.6510   34.7200    2.8010 C.3       3 GLC5        0.0000 
      8 CA         77.6710   35.6460    1.5780 C.3       6 GLP5        0.0000 
      9 CA         76.6370   32.8825    2.2360 C.3       3 GLC5        0.0000 
     10 CA         75.0250   32.4830    3.4600 C.3       9 GLL5        0.0000 
     11 CA         78.2490   33.2820    1.0120 C.3       6 GLP5        0.0000 
     12 CA         75.4810   30.3920    5.0450 C.3       3 GLC5        0.0000 
     13 CA         74.0560   31.7080    5.5420 C.3       9 GLL5        0.0000 
     14 CA         76.9060   29.0760    4.5480 C.3       6 GLP5        0.0000 
     15 CA         76.6725   34.2695    6.3755 C.3       3 GLC5        0.0000 
     16 CA         74.5730   34.1330    6.3410 C.3       9 GLL5        0.0000 
     17 CA         75.0365   30.0110    3.9935 C.3       3 GLC5        0.0000 
     18 CA         73.1670   30.9460    3.4390 C.3       9 GLL5        0.0000 
     19 CA         72.1585   31.7805    2.0990 C.3       3 GLC5        0.0000 
     20 CA         71.1500   32.6150    0.7590 C.3       6 GLP5        0.0000 
     21 CA         71.6355   36.2155   -3.4170 C.3       3 GLC5        0.0000 
     22 CA         73.1610   36.8120   -2.0030 C.3       9 GLL5        0.0000 
     23 CA         70.1100   35.6190   -4.8310 C.3       6 GLP5        0.0000 
     24 CA         74.0665   36.4920   -4.0220 C.3       3 GLC5        0.0000 
     25 CA         74.9720   36.1720   -6.0410 C.3       6 GLP5        0.0000 
     26 CA         73.1405   39.8700   -2.0280 C.3       3 GLC5        0.0000 
     27 CA         72.9670   38.0650   -1.3260 C.3       9 GLL5        0.0000 
     28 CA         73.3140   41.6750   -2.7300 C.3       6 GLP5        0.0000 
     29 CA         73.0875   40.0650   -0.5725 C.3       3 GLC5        0.0000 
     30 CA         73.0170   38.1010    0.1070 C.3       9 GLL5        0.0000 
     31 CA         73.1580   42.0290   -1.2520 C.3       6 GLP5        0.0000 
     32 CA         75.5610   35.6590    0.8735 C.3       3 GLC5        0.0000 
     33 CA         73.4510   35.6720    0.1690 C.3       9 GLL5        0.0000 
     34 CA         74.8535   36.9620   -1.8960 C.3       3 GLC5        0.0000 
     35 CA         73.4050   35.6140   -1.2590 C.3       9 GLL5        0.0000 
     36 CA         76.3020   38.3100   -2.5330 C.3       6 GLP5        0.0000 
     37 CA         71.9930   33.2210   -1.8095 C.3       3 GLC5        0.0000 
     38 CA         73.6000   34.3320   -1.9840 C.3       9 GLL5        0.0000 
     39 CA         70.3860   32.1100   -1.6350 C.3       6 GLP5        0.0000 
     40 CA         72.6370   32.9050   -0.3340 C.3       3 GLC5        0.0000 
     41 CA         74.1240   33.1950   -1.4270 C.3       9 GLL5        0.0000 
     42 NZ         75.8660   30.0350   -2.0590 N.4       2 LYC4        0.0000 
     43 NZ         74.9620   31.0730   -1.7560 N.4       8 LYL4        0.0000 
     44 NZ         76.7700   28.9970   -2.3620 N.4       5 LYP4        0.0000 
     45 N          75.8660   30.0350   -2.0590 N.am      1 SEC2        0.0000 
     46 N          74.9620   31.0730   -1.7560 N.am      7 SEL2        0.0000 
     47 N          76.7700   28.9970   -2.3620 N.am      4 SEP2        0.0000 
     48 N          72.6995   30.7670   -2.9170 N.am      1 SEC2        0.0000 
     49 N          73.6240   31.8170   -3.3860 N.am      7 SEL2        0.0000 
     50 N          71.7750   29.7170   -2.4480 N.am      4 SEP2        0.0000 
     51 CA         74.6835   38.2940    2.4398 C.3       3 GLC5        0.0000 
     52 CA         73.3120   36.8670    2.3800 C.3       9 GLL5        0.0000 
     53 CA         76.3460   39.2290    2.0760 C.3       6 GLP5        0.0000 
     54 CA         71.1975   36.7170    2.4692 C.3       3 GLC5        0.0000 
     55 CA         69.3740   36.0750    2.1350 C.3       6 GLP5        0.0000 
     56 CA         75.5217   37.0727    4.4127 C.3       3 GLC5        0.0000 
     57 CA         73.4500   36.6740    5.1930 C.3       9 GLL5        0.0000 
     58 CA         77.2930   37.9790    4.0340 C.3       6 GLP5        0.0000 
     59 CA         76.4635   31.6977    4.0490 C.3       3 GLC5        0.0000 
     60 CA         77.5990   30.2570    4.3560 C.3       6 GLP5        0.0000 
     61 CA         71.3795   37.0832   -0.9708 C.3       3 GLC5        0.0000 
     62 CA         69.6950   36.7280   -0.2770 C.3       6 GLP5        0.0000 
     63 CA         74.7422   38.3658    1.2833 C.3       3 GLC5        0.0000 
     64 CA         74.6713   38.0399   -1.6559 C.3       3 GLC5        0.0000 
     65 CA         71.4167   37.1153    0.1067 C.3       3 GLC5        0.0000 
     66 CA         71.5615   36.1855   -0.4110 C.3       3 GLC5        0.0000 
     67 CA         72.2890   34.1290    0.1070 C.3       3 GLC5        0.0000 
     68 CA         74.9285   33.9707   -3.3182 C.3       3 GLC5        0.0000 
     69 CA         75.9950   34.1780   -4.9310 C.3       6 GLP5        0.0000 
@<TRIPOS>BOND
@<TRIPOS>SUBSTRUCTURE
     1 SEC2       45 GROUP        1 X    SEC  0     ROOT SEC X 2
     2 LYC4       42 GROUP        1 X    LYC  0     **** LYC X 4
     3 GLC5        1 GROUP        1 X    GLC  0     **** GLC X 6
     4 SEP2       47 GROUP        1 Y    SEP  0     ROOT SEP Y 9
     5 LYP4       44 GROUP        1 Y    LYP  0     **** LYP Y 11
     6 GLP5        3 GROUP        1 Y    GLP  0     **** GLP Y 13
     7 SEL2       46 GROUP        1 Z    SEL  0     ROOT SEL Z 16
     8 LYL4       43 GROUP        1 Z    LYL  0     **** LYL Z 18
     9 GLL5        2 GROUP        1 Z    GLL  0     **** GLL Z 20
@<TRIPOS>SET

