#    Name: 3f2a_985_1_ligand
#    Modification time : Tue Mar 25 03:04:42 2014

@<TRIPOS>MOLECULE
3f2a_985_1_ligand
   47    49     1     0     0
SMALL
NO_CHARGES


@<TRIPOS>ATOM
      1 C1         73.3120   36.8670    2.3800 C.ar      1 9851        0.0000 
      2 N2         73.9550   35.7990    3.0270 N.ar      1 9851        0.0000 
      3 C3         74.0510   35.6590    4.3900 C.ar      1 9851        0.0000 
      4 C4         73.4500   36.6740    5.1930 C.ar      1 9851        0.0000 
      5 N5         72.8280   37.7060    4.5700 N.ar      1 9851        0.0000 
      6 C6         72.7300   37.8510    3.2270 C.ar      1 9851        0.0000 
      7 N1         74.7200   34.5550    4.9160 N.3       1 9851        0.0000 
      8 C2         75.6310   33.7940    4.0240 C.3       1 9851        0.0000 
      9 C11        75.0250   32.4830    3.4600 C.3       1 9851        0.0000 
     10 N3         73.7600   32.0960    4.1430 N.4       1 9851        0.0000 
     11 C5         74.0560   31.7080    5.5420 C.3       1 9851        0.0000 
     12 C14        73.7190   32.8540    6.5160 C.3       1 9851        0.0000 
     13 C7         74.5730   34.1330    6.3410 C.3       1 9851        0.0000 
     14 C8         73.1670   30.9460    3.4390 C.3       1 9851        0.0000 
     15 C10        73.1610   36.8120   -2.0030 C.ar      1 9851        0.0000 
     16 C16        72.9670   38.0650   -1.3260 C.ar      1 9851        0.0000 
     17 C12        73.0170   38.1010    0.1070 C.ar      1 9851        0.0000 
     18 C13        73.2600   36.9040    0.8740 C.ar      1 9851        0.0000 
     19 C17        73.4510   35.6720    0.1690 C.ar      1 9851        0.0000 
     20 C15        73.4050   35.6140   -1.2590 C.ar      1 9851        0.0000 
     21 C18        73.6000   34.3320   -1.9840 C.2       1 9851        0.0000 
     22 C19        74.1240   33.1950   -1.4270 C.2       1 9851        0.0000 
     23 C9         74.2780   31.9400   -2.2050 C.2       1 9851        0.0000 
     24 O1         74.9620   31.0730   -1.7560 O.co2     1 9851        0.0000 
     25 O2         73.6240   31.8170   -3.3860 O.co2     1 9851        0.0000 
     26 H          73.5044   36.5959    6.2058 H         1 9851        0.0000 
     27 H          72.2505   38.6461    2.7969 H         1 9851        0.0000 
     28 H          76.5608   33.5293    4.5623 H         1 9851        0.0000 
     29 H          75.9355   34.4200    3.1639 H         1 9851        0.0000 
     30 H          75.7766   31.6891    3.5693 H         1 9851        0.0000 
     31 H          74.8502   32.6268    2.3849 H         1 9851        0.0000 
     32 H          73.0797   32.9224    4.1320 H         1 9851        0.0000 
     33 H          75.1154   31.4633    5.6567 H         1 9851        0.0000 
     34 H          73.4688   30.8318    5.8300 H         1 9851        0.0000 
     35 H          73.8409   32.4893    7.5502 H         1 9851        0.0000 
     36 H          72.6557   33.1226    6.3950 H         1 9851        0.0000 
     37 H          74.1036   34.9379    6.9280 H         1 9851        0.0000 
     38 H          75.5632   33.9436    6.7841 H         1 9851        0.0000 
     39 H          73.1241   36.7793   -3.0193 H         1 9851        0.0000 
     40 H          72.7981   38.9069   -1.8528 H         1 9851        0.0000 
     41 H          72.8788   38.9863    0.5950 H         1 9851        0.0000 
     42 H          73.6246   34.8128    0.7011 H         1 9851        0.0000 
     43 H          73.3014   34.3445   -2.9911 H         1 9851        0.0000 
     44 H          74.4340   33.1608   -0.4445 H         1 9851        0.0000 
     45 H          73.7794   30.1554    3.4375 H         1 9851        0.0000 
     46 H          72.3103   30.6524    3.8631 H         1 9851        0.0000 
     47 H          72.9628   31.1603    2.4838 H         1 9851        0.0000 
@<TRIPOS>BOND
     1    2    1 ar   
     2    6    1 ar   
     3   18    1 1    
     4    3    2 ar   
     5    4    3 ar   
     6    7    3 1    
     7    5    4 ar   
     8   26    4 1    
     9    6    5 ar   
    10   27    6 1    
    11    8    7 1    
    12   13    7 1    
    13    9    8 1    
    14   28    8 1    
    15   29    8 1    
    16   10    9 1    
    17   30    9 1    
    18   31    9 1    
    19   11   10 1    
    20   14   10 1    
    21   32   10 1    
    22   12   11 1    
    23   33   11 1    
    24   34   11 1    
    25   13   12 1    
    26   35   12 1    
    27   36   12 1    
    28   37   13 1    
    29   38   13 1    
    30   45   14 1    
    31   46   14 1    
    32   47   14 1    
    33   16   15 ar   
    34   20   15 ar   
    35   39   15 1    
    36   17   16 ar   
    37   40   16 1    
    38   18   17 ar   
    39   41   17 1    
    40   19   18 ar   
    41   20   19 ar   
    42   42   19 1    
    43   21   20 1    
    44   22   21 2    
    45   43   21 1    
    46   23   22 1    
    47   44   22 1    
    48   24   23 ar   
    49   25   23 ar   
@<TRIPOS>SUBSTRUCTURE
     1 9851        1 GROUP   
@<TRIPOS>SET

