#    Name: 2y1g_FM5_1_INTS_M
#    Modification time : Tue Mar 25 07:23:06 2014

@<TRIPOS>MOLECULE
2y1g_FM5_1_INTS_M
   50     0    12     0     0
SMALL
NO_CHARGES


@<TRIPOS>ATOM
      1 CA          7.4700   -2.7990    5.1250 C.3       4 GLC5        0.0000 
      2 CA          8.1990   -4.0190    3.9520 C.3      12 GLL5        0.0000 
      3 CA          6.7410   -1.5790    6.2980 C.3       8 GLP5        0.0000 
      4 CA          8.6430   -1.8560    5.6920 C.3       4 GLC5        0.0000 
      5 CA         10.5450   -2.1330    5.0860 C.3      12 GLL5        0.0000 
      6 NZ         16.1820   -5.5760    3.1865 N.4       2 LYC4        0.0000 
      7 NZ         14.8800   -6.1580    2.7870 N.4      10 LYL4        0.0000 
      8 NZ         17.4840   -4.9940    3.5860 N.4       6 LYP4        0.0000 
      9 N          14.5090   -7.3460    3.4825 N.am      1 SEC2        0.0000 
     10 N          14.8800   -6.1580    2.7870 N.am      9 SEL2        0.0000 
     11 N          14.1380   -8.5340    4.1780 N.am      5 SEP2        0.0000 
     12 N          16.1820   -5.5760    3.1865 N.am      1 SEC2        0.0000 
     13 N          17.4840   -4.9940    3.5860 N.am      5 SEP2        0.0000 
     14 NZ         16.6735   -5.3150    2.0695 N.4       2 LYC4        0.0000 
     15 NZ         15.8630   -5.6360    0.5530 N.4      10 LYL4        0.0000 
     16 N          16.4240   -4.4835   -0.0610 N.am      1 SEC2        0.0000 
     17 N          15.8630   -5.6360    0.5530 N.am      9 SEL2        0.0000 
     18 N          16.9850   -3.3310   -0.6750 N.am      5 SEP2        0.0000 
     19 N          16.6735   -5.3150    2.0695 N.am      1 SEC2        0.0000 
     20 N          12.9445   -7.7195    1.2410 N.am      1 SEC2        0.0000 
     21 N          13.6500   -6.7840    0.7020 N.am      9 SEL2        0.0000 
     22 N          12.2390   -8.6550    1.7800 N.am      5 SEP2        0.0000 
     23 N          13.2200   -6.9785   -0.5065 N.am      1 SEC2        0.0000 
     24 N          12.7900   -7.1730   -1.7150 N.am      5 SEP2        0.0000 
     25 CA         13.5680   -4.9880   -1.3765 C.3       4 GLC5        0.0000 
     26 CA         13.7750   -3.5450    0.0340 C.3      12 GLL5        0.0000 
     27 CA         13.3610   -6.4310   -2.7870 C.3       8 GLP5        0.0000 
     28 Zn         15.6905   -0.7590    1.1670 Zn        3 ZIC7        0.0000 
     29 Zn         15.1720   -1.0140    0.2310 Zn       11 ZIL7        0.0000 
     30 Zn         16.2090   -0.5040    2.1030 Zn        7 ZIP7        0.0000 
     31 N          16.0785   -2.1725   -0.2220 N.am      1 SEC2        0.0000 
     32 N          15.1720   -1.0140    0.2310 N.am      9 SEL2        0.0000 
     33 Zn         15.2300   -0.1725    2.2800 Zn        3 ZIC7        0.0000 
     34 Zn         14.2510    0.1590    2.4570 Zn       11 ZIL7        0.0000 
     35 N          14.0765    0.2300    3.9290 N.am      1 SEC2        0.0000 
     36 N          14.2510    0.1590    2.4570 N.am      9 SEL2        0.0000 
     37 N          13.9020    0.3010    5.4010 N.am      5 SEP2        0.0000 
     38 CA         11.5940    1.6280    2.4965 C.3       4 GLC5        0.0000 
     39 CA         11.9840   -0.1130    1.8480 C.3      12 GLL5        0.0000 
     40 CA         11.2040    3.3690    3.1450 C.3       8 GLP5        0.0000 
     41 CA          9.5023   -4.7860    5.1457 C.3       4 GLC5        0.0000 
     42 CA          9.8340   -4.0850    3.2110 C.3      12 GLL5        0.0000 
     43 CA          9.9880   -5.5200    6.7100 C.3       8 GLP5        0.0000 
     44 CA         10.3445   -4.1082    5.5535 C.3       4 GLC5        0.0000 
     45 CA         10.8570   -3.2600    3.7080 C.3      12 GLL5        0.0000 
     46 CA         11.7278   -6.5039    2.5404 C.3       4 GLC5        0.0000 
     47 CA         10.0780   -4.9670    2.1370 C.3      12 GLL5        0.0000 
     48 CA         11.9030   -8.4100    3.1370 C.3       8 GLP5        0.0000 
     49 CA         11.9600   -2.4147   -1.3033 C.3       4 GLC5        0.0000 
     50 CA         10.5060   -1.9600   -2.6210 C.3       8 GLP5        0.0000 
@<TRIPOS>BOND
@<TRIPOS>SUBSTRUCTURE
     1 SEC2        9 GROUP        1 X    SEC  0     ROOT SEC X 2
     2 LYC4        6 GROUP        1 X    LYC  0     **** LYC X 4
     3 ZIC7       28 GROUP        1 X    ZIC  0     **** ZIC X 5
     4 GLC5        1 GROUP        1 X    GLC  0     **** GLC X 6
     5 SEP2       11 GROUP        1 Y    SEP  0     ROOT SEP Y 9
     6 LYP4        8 GROUP        1 Y    LYP  0     **** LYP Y 11
     7 ZIP7       30 GROUP        1 Y    ZIP  0     **** ZIP Y 12
     8 GLP5        3 GROUP        1 Y    GLP  0     **** GLP Y 13
     9 SEL2       10 GROUP        1 Z    SEL  0     ROOT SEL Z 16
    10 LYL4        7 GROUP        1 Z    LYL  0     **** LYL Z 18
    11 ZIL7       29 GROUP        1 Z    ZIL  0     **** ZIL Z 19
    12 GLL5        2 GROUP        1 Z    GLL  0     **** GLL Z 20
@<TRIPOS>SET

