#    Name: 2y1g_FM5_1_ligand
#    Modification time : Tue Mar 25 07:23:06 2014

@<TRIPOS>MOLECULE
2y1g_FM5_1_ligand
   31    31     1     0     0
SMALL
NO_CHARGES


@<TRIPOS>ATOM
      1 CL2         8.1990   -4.0190    3.9520 Cl        1 FM51390     0.0000 
      2 C9          9.8340   -4.0850    3.2110 C.ar      1 FM51390     0.0000 
      3 C10        10.0780   -4.9670    2.1370 C.ar      1 FM51390     0.0000 
      4 C11        11.3540   -5.0220    1.5500 C.ar      1 FM51390     0.0000 
      5 C8         10.8570   -3.2600    3.7080 C.ar      1 FM51390     0.0000 
      6 CL1        10.5450   -2.1330    5.0860 Cl        1 FM51390     0.0000 
      7 C7         12.1300   -3.3220    3.1170 C.ar      1 FM51390     0.0000 
      8 C6         12.3890   -4.2010    2.0440 C.ar      1 FM51390     0.0000 
      9 C4         13.7990   -4.1960    1.4240 C.3       1 FM51390     0.0000 
     10 PA1        14.6030   -5.8270    1.3480 P.3       1 FM51390     0.0000 
     11 OP1        14.8800   -6.1580    2.7870 O.co2     1 FM51390     0.0000 
     12 OP2        15.8630   -5.6360    0.5530 O.co2     1 FM51390     0.0000 
     13 OP3        13.6500   -6.7840    0.7020 O.co2     1 FM51390     0.0000 
     14 C3         13.7750   -3.5450    0.0340 C.3       1 FM51390     0.0000 
     15 C2         13.0530   -2.1940   -0.0050 C.3       1 FM51390     0.0000 
     16 N1         13.8620   -1.1870    0.6930 N.am      1 FM51390     0.0000 
     17 O2         15.1720   -1.0140    0.2310 O.3       1 FM51390     0.0000 
     18 C1         13.4590   -0.3780    1.6970 C.2       1 FM51390     0.0000 
     19 O1         14.2510    0.1590    2.4570 O.2       1 FM51390     0.0000 
     20 C5         11.9840   -0.1130    1.8480 C.3       1 FM51390     0.0000 
     21 H           9.3259   -5.5645    1.7878 H         1 FM51390     0.0000 
     22 H          11.5333   -5.6538    0.7681 H         1 FM51390     0.0000 
     23 H          12.8857   -2.7192    3.4695 H         1 FM51390     0.0000 
     24 H          14.4868   -3.6339    2.0634 H         1 FM51390     0.0000 
     25 H          13.2849   -4.2325   -0.6720 H         1 FM51390     0.0000 
     26 H          14.8107   -3.4067   -0.3116 H         1 FM51390     0.0000 
     27 H          12.0810   -2.3111    0.4727 H         1 FM51390     0.0000 
     28 H          12.9014   -1.9165   -1.0475 H         1 FM51390     0.0000 
     29 H          11.7927    0.4930    2.6201 H         1 FM51390     0.0000 
     30 H          11.5991    0.3202    1.0330 H         1 FM51390     0.0000 
     31 H          11.4691   -0.9562    2.0026 H         1 FM51390     0.0000 
@<TRIPOS>BOND
     1    2    1 1    
     2    3    2 ar   
     3    5    2 ar   
     4    4    3 ar   
     5   21    3 1    
     6    8    4 ar   
     7   22    4 1    
     8    6    5 1    
     9    7    5 ar   
    10    8    7 ar   
    11   23    7 1    
    12    9    8 1    
    13   10    9 1    
    14   14    9 1    
    15   24    9 1    
    16   11   10 ar   
    17   12   10 ar   
    18   13   10 ar   
    19   15   14 1    
    20   25   14 1    
    21   26   14 1    
    22   16   15 1    
    23   27   15 1    
    24   28   15 1    
    25   17   16 1    
    26   18   16 am   
    27   19   18 2    
    28   20   18 1    
    29   29   20 1    
    30   30   20 1    
    31   31   20 1    
@<TRIPOS>SUBSTRUCTURE
     1 FM51390     1 GROUP   
@<TRIPOS>SET

