#    Name: 2wsa_646_2_INTS_M
#    Modification time : Tue Mar 25 04:36:20 2014

@<TRIPOS>MOLECULE
2wsa_646_2_INTS_M
   50     0     9     0     0
SMALL
NO_CHARGES


@<TRIPOS>ATOM
      1 CA         27.4420    7.7895   17.3135 C.3       3 GLC5        0.0000 
      2 CA         26.7830    6.0640   17.6030 C.3       9 GLL5        0.0000 
      3 CA         28.1010    9.5150   17.0240 C.3       6 GLP5        0.0000 
      4 CA         26.3275    4.4960   19.0200 C.3       3 GLC5        0.0000 
      5 CA         25.8720    2.9280   20.4370 C.3       6 GLP5        0.0000 
      6 CA         26.9085    7.0435   19.2765 C.3       3 GLC5        0.0000 
      7 CA         27.0340    8.0230   20.9500 C.3       6 GLP5        0.0000 
      8 CA         29.2175    0.9495   13.8160 C.3       3 GLC5        0.0000 
      9 CA         29.5770    3.0050   14.5320 C.3       9 GLL5        0.0000 
     10 CA         28.8580   -1.1060   13.1000 C.3       6 GLP5        0.0000 
     11 CA         31.4610    2.5355   14.9200 C.3       3 GLC5        0.0000 
     12 CA         33.3450    2.0660   15.3080 C.3       6 GLP5        0.0000 
     13 CA         28.5035    0.1445   14.8665 C.3       3 GLC5        0.0000 
     14 CA         28.1490    1.3950   16.6330 C.3       9 GLL5        0.0000 
     15 CA         29.8460    0.1715   16.5095 C.3       3 GLC5        0.0000 
     16 CA         31.5430   -1.0520   16.3860 C.3       6 GLP5        0.0000 
     17 CA         29.1095    2.4670   18.2230 C.3       3 GLC5        0.0000 
     18 CA         30.0700    3.5390   19.8130 C.3       6 GLP5        0.0000 
     19 CA         28.5365    0.2805   18.1815 C.3       3 GLC5        0.0000 
     20 CA         28.9240   -0.8340   19.7300 C.3       6 GLP5        0.0000 
     21 CA         26.3745    1.1465   16.5405 C.3       3 GLC5        0.0000 
     22 CA         24.6000    0.8980   16.4480 C.3       6 GLP5        0.0000 
     23 CA         30.2355    6.5100   10.0645 C.3       3 GLC5        0.0000 
     24 CA         30.1210    5.8260   11.8320 C.3       9 GLL5        0.0000 
     25 CA         30.3500    7.1940    8.2970 C.3       6 GLP5        0.0000 
     26 CA         24.9760    3.2970   13.9125 C.3       3 GLC5        0.0000 
     27 CA         24.9690    5.1080   13.7010 C.3       9 GLL5        0.0000 
     28 CA         24.9830    1.4860   14.1240 C.3       6 GLP5        0.0000 
     29 CA         24.3145    5.6480   11.7100 C.3       3 GLC5        0.0000 
     30 CA         23.6600    6.1880    9.7190 C.3       6 GLP5        0.0000 
     31 CA         23.1220    5.2565   13.6630 C.3       3 GLC5        0.0000 
     32 CA         21.2750    5.4050   13.6250 C.3       6 GLP5        0.0000 
     33 N          26.3815    3.1760   18.1990 N.am      1 SEC2        0.0000 
     34 N          27.3520    3.6000   17.2960 N.am      7 SEL2        0.0000 
     35 N          25.4110    2.7520   19.1020 N.am      4 SEP2        0.0000 
     36 OD1        20.6435   -1.6830    9.6015 O.co2     2 ASC3        0.0000 
     37 OD1        21.9230   -1.7080    8.8660 O.co2     8 ASL3        0.0000 
     38 OD1        19.3640   -1.6580   10.3370 O.co2     5 ASP3        0.0000 
     39 CA         29.3685    3.5735   17.6970 C.3       3 GLC5        0.0000 
     40 CA         28.6670    3.6080   15.5810 C.3       9 GLL5        0.0000 
     41 CA         28.5470    0.6355    8.1115 C.3       3 GLC5        0.0000 
     42 CA         28.1580    1.1160   10.1830 C.3       9 GLL5        0.0000 
     43 CA         29.0580    0.7620    6.3600 C.3       6 GLP5        0.0000 
     44 CA         25.1218    1.2902    8.0015 C.3       3 GLC5        0.0000 
     45 CA         25.6200    0.2610    9.4990 C.3       9 GLL5        0.0000 
     46 CA         24.5450    1.7170    6.1570 C.3       6 GLP5        0.0000 
     47 CA         23.5493    0.8862    7.6263 C.3       3 GLC5        0.0000 
     48 CA         23.1270    0.3560    9.4970 C.3       9 GLL5        0.0000 
     49 CA         28.2045    0.0532   11.6485 C.3       3 GLC5        0.0000 
     50 CA         27.0660    1.9160   10.5310 C.3       9 GLL5        0.0000 
@<TRIPOS>BOND
@<TRIPOS>SUBSTRUCTURE
     1 SEC2       33 GROUP        1 X    SEC  0     ROOT SEC X 2
     2 ASC3       36 GROUP        1 X    ASC  0     **** ASC X 3
     3 GLC5        1 GROUP        1 X    GLC  0     **** GLC X 6
     4 SEP2       35 GROUP        1 Y    SEP  0     ROOT SEP Y 9
     5 ASP3       38 GROUP        1 Y    ASP  0     **** ASP Y 10
     6 GLP5        3 GROUP        1 Y    GLP  0     **** GLP Y 13
     7 SEL2       34 GROUP        1 Z    SEL  0     ROOT SEL Z 16
     8 ASL3       37 GROUP        1 Z    ASL  0     **** ASL Z 17
     9 GLL5        2 GROUP        1 Z    GLL  0     **** GLL Z 20
@<TRIPOS>SET

