#    Name: 2wsa_646_2_ligand
#    Modification time : Tue Mar 25 04:36:20 2014

@<TRIPOS>MOLECULE
2wsa_646_2_ligand
   55    58     1     0     0
SMALL
NO_CHARGES


@<TRIPOS>ATOM
      1 CAA        26.7830    6.0640   17.6030 C.3       1 6461423     0.0000 
      2 CAB        29.5770    3.0050   14.5320 C.3       1 6461423     0.0000 
      3 CAC        28.1490    1.3950   16.6330 C.3       1 6461423     0.0000 
      4 OAD        28.6790    7.9430   13.4880 O.2       1 6461423     0.0000 
      5 OAE        26.5770    7.2170   14.5820 O.2       1 6461423     0.0000 
      6 CLF        30.1210    5.8260   11.8320 Cl        1 6461423     0.0000 
      7 CLG        24.9690    5.1080   13.7010 Cl        1 6461423     0.0000 
      8 CAH        27.9140   -0.0980    9.5430 C.ar      1 6461423     0.0000 
      9 CAI        28.1580    1.1160   10.1830 C.ar      1 6461423     0.0000 
     10 CAJ        28.4080    3.8580   11.2010 C.ar      1 6461423     0.0000 
     11 CAK        26.2110    3.6130   12.0310 C.ar      1 6461423     0.0000 
     12 CAL        25.7770    1.4660   10.1930 C.ar      1 6461423     0.0000 
     13 CAM        21.9800   -0.2450    8.6940 C.3       1 6461423     0.0000 
     14 CAN        23.1820   -2.3590    8.3870 C.3       1 6461423     0.0000 
     15 CAO        23.1270    0.3560    9.4970 C.3       1 6461423     0.0000 
     16 CAP        24.4380   -1.8040    9.1010 C.3       1 6461423     0.0000 
     17 NAQ        26.6780   -0.4530    9.1560 N.ar      1 6461423     0.0000 
     18 NAR        27.3520    3.6000   17.2960 N.2       1 6461423     0.0000 
     19 NAS        21.9230   -1.7080    8.8660 N.4       1 6461423     0.0000 
     20 NAT        28.7570    6.0740   15.1030 N.pl3     1 6461423     0.0000 
     21 CAU        27.4910    4.8800   16.8950 C.2       1 6461423     0.0000 
     22 CAV        28.6670    3.6080   15.5810 C.2       1 6461423     0.0000 
     23 CAW        28.5960    5.0110   11.9610 C.ar      1 6461423     0.0000 
     24 CAX        26.4040    4.7410   12.7890 C.ar      1 6461423     0.0000 
     25 CAY        27.0660    1.9160   10.5310 C.ar      1 6461423     0.0000 
     26 CAZ        27.2400    3.1080   11.2480 C.ar      1 6461423     0.0000 
     27 CBA        25.6200    0.2610    9.4990 C.ar      1 6461423     0.0000 
     28 CBB        28.3390    4.9470   15.7850 C.2       1 6461423     0.0000 
     29 CBC        27.5710    5.5190   12.7440 C.ar      1 6461423     0.0000 
     30 NBD        24.4070   -0.3130    9.1690 N.3       1 6461423     0.0000 
     31 NBE        28.0410    2.8870   16.5210 N.pl3     1 6461423     0.0000 
     32 SBF        27.8390    6.8210   13.9430 S.o2      1 6461423     0.0000 
     33 H          28.7282   -0.7328    9.3700 H         1 6461423     0.0000 
     34 H          29.1061    1.4138   10.3923 H         1 6461423     0.0000 
     35 H          29.1820    3.5453   10.5678 H         1 6461423     0.0000 
     36 H          25.2955    3.1312   12.0386 H         1 6461423     0.0000 
     37 H          24.9583    2.0205   10.4553 H         1 6461423     0.0000 
     38 H          22.1236    0.0113    7.6379 H         1 6461423     0.0000 
     39 H          21.0433    0.2167    9.0273 H         1 6461423     0.0000 
     40 H          23.1393   -3.4404    8.5632 H         1 6461423     0.0000 
     41 H          23.3039   -2.1994    7.3090 H         1 6461423     0.0000 
     42 H          22.9027    0.2457   10.5626 H         1 6461423     0.0000 
     43 H          23.1885    1.4253    9.2716 H         1 6461423     0.0000 
     44 H          25.3197   -2.1413    8.5512 H         1 6461423     0.0000 
     45 H          24.4747   -2.2298   10.1063 H         1 6461423     0.0000 
     46 H          29.6449    6.5486   15.2376 H         1 6461423     0.0000 
     47 H          27.0522    6.1371   18.5633 H         1 6461423     0.0000 
     48 H          27.0001    6.9390   17.1703 H         1 6461423     0.0000 
     49 H          25.7879    5.9666   17.5841 H         1 6461423     0.0000 
     50 H          30.5090    3.3612   14.5997 H         1 6461423     0.0000 
     51 H          29.6363    2.0106   14.6190 H         1 6461423     0.0000 
     52 H          29.2555    3.1995   13.6053 H         1 6461423     0.0000 
     53 H          28.7435    1.0116   15.9262 H         1 6461423     0.0000 
     54 H          28.5254    1.1151   17.5162 H         1 6461423     0.0000 
     55 H          27.2583    0.9501   16.5398 H         1 6461423     0.0000 
@<TRIPOS>BOND
     1   21    1 1    
     2   47    1 1    
     3   48    1 1    
     4   49    1 1    
     5   22    2 1    
     6   50    2 1    
     7   51    2 1    
     8   52    2 1    
     9   31    3 1    
    10   53    3 1    
    11   54    3 1    
    12   55    3 1    
    13   32    4 2    
    14   32    5 2    
    15   23    6 1    
    16   24    7 1    
    17    9    8 ar   
    18   17    8 ar   
    19   33    8 1    
    20   25    9 ar   
    21   34    9 1    
    22   23   10 ar   
    23   26   10 ar   
    24   35   10 1    
    25   24   11 ar   
    26   26   11 ar   
    27   36   11 1    
    28   25   12 ar   
    29   27   12 ar   
    30   37   12 1    
    31   15   13 1    
    32   19   13 1    
    33   38   13 1    
    34   39   13 1    
    35   16   14 1    
    36   19   14 1    
    37   40   14 1    
    38   41   14 1    
    39   30   15 1    
    40   42   15 1    
    41   43   15 1    
    42   30   16 1    
    43   44   16 1    
    44   45   16 1    
    45   27   17 ar   
    46   21   18 2    
    47   31   18 1    
    48   28   20 1    
    49   32   20 1    
    50   46   20 1    
    51   28   21 1    
    52   28   22 2    
    53   31   22 1    
    54   29   23 ar   
    55   29   24 ar   
    56   26   25 1    
    57   30   27 1    
    58   32   29 1    
@<TRIPOS>SUBSTRUCTURE
     1 6461423     1 GROUP   
@<TRIPOS>SET

