#    Name: 3s2v_3HU_1_INTS_M
#    Modification time : Mon Apr  7 22:00:53 2014

@<TRIPOS>MOLECULE
3s2v_3HU_1_INTS_M
   63     0    15     0     0
SMALL
NO_CHARGES


@<TRIPOS>ATOM
      1 OD1        42.7205   55.8710    6.0875 O.co2     3 ASC3        0.0000 
      2 OD1        42.0550   57.1190    6.8080 O.co2    13 ASL3        0.0000 
      3 OD1        43.3860   54.6230    5.3670 O.co2     8 ASP3        0.0000 
      4 O          40.6850   57.4840    6.2980 O.2       1 ALC1        0.0000 
      5 O          42.0550   57.1190    6.8080 O.2      11 ALL1        0.0000 
      6 O          39.3150   57.8490    5.7880 O.2       6 ALP1        0.0000 
      7 O          41.8190   56.2670    7.9050 O.2       1 ALC1        0.0000 
      8 O          41.5830   55.4150    9.0020 O.2       6 ALP1        0.0000 
      9 O          42.7205   55.8710    6.0875 O.2       1 ALC1        0.0000 
     10 O          43.3860   54.6230    5.3670 O.2       6 ALP1        0.0000 
     11 NZ         41.0365   59.3345    9.7410 N.4       4 LYC4        0.0000 
     12 NZ         41.2530   59.0160    8.4520 N.4      14 LYL4        0.0000 
     13 NZ         41.3140   60.8190   11.4160 N.4       9 LYP4        0.0000 
     14 N          40.2570   58.0815    8.8850 N.am      2 SEC2        0.0000 
     15 N          41.2530   59.0160    8.4520 N.am     12 SEL2        0.0000 
     16 N          39.2610   57.1470    9.3180 N.am      7 SEP2        0.0000 
     17 N          41.0365   59.3345    9.7410 N.am      2 SEC2        0.0000 
     18 N          40.8200   59.6530   11.0300 N.am      7 SEP2        0.0000 
     19 N          41.7290   60.2315    9.5560 N.am      2 SEC2        0.0000 
     20 N          42.2050   61.4470   10.6600 N.am      7 SEP2        0.0000 
     21 CA         41.7345   59.9205    6.4085 C.3       5 GLC5        0.0000 
     22 CA         42.9780   58.2580    6.9990 C.3      15 GLL5        0.0000 
     23 CA         40.4910   61.5830    5.8180 C.3      10 GLP5        0.0000 
     24 CA         42.0470   57.0520    8.6375 C.3       5 GLC5        0.0000 
     25 CA         41.1160   55.8460   10.2760 C.3      10 GLP5        0.0000 
     26 CA         42.2380   60.0495    4.6155 C.3       5 GLC5        0.0000 
     27 CA         43.2260   58.9220    5.6380 C.3      15 GLL5        0.0000 
     28 CA         41.2500   61.1770    3.5930 C.3      10 GLP5        0.0000 
     29 N          50.0190   53.6545    6.1335 N.am      2 SEC2        0.0000 
     30 N          49.2140   54.5490    5.6060 N.am     12 SEL2        0.0000 
     31 N          50.8240   52.7600    6.6610 N.am      7 SEP2        0.0000 
     32 N          45.2870   54.7035    1.1400 N.am      2 SEC2        0.0000 
     33 N          45.6840   55.3510    2.2250 N.am     12 SEL2        0.0000 
     34 N          44.8900   54.0560    0.0550 N.am      7 SEP2        0.0000 
     35 N          51.0640   55.1445    7.3295 N.am      2 SEC2        0.0000 
     36 N          51.1850   55.4950    5.8470 N.am     12 SEL2        0.0000 
     37 N          50.9430   54.7940    8.8120 N.am      7 SEP2        0.0000 
     38 CA         48.4120   54.6165    3.2265 C.3       5 GLC5        0.0000 
     39 CA         47.1520   56.1000    4.3000 C.3      15 GLL5        0.0000 
     40 CA         49.6720   53.1330    2.1530 C.3      10 GLP5        0.0000 
     41 CA         46.6045   54.3970    4.2230 C.3       5 GLC5        0.0000 
     42 CA         46.0570   52.6940    4.1460 C.3      10 GLP5        0.0000 
     43 CA         51.1570   58.5115    6.1675 C.3       5 GLC5        0.0000 
     44 CA         50.5260   58.0440    4.3270 C.3      15 GLL5        0.0000 
     45 CA         51.7880   58.9790    8.0080 C.3      10 GLP5        0.0000 
     46 CA         49.6120   54.9530    3.4185 C.3       5 GLC5        0.0000 
     47 CA         49.5520   56.7730    4.6840 C.3      15 GLL5        0.0000 
     48 CA         44.2285   54.6180    3.6895 C.3       5 GLC5        0.0000 
     49 CA         43.8180   56.5420    2.6980 C.3      15 GLL5        0.0000 
     50 CA         44.6390   52.6940    4.6810 C.3      10 GLP5        0.0000 
     51 NZ         42.6690   60.8150    9.5285 N.4       4 LYC4        0.0000 
     52 NZ         43.1330   60.1830    8.3970 N.4      14 LYL4        0.0000 
     53 N          42.6690   60.8150    9.5285 N.am      2 SEC2        0.0000 
     54 N          43.1330   60.1830    8.3970 N.am     12 SEL2        0.0000 
     55 CA         41.3047   58.3792    0.8228 C.3       5 GLC5        0.0000 
     56 CA         41.9130   57.7600    3.1870 C.3      15 GLL5        0.0000 
     57 CA         40.8510   59.4380   -0.8410 C.3      10 GLP5        0.0000 
     58 CA         40.1403   57.6878    2.5068 C.3       5 GLC5        0.0000 
     59 CA         41.6040   56.8810    1.7860 C.3      15 GLL5        0.0000 
     60 CA         38.5220   58.0550    2.5270 C.3      10 GLP5        0.0000 
     61 CA         51.4674   57.4938    3.3714 C.3       5 GLC5        0.0000 
     62 CA         49.3650   58.9680    3.5080 C.3      15 GLL5        0.0000 
     63 CA         53.1860   57.3480    2.4420 C.3      10 GLP5        0.0000 
@<TRIPOS>BOND
@<TRIPOS>SUBSTRUCTURE
     1 ALC1        4 GROUP        1 X    ALC  0     ROOT ALC X 1
     2 SEC2       14 GROUP        1 X    SEC  0     **** SEC X 2
     3 ASC3        1 GROUP        1 X    ASC  0     **** ASC X 3
     4 LYC4       11 GROUP        1 X    LYC  0     **** LYC X 4
     5 GLC5       21 GROUP        1 X    GLC  0     **** GLC X 6
     6 ALP1        6 GROUP        1 Y    ALP  0     ROOT ALP Y 8
     7 SEP2       16 GROUP        1 Y    SEP  0     **** SEP Y 9
     8 ASP3        3 GROUP        1 Y    ASP  0     **** ASP Y 10
     9 LYP4       13 GROUP        1 Y    LYP  0     **** LYP Y 11
    10 GLP5       23 GROUP        1 Y    GLP  0     **** GLP Y 13
    11 ALL1        5 GROUP        1 Z    ALL  0     ROOT ALL Z 15
    12 SEL2       15 GROUP        1 Z    SEL  0     **** SEL Z 16
    13 ASL3        2 GROUP        1 Z    ASL  0     **** ASL Z 17
    14 LYL4       12 GROUP        1 Z    LYL  0     **** LYL Z 18
    15 GLL5       22 GROUP        1 Z    GLL  0     **** GLL Z 20
@<TRIPOS>SET

