#    Name: 3s2v_3HU_1_ligand
#    Modification time : Mon Apr  7 22:00:53 2014

@<TRIPOS>MOLECULE
3s2v_3HU_1_ligand
   38    40     1     0     0
SMALL
NO_CHARGES


@<TRIPOS>ATOM
      1 C          42.3890   59.2540    8.0070 C.2       1 3HU258      0.0000 
      2 N          42.0550   57.1190    6.8080 N.4       1 3HU258      0.0000 
      3 O          41.2530   59.0160    8.4520 O.co2     1 3HU258      0.0000 
      4 CA         42.9780   58.2580    6.9990 C.3       1 3HU258      0.0000 
      5 CB         43.2260   58.9220    5.6380 C.3       1 3HU258      0.0000 
      6 OAB        49.2140   54.5490    5.6060 O.co2     1 3HU258      0.0000 
      7 OAD        45.6840   55.3510    2.2250 O.2       1 3HU258      0.0000 
      8 OAE        45.7480   57.9680    5.9500 O.2       1 3HU258      0.0000 
      9 OAF        51.1850   55.4950    5.8470 O.co2     1 3HU258      0.0000 
     10 CAH        49.3650   58.9680    3.5080 C.2       1 3HU258      0.0000 
     11 CAI        48.2230   58.2580    3.5250 C.2       1 3HU258      0.0000 
     12 CAJ        43.0890   56.1230    1.6610 C.2       1 3HU258      0.0000 
     13 CAK        41.9130   57.7600    3.1870 C.2       1 3HU258      0.0000 
     14 CAL        47.1520   56.1000    4.3000 C.3       1 3HU258      0.0000 
     15 SAN        41.6040   56.8810    1.7860 S.3       1 3HU258      0.0000 
     16 SAO        50.5260   58.0440    4.3270 S.3       1 3HU258      0.0000 
     17 CAP        50.0100   55.4980    5.4290 C.2       1 3HU258      0.0000 
     18 CAR        48.2940   57.0670    4.1570 C.2       1 3HU258      0.0000 
     19 CAS        49.5520   56.7730    4.6840 C.2       1 3HU258      0.0000 
     20 CAT        45.1180   56.1440    2.9750 C.2       1 3HU258      0.0000 
     21 CAU        45.1640   57.5290    4.9580 C.2       1 3HU258      0.0000 
     22 CAV        43.8180   56.5420    2.6980 C.2       1 3HU258      0.0000 
     23 CAW        43.1630   57.4660    3.5650 C.2       1 3HU258      0.0000 
     24 NAY        45.7970   56.6320    4.0790 N.am      1 3HU258      0.0000 
     25 NAZ        43.8560   57.9590    4.6880 N.am      1 3HU258      0.0000 
     26 OXT        43.1330   60.1830    8.3970 O.co2     1 3HU258      0.0000 
     27 H          43.9227   57.9009    7.3780 H         1 3HU258      0.0000 
     28 H          43.8765   59.7859    5.7866 H         1 3HU258      0.0000 
     29 H          42.2703   59.2715    5.2430 H         1 3HU258      0.0000 
     30 H          49.6553   59.7617    3.1921 H         1 3HU258      0.0000 
     31 H          47.3702   58.5902    3.0957 H         1 3HU258      0.0000 
     32 H          43.1908   55.5669    0.9525 H         1 3HU258      0.0000 
     33 H          41.2312   58.2825    3.4784 H         1 3HU258      0.0000 
     34 H          47.2093   55.6382    5.3234 H         1 3HU258      0.0000 
     35 H          47.3329   55.2377    3.6017 H         1 3HU258      0.0000 
     36 H          42.4173   56.4526    6.1563 H         1 3HU258      0.0000 
     37 H          41.8863   56.6301    7.6639 H         1 3HU258      0.0000 
     38 H          41.1658   57.4159    6.4599 H         1 3HU258      0.0000 
@<TRIPOS>BOND
     1    3    1 ar   
     2    4    1 1    
     3   26    1 ar   
     4    4    2 1    
     5   36    2 1    
     6   37    2 1    
     7   38    2 1    
     8    5    4 1    
     9   27    4 1    
    10   25    5 1    
    11   28    5 1    
    12   29    5 1    
    13   17    6 ar   
    14   20    7 2    
    15   21    8 2    
    16   17    9 ar   
    17   11   10 2    
    18   16   10 1    
    19   30   10 1    
    20   18   11 1    
    21   31   11 1    
    22   15   12 1    
    23   22   12 2    
    24   32   12 1    
    25   15   13 1    
    26   23   13 2    
    27   33   13 1    
    28   18   14 1    
    29   24   14 1    
    30   34   14 1    
    31   35   14 1    
    32   19   16 1    
    33   19   17 1    
    34   19   18 2    
    35   22   20 1    
    36   24   20 am   
    37   24   21 am   
    38   25   21 am   
    39   23   22 1    
    40   25   23 1    
@<TRIPOS>SUBSTRUCTURE
     1 3HU258      1 GROUP   
@<TRIPOS>SET

