#    Name: 2qu2_251_1_INTS_M
#    Modification time : Mon Mar 24 22:51:04 2014

@<TRIPOS>MOLECULE
2qu2_251_1_INTS_M
   38     0     9     0     0
SMALL
NO_CHARGES


@<TRIPOS>ATOM
      1 CA         17.8700  -13.5475   19.0625 C.3       3 GLC5        0.0000 
      2 CA         18.6960  -12.3870   17.6920 C.3       9 GLL5        0.0000 
      3 CA         17.0440  -14.7080   20.4330 C.3       6 GLP5        0.0000 
      4 CA         16.5140   -9.0125   14.8780 C.3       3 GLC5        0.0000 
      5 CA         14.9770   -8.6830   15.9540 C.3       9 GLL5        0.0000 
      6 CA         18.0510   -9.3420   13.8020 C.3       6 GLP5        0.0000 
      7 O          16.4130   -6.2515   13.9375 O.2       1 ALC1        0.0000 
      8 O          16.1700   -6.5730   15.5980 O.2       7 ALL1        0.0000 
      9 O          16.6560   -5.9300   12.2770 O.2       4 ALP1        0.0000 
     10 O          15.5140   -6.6015   14.4285 O.2       1 ALC1        0.0000 
     11 O          14.8580   -6.6300   13.2590 O.2       4 ALP1        0.0000 
     12 OD1        16.9720   -5.3535   13.5365 O.co2     2 ASC3        0.0000 
     13 OD1        16.7230   -5.3640   15.8330 O.co2     8 ASL3        0.0000 
     14 OD1        16.6560   -5.9300   12.2770 O.co2     5 ASP3        0.0000 
     15 OD1        15.5140   -6.6015   14.4285 O.co2     2 ASC3        0.0000 
     16 OD1        14.8580   -6.6300   13.2590 O.co2     5 ASP3        0.0000 
     17 OD1        17.1855   -3.4650   14.7135 O.co2     2 ASC3        0.0000 
     18 OD1        17.0830   -2.1530   14.6310 O.co2     5 ASP3        0.0000 
     19 O          16.9720   -5.3535   13.5365 O.2       1 ALC1        0.0000 
     20 O          17.2880   -4.7770   14.7960 O.2       7 ALL1        0.0000 
     21 O          17.1855   -3.4650   14.7135 O.2       1 ALC1        0.0000 
     22 O          17.0830   -2.1530   14.6310 O.2       4 ALP1        0.0000 
     23 CA         16.9749  -12.9734   19.4398 C.3       3 GLC5        0.0000 
     24 CA         17.0480  -11.0490   19.0270 C.3       9 GLL5        0.0000 
     25 CA         17.5870  -10.7263   15.2285 C.3       3 GLC5        0.0000 
     26 CA         17.7610  -12.4340   16.5950 C.3       9 GLL5        0.0000 
     27 CA         19.2229  -13.9311   17.7699 C.3       3 GLC5        0.0000 
     28 CA         20.3070  -15.6240   18.0900 C.3       6 GLP5        0.0000 
     29 CA          7.9202   -6.6552   16.2635 C.3       3 GLC5        0.0000 
     30 CA          9.9560   -6.3260   15.7640 C.3       9 GLL5        0.0000 
     31 CA          6.0380   -6.2950   16.6630 C.3       6 GLP5        0.0000 
     32 CA         10.5523   -8.3918   14.7220 C.3       3 GLC5        0.0000 
     33 CA          9.6490   -7.7050   15.9640 C.3       9 GLL5        0.0000 
     34 CA         11.3020   -9.7680   13.5800 C.3       6 GLP5        0.0000 
     35 CA         10.4442   -6.8570   13.9829 C.3       3 GLC5        0.0000 
     36 CA         10.7640   -6.8270   12.0050 C.3       6 GLP5        0.0000 
     37 CA         11.3999   -9.1863   15.2391 C.3       3 GLC5        0.0000 
     38 CA         10.5990   -8.5990   16.5500 C.3       9 GLL5        0.0000 
@<TRIPOS>BOND
@<TRIPOS>SUBSTRUCTURE
     1 ALC1        7 GROUP        1 X    ALC  0     ROOT ALC X 1
     2 ASC3       12 GROUP        1 X    ASC  0     **** ASC X 3
     3 GLC5        1 GROUP        1 X    GLC  0     **** GLC X 6
     4 ALP1        9 GROUP        1 Y    ALP  0     ROOT ALP Y 8
     5 ASP3       14 GROUP        1 Y    ASP  0     **** ASP Y 10
     6 GLP5        3 GROUP        1 Y    GLP  0     **** GLP Y 13
     7 ALL1        8 GROUP        1 Z    ALL  0     ROOT ALL Z 15
     8 ASL3       13 GROUP        1 Z    ASL  0     **** ASL Z 17
     9 GLL5        2 GROUP        1 Z    GLL  0     **** GLL Z 20
@<TRIPOS>SET

