#    Name: 2qu2_251_1_ligand
#    Modification time : Mon Mar 24 22:51:04 2014

@<TRIPOS>MOLECULE
2qu2_251_1_ligand
   43    45     1     0     0
SMALL
NO_CHARGES


@<TRIPOS>ATOM
      1 C1         18.3370  -11.6980   18.9170 C.ar      1 2511        0.0000 
      2 C2         17.0480  -11.0490   19.0270 C.ar      1 2511        0.0000 
      3 C3         16.1190  -11.1040   17.9210 C.ar      1 2511        0.0000 
      4 C4         16.4850  -11.7870   16.7150 C.ar      1 2511        0.0000 
      5 C5         17.7610  -12.4340   16.5950 C.ar      1 2511        0.0000 
      6 C6         18.6960  -12.3870   17.6920 C.ar      1 2511        0.0000 
      7 C12        14.8110  -10.4690   17.9760 C.2       1 2511        0.0000 
      8 C13        13.8240  -10.7770   18.8570 C.2       1 2511        0.0000 
      9 C14        12.6430   -9.9420   18.5990 C.2       1 2511        0.0000 
     10 C15        12.8860   -9.1040   17.5430 C.2       1 2511        0.0000 
     11 N16        14.2800   -9.3890   17.0880 N.pl3     1 2511        0.0000 
     12 C17        11.9070   -8.1160   16.9500 C.ar      1 2511        0.0000 
     13 C18        12.2110   -6.6950   16.7440 C.ar      1 2511        0.0000 
     14 C19        11.2440   -5.8120   16.1510 C.ar      1 2511        0.0000 
     15 C20         9.9560   -6.3260   15.7640 C.ar      1 2511        0.0000 
     16 C21         9.6490   -7.7050   15.9640 C.ar      1 2511        0.0000 
     17 C22        10.5990   -8.5990   16.5500 C.ar      1 2511        0.0000 
     18 C28        14.9770   -8.6830   15.9540 C.3       1 2511        0.0000 
     19 C29        15.5320   -7.3540   16.5190 C.2       1 2511        0.0000 
     20 N32        16.1700   -6.5730   15.5980 N.am      1 2511        0.0000 
     21 O33        15.3750   -7.0450   17.7310 O.2       1 2511        0.0000 
     22 C34        16.7230   -5.3640   15.8330 C.cat     1 2511        0.0000 
     23 N35        16.6880   -4.7960   17.0640 N.pl3     1 2511        0.0000 
     24 N36        17.2880   -4.7770   14.7960 N.pl3     1 2511        0.0000 
     25 H          18.9845  -11.6721   19.6887 H         1 2511        0.0000 
     26 H          16.7995  -10.5601   19.8731 H         1 2511        0.0000 
     27 H          15.8321  -11.8142   15.9326 H         1 2511        0.0000 
     28 H          18.0064  -12.9224   15.7443 H         1 2511        0.0000 
     29 H          19.5979  -12.8308   17.6113 H         1 2511        0.0000 
     30 H          13.8352  -11.4238   19.5559 H         1 2511        0.0000 
     31 H          11.8523  -10.0142   19.1197 H         1 2511        0.0000 
     32 H          13.1190   -6.3439   17.0282 H         1 2511        0.0000 
     33 H          11.4655   -4.8382   16.0065 H         1 2511        0.0000 
     34 H           9.2711   -5.7035   15.3498 H         1 2511        0.0000 
     35 H           8.7310   -8.0629   15.6829 H         1 2511        0.0000 
     36 H          10.3661   -9.5754   16.6901 H         1 2511        0.0000 
     37 H          14.2813   -8.4604   15.1673 H         1 2511        0.0000 
     38 H          15.7970   -9.2740   15.5923 H         1 2511        0.0000 
     39 H          16.2348   -6.9630   14.5930 H         1 2511        0.0000 
     40 H          16.2204   -5.3188   17.7767 H         1 2511        0.0000 
     41 H          17.1329   -3.9046   17.1501 H         1 2511        0.0000 
     42 H          17.6773   -3.8709   14.9614 H         1 2511        0.0000 
     43 H          17.2758   -5.2914   13.9386 H         1 2511        0.0000 
@<TRIPOS>BOND
     1    2    1 ar   
     2    6    1 ar   
     3   25    1 1    
     4    3    2 ar   
     5   26    2 1    
     6    4    3 ar   
     7    7    3 1    
     8    5    4 ar   
     9   27    4 1    
    10    6    5 ar   
    11   28    5 1    
    12   29    6 1    
    13    8    7 2    
    14   11    7 1    
    15    9    8 1    
    16   30    8 1    
    17   10    9 2    
    18   31    9 1    
    19   11   10 1    
    20   12   10 1    
    21   18   11 1    
    22   13   12 ar   
    23   17   12 ar   
    24   14   13 ar   
    25   32   13 1    
    26   15   14 ar   
    27   33   14 1    
    28   16   15 ar   
    29   34   15 1    
    30   17   16 ar   
    31   35   16 1    
    32   36   17 1    
    33   19   18 1    
    34   37   18 1    
    35   38   18 1    
    36   20   19 am   
    37   21   19 2    
    38   22   20 1    
    39   39   20 1    
    40   23   22 ar   
    41   24   22 ar   
    42   40   23 1    
    43   41   23 1    
    44   42   24 1    
    45   43   24 1    
@<TRIPOS>SUBSTRUCTURE
     1 2511        1 GROUP   
@<TRIPOS>SET

