#    Name: 1kji_ACP_2_INTS_M
#    Modification time : Tue Mar 25 10:11:38 2014

@<TRIPOS>MOLECULE
1kji_ACP_2_INTS_M
   68     0    15     0     0
SMALL
NO_CHARGES


@<TRIPOS>ATOM
      1 N          17.5910    7.0055   -1.7490 N.am      2 SEC2        0.0000 
      2 N          17.9370    8.6570   -2.1380 N.am     12 SEL2        0.0000 
      3 N          17.2450    5.3540   -1.3600 N.am      7 SEP2        0.0000 
      4 Zn         18.4975    9.1055   -5.4615 Zn        4 ZIC7        0.0000 
      5 Zn         18.3600    9.0470   -4.5240 Zn       14 ZIL7        0.0000 
      6 Zn         18.6350    9.1640   -6.3990 Zn        9 ZIP7        0.0000 
      7 Zn         15.4840    8.6525   -4.6005 Zn        4 ZIC7        0.0000 
      8 Zn         15.9660    8.7080   -3.6700 Zn       14 ZIL7        0.0000 
      9 Zn         15.0020    8.5970   -5.5310 Zn        9 ZIP7        0.0000 
     10 N          15.3285    4.6220   -5.1915 N.am      2 SEC2        0.0000 
     11 N          16.4960    4.6980   -4.2590 N.am     12 SEL2        0.0000 
     12 N          14.1610    4.5460   -6.1240 N.am      7 SEP2        0.0000 
     13 N          17.3780    3.9795   -3.4820 N.am      2 SEC2        0.0000 
     14 N          18.2600    3.2610   -2.7050 N.am      7 SEP2        0.0000 
     15 NZ         14.9190    6.1410   -6.7815 N.4       3 LYC4        0.0000 
     16 NZ         15.7040    6.6710   -5.4020 N.4      13 LYL4        0.0000 
     17 NZ         13.5590    4.7700   -7.2990 N.4       8 LYP4        0.0000 
     18 Zn         15.3530    7.6340   -5.4665 Zn        4 ZIC7        0.0000 
     19 Zn         15.7040    6.6710   -5.4020 Zn       14 ZIL7        0.0000 
     20 N          14.9190    6.1410   -6.7815 N.am      2 SEC2        0.0000 
     21 N          15.7040    6.6710   -5.4020 N.am     12 SEL2        0.0000 
     22 N          14.1340    5.6110   -8.1610 N.am      7 SEP2        0.0000 
     23 N          14.9325    5.6085   -5.7630 N.am      2 SEC2        0.0000 
     24 CA         16.2880    6.0235   -2.9045 C.3       5 GLC5        0.0000 
     25 CA         17.6980    6.7990   -3.7370 C.3      15 GLL5        0.0000 
     26 CA         14.8780    5.2480   -2.0720 C.3      10 GLP5        0.0000 
     27 CA         18.1015    5.8085   -2.2790 C.3       5 GLC5        0.0000 
     28 CA         18.5050    4.8180   -0.8210 C.3      10 GLP5        0.0000 
     29 NZ         15.6190    5.7220   -8.3150 N.4       3 LYC4        0.0000 
     30 NZ         17.1040    5.8330   -8.4690 N.4      13 LYL4        0.0000 
     31 NZ         17.0410    5.0270   -9.7340 N.4       3 LYC4        0.0000 
     32 NZ         16.9780    4.2210  -10.9990 N.4       8 LYP4        0.0000 
     33 N          15.6190    5.7220   -8.3150 N.am      2 SEC2        0.0000 
     34 N          17.1040    5.8330   -8.4690 N.am     12 SEL2        0.0000 
     35 N          17.0410    5.0270   -9.7340 N.am      2 SEC2        0.0000 
     36 N          16.9780    4.2210  -10.9990 N.am      7 SEP2        0.0000 
     37 Zn         18.4920    8.4460   -6.9675 Zn        4 ZIC7        0.0000 
     38 Zn         18.3490    7.7280   -7.5360 Zn       14 ZIL7        0.0000 
     39 O          23.1405    8.8410   -8.9280 O.2       1 ALC1        0.0000 
     40 O          22.5150    8.0930   -8.0850 O.2      11 ALL1        0.0000 
     41 O          23.7660    9.5890   -9.7710 O.2       6 ALP1        0.0000 
     42 O          24.1050    8.2880   -8.6460 O.2       1 ALC1        0.0000 
     43 O          25.6950    8.4830   -9.2070 O.2       6 ALP1        0.0000 
     44 CA         22.8910    7.6400  -11.3955 C.3       5 GLC5        0.0000 
     45 CA         23.0680    6.3410   -9.8320 C.3      15 GLL5        0.0000 
     46 CA         22.7140    8.9390  -12.9590 C.3      10 GLP5        0.0000 
     47 O          24.0815    7.9415   -9.5265 O.2       1 ALC1        0.0000 
     48 O          24.3970    6.2940   -9.2820 O.2      11 ALL1        0.0000 
     49 O          25.0460    7.3885   -9.2445 O.2       1 ALC1        0.0000 
     50 N          18.2540    4.4200  -11.4705 N.am      2 SEC2        0.0000 
     51 N          19.5300    4.6190  -11.9420 N.am     12 SEL2        0.0000 
     52 CA         20.7610    5.3030  -16.2735 C.3       5 GLC5        0.0000 
     53 CA         20.4340    4.3570  -14.3160 C.3      15 GLL5        0.0000 
     54 CA         21.0880    6.2490  -18.2310 C.3      10 GLP5        0.0000 
     55 O          19.2720    3.2005  -16.1730 O.2       1 ALC1        0.0000 
     56 O          19.4020    4.2090  -15.0380 O.2      11 ALL1        0.0000 
     57 O          19.1420    2.1920  -17.3080 O.2       6 ALP1        0.0000 
     58 N          22.1260    4.0115  -16.4180 N.am      2 SEC2        0.0000 
     59 N          21.6770    4.3100  -14.8900 N.am     12 SEL2        0.0000 
     60 N          22.5750    3.7130  -17.9460 N.am      7 SEP2        0.0000 
     61 CA         23.4290    2.6875  -15.5110 C.3       5 GLC5        0.0000 
     62 CA         22.8740    4.3990  -14.2140 C.3      15 GLL5        0.0000 
     63 CA         23.9840    0.9760  -16.8080 C.3      10 GLP5        0.0000 
     64 CA         22.7475    5.3000  -16.1740 C.3       5 GLC5        0.0000 
     65 CA         22.6210    6.2010  -18.1340 C.3      10 GLP5        0.0000 
     66 CA         20.9877    2.4627  -13.2133 C.3       5 GLC5        0.0000 
     67 CA         20.5160    4.4770  -12.9200 C.3      15 GLL5        0.0000 
     68 CA         20.8550    0.4290  -13.4570 C.3      10 GLP5        0.0000 
@<TRIPOS>BOND
@<TRIPOS>SUBSTRUCTURE
     1 ALC1       39 GROUP        1 X    ALC  0     ROOT ALC X 1
     2 SEC2        1 GROUP        1 X    SEC  0     **** SEC X 2
     3 LYC4       15 GROUP        1 X    LYC  0     **** LYC X 4
     4 ZIC7        4 GROUP        1 X    ZIC  0     **** ZIC X 5
     5 GLC5       24 GROUP        1 X    GLC  0     **** GLC X 6
     6 ALP1       41 GROUP        1 Y    ALP  0     ROOT ALP Y 8
     7 SEP2        3 GROUP        1 Y    SEP  0     **** SEP Y 9
     8 LYP4       17 GROUP        1 Y    LYP  0     **** LYP Y 11
     9 ZIP7        6 GROUP        1 Y    ZIP  0     **** ZIP Y 12
    10 GLP5       26 GROUP        1 Y    GLP  0     **** GLP Y 13
    11 ALL1       40 GROUP        1 Z    ALL  0     ROOT ALL Z 15
    12 SEL2        2 GROUP        1 Z    SEL  0     **** SEL Z 16
    13 LYL4       16 GROUP        1 Z    LYL  0     **** LYL Z 18
    14 ZIL7        5 GROUP        1 Z    ZIL  0     **** ZIL Z 19
    15 GLL5       25 GROUP        1 Z    GLL  0     **** GLL Z 20
@<TRIPOS>SET

