#    Name: 1kji_ACP_2_ligand
#    Modification time : Tue Mar 25 10:11:38 2014

@<TRIPOS>MOLECULE
1kji_ACP_2_ligand
   44    46     1     0     0
SMALL
NO_CHARGES


@<TRIPOS>ATOM
      1 PG         17.5020    8.3070   -3.5330 P.3       1 ACP396      0.0000 
      2 O1G        17.9370    8.6570   -2.1380 O.co2     1 ACP396      0.0000 
      3 O2G        18.3600    9.0470   -4.5240 O.co2     1 ACP396      0.0000 
      4 O3G        15.9660    8.7080   -3.6700 O.co2     1 ACP396      0.0000 
      5 PB         16.9290    6.0220   -4.8110 P.3       1 ACP396      0.0000 
      6 O1B        16.4960    4.6980   -4.2590 O.co2     1 ACP396      0.0000 
      7 O2B        15.7040    6.6710   -5.4020 O.co2     1 ACP396      0.0000 
      8 C3B        17.6980    6.7990   -3.7370 C.3       1 ACP396      0.0000 
      9 PA         18.1860    6.2240   -7.4980 P.3       1 ACP396      0.0000 
     10 O1A        17.1040    5.8330   -8.4690 O.co2     1 ACP396      0.0000 
     11 O2A        18.3490    7.7280   -7.5360 O.co2     1 ACP396      0.0000 
     12 O3A        17.9320    5.6540   -6.0170 O.3       1 ACP396      0.0000 
     13 O5'        19.5710    5.5610   -7.9560 O.3       1 ACP396      0.0000 
     14 C5'        20.6880    5.6370   -7.0260 C.3       1 ACP396      0.0000 
     15 C4'        21.9720    5.7050   -7.8530 C.3       1 ACP396      0.0000 
     16 O4'        22.0660    4.5370   -8.7370 O.3       1 ACP396      0.0000 
     17 C3'        22.0870    6.9060   -8.8000 C.3       1 ACP396      0.0000 
     18 O3'        22.5150    8.0930   -8.0850 O.3       1 ACP396      0.0000 
     19 C2'        23.0680    6.3410   -9.8320 C.3       1 ACP396      0.0000 
     20 O2'        24.3970    6.2940   -9.2820 O.3       1 ACP396      0.0000 
     21 C1'        22.5740    4.9050   -9.9710 C.3       1 ACP396      0.0000 
     22 N9         21.5370    4.7630  -10.9690 N.pl3     1 ACP396      0.0000 
     23 C8         20.1950    4.7650  -10.7920 C.2       1 ACP396      0.0000 
     24 N7         19.5300    4.6190  -11.9420 N.2       1 ACP396      0.0000 
     25 C5         20.5160    4.4770  -12.9200 C.ar      1 ACP396      0.0000 
     26 C6         20.4340    4.3570  -14.3160 C.ar      1 ACP396      0.0000 
     27 N6         19.4020    4.2090  -15.0380 N.pl3     1 ACP396      0.0000 
     28 N1         21.6770    4.3100  -14.8900 N.ar      1 ACP396      0.0000 
     29 C2         22.8740    4.3990  -14.2140 C.ar      1 ACP396      0.0000 
     30 N3         22.9700    4.5390  -12.9270 N.ar      1 ACP396      0.0000 
     31 C4         21.7660    4.5760  -12.3210 C.ar      1 ACP396      0.0000 
     32 H          17.5125    6.2872   -2.7378 H         1 ACP396      0.0000 
     33 H          18.8085    6.6131   -3.9015 H         1 ACP396      0.0000 
     34 H          20.7352    4.7587   -6.3933 H         1 ACP396      0.0000 
     35 H          20.6299    6.5274   -6.4114 H         1 ACP396      0.0000 
     36 H          22.8305    5.7115   -7.1978 H         1 ACP396      0.0000 
     37 H          21.1338    7.0074   -9.2761 H         1 ACP396      0.0000 
     38 H          22.9714    6.8321  -10.7239 H         1 ACP396      0.0000 
     39 H          23.4326    4.2937  -10.2299 H         1 ACP396      0.0000 
     40 H          19.7624    4.8643   -9.9039 H         1 ACP396      0.0000 
     41 H          23.7606    4.3461  -14.8160 H         1 ACP396      0.0000 
     42 H          23.3502    8.3877   -8.5494 H         1 ACP396      0.0000 
     43 H          24.5327    7.1888   -8.8568 H         1 ACP396      0.0000 
     44 H          19.6811    3.5782  -15.7620 H         1 ACP396      0.0000 
@<TRIPOS>BOND
     1    2    1 ar   
     2    3    1 ar   
     3    4    1 ar   
     4    8    1 1    
     5    6    5 ar   
     6    7    5 ar   
     7    8    5 1    
     8   12    5 1    
     9   32    8 1    
    10   33    8 1    
    11   10    9 ar   
    12   11    9 ar   
    13   12    9 1    
    14   13    9 1    
    15   14   13 1    
    16   15   14 1    
    17   34   14 1    
    18   35   14 1    
    19   16   15 1    
    20   17   15 1    
    21   36   15 1    
    22   21   16 1    
    23   18   17 1    
    24   19   17 1    
    25   37   17 1    
    26   42   18 1    
    27   20   19 1    
    28   21   19 1    
    29   38   19 1    
    30   43   20 1    
    31   22   21 1    
    32   39   21 1    
    33   23   22 1    
    34   31   22 1    
    35   24   23 2    
    36   40   23 1    
    37   25   24 1    
    38   26   25 ar   
    39   31   25 ar   
    40   27   26 1    
    41   28   26 ar   
    42   44   27 1    
    43   29   28 ar   
    44   30   29 ar   
    45   41   29 1    
    46   31   30 ar   
@<TRIPOS>SUBSTRUCTURE
     1 ACP396      1 GROUP   
@<TRIPOS>SET

