#    Name: 1ct9_AMP_4_INTS_M
#    Modification time : Mon Mar 24 21:01:10 2014

@<TRIPOS>MOLECULE
1ct9_AMP_4_INTS_M
   44     0     9     0     0
SMALL
NO_CHARGES


@<TRIPOS>ATOM
      1 O         -28.8700   44.3420  132.4555 O.2       1 ALC1        0.0000 
      2 O         -28.2620   45.7720  133.0920 O.2       7 ALL1        0.0000 
      3 O         -29.4780   42.9120  131.8190 O.2       4 ALP1        0.0000 
      4 CA        -23.9015   47.1880  133.0690 C.3       3 GLC5        0.0000 
      5 CA        -26.0680   47.2550  132.9610 C.3       9 GLL5        0.0000 
      6 CA        -21.7350   47.1210  133.1770 C.3       6 GLP5        0.0000 
      7 N         -25.0170   45.3145  131.4085 N.am      2 SEC2        0.0000 
      8 N         -25.1340   46.0970  132.8010 N.am      8 SEL2        0.0000 
      9 N         -24.9000   44.5320  130.0160 N.am      5 SEP2        0.0000 
     10 N         -25.5095   44.6885  132.4310 N.am      2 SEC2        0.0000 
     11 N         -25.8850   43.2800  132.0610 N.am      5 SEP2        0.0000 
     12 CA        -23.7160   48.0485  131.3450 C.3       3 GLC5        0.0000 
     13 CA        -25.7360   48.3740  131.9370 C.3       9 GLL5        0.0000 
     14 CA        -21.6960   47.7230  130.7530 C.3       6 GLP5        0.0000 
     15 CA        -22.2995   52.5300  135.4860 C.3       3 GLC5        0.0000 
     16 CA        -23.9250   52.3400  134.3670 C.3       9 GLL5        0.0000 
     17 CA        -20.6740   52.7200  136.6050 C.3       6 GLP5        0.0000 
     18 CA        -23.0270   53.6840  133.3585 C.3       3 GLC5        0.0000 
     19 CA        -22.1290   55.0280  132.3500 C.3       6 GLP5        0.0000 
     20 N         -22.0890   53.1595  134.9620 N.am      2 SEC2        0.0000 
     21 N         -22.7580   51.7410  134.7220 N.am      8 SEL2        0.0000 
     22 N         -21.4200   54.5780  135.2020 N.am      5 SEP2        0.0000 
     23 CA        -22.1465   48.7980  133.7255 C.3       3 GLC5        0.0000 
     24 CA        -22.5580   50.4750  134.2740 C.3       9 GLL5        0.0000 
     25 CA        -22.5710   49.2345  135.9675 C.3       3 GLC5        0.0000 
     26 CA        -22.5840   47.9940  137.6610 C.3       6 GLP5        0.0000 
     27 CA        -24.3675   50.4775  135.2445 C.3       3 GLC5        0.0000 
     28 CA        -26.1770   50.4800  136.2150 C.3       6 GLP5        0.0000 
     29 CA        -21.6160   51.5975  135.4395 C.3       3 GLC5        0.0000 
     30 CA        -21.8895   50.9755  132.8290 C.3       3 GLC5        0.0000 
     31 CA        -21.2210   51.4760  131.3840 C.3       6 GLP5        0.0000 
     32 CA        -23.1270   48.7135  133.1970 C.3       3 GLC5        0.0000 
     33 CA        -24.5190   50.3060  133.2170 C.3       9 GLL5        0.0000 
     34 CA        -28.2838   46.0635  129.1055 C.3       3 GLC5        0.0000 
     35 CA        -27.3900   46.9970  131.2010 C.3       9 GLL5        0.0000 
     36 CA        -28.5540   45.2230  127.4170 C.3       6 GLP5        0.0000 
     37 CA        -27.3435   44.9008  132.1655 C.3       3 GLC5        0.0000 
     38 CA        -27.2140   42.7970  132.3840 C.3       6 GLP5        0.0000 
     39 CA        -26.2360   46.4267  134.5410 C.3       3 GLC5        0.0000 
     40 CA        -27.5560   47.0120  132.6930 C.3       9 GLL5        0.0000 
     41 CA        -25.6600   45.7200  136.2550 C.3       6 GLP5        0.0000 
     42 CA        -25.3185   50.8095  134.9045 C.3       3 GLC5        0.0000 
     43 CA        -24.8770   51.6040  133.5750 C.3       9 GLL5        0.0000 
     44 CA        -22.8405   51.3075  132.4890 C.3       3 GLC5        0.0000 
@<TRIPOS>BOND
@<TRIPOS>SUBSTRUCTURE
     1 ALC1        1 GROUP        1 X    ALC  0     ROOT ALC X 1
     2 SEC2        7 GROUP        1 X    SEC  0     **** SEC X 2
     3 GLC5        4 GROUP        1 X    GLC  0     **** GLC X 6
     4 ALP1        3 GROUP        1 Y    ALP  0     ROOT ALP Y 8
     5 SEP2        9 GROUP        1 Y    SEP  0     **** SEP Y 9
     6 GLP5        6 GROUP        1 Y    GLP  0     **** GLP Y 13
     7 ALL1        2 GROUP        1 Z    ALL  0     ROOT ALL Z 15
     8 SEL2        8 GROUP        1 Z    SEL  0     **** SEL Z 16
     9 GLL5        5 GROUP        1 Z    GLL  0     **** GLL Z 20
@<TRIPOS>SET

