#    Name: 1ct9_AMP_4_ligand
#    Modification time : Mon Mar 24 21:01:10 2014

@<TRIPOS>MOLECULE
1ct9_AMP_4_ligand
   34    36     1     0     0
SMALL
NO_CHARGES


@<TRIPOS>ATOM
      1 P         -30.6030   48.3900  130.6540 P.3       1 AMP1121     0.0000 
      2 O1P       -30.5470   49.6070  131.5250 O.co2     1 AMP1121     0.0000 
      3 O2P       -31.2360   48.6050  129.2340 O.co2     1 AMP1121     0.0000 
      4 O3P       -31.0880   47.1830  131.4110 O.co2     1 AMP1121     0.0000 
      5 O5'       -29.1810   48.0800  130.0150 O.3       1 AMP1121     0.0000 
      6 C5'       -28.6370   46.8110  130.3870 C.3       1 AMP1121     0.0000 
      7 C4'       -27.3900   46.9970  131.2010 C.3       1 AMP1121     0.0000 
      8 O4'       -26.7340   48.2660  130.9530 O.3       1 AMP1121     0.0000 
      9 C3'       -27.5560   47.0120  132.6930 C.3       1 AMP1121     0.0000 
     10 O3'       -28.2620   45.7720  133.0920 O.3       1 AMP1121     0.0000 
     11 C2'       -26.0680   47.2550  132.9610 C.3       1 AMP1121     0.0000 
     12 O2'       -25.1340   46.0970  132.8010 O.3       1 AMP1121     0.0000 
     13 C1'       -25.7360   48.3740  131.9370 C.3       1 AMP1121     0.0000 
     14 N9        -25.6100   49.7710  132.4860 N.pl3     1 AMP1121     0.0000 
     15 C8        -26.5220   50.7960  132.4280 C.2       1 AMP1121     0.0000 
     16 N7        -26.1410   51.9140  133.0800 N.2       1 AMP1121     0.0000 
     17 C5        -24.8770   51.6040  133.5750 C.ar      1 AMP1121     0.0000 
     18 C6        -23.9250   52.3400  134.3670 C.ar      1 AMP1121     0.0000 
     19 N6        -23.9960   53.5650  134.8760 N.pl3     1 AMP1121     0.0000 
     20 N1        -22.7580   51.7410  134.7220 N.ar      1 AMP1121     0.0000 
     21 C2        -22.5580   50.4750  134.2740 C.ar      1 AMP1121     0.0000 
     22 N3        -23.3470   49.6990  133.5650 N.ar      1 AMP1121     0.0000 
     23 C4        -24.5190   50.3060  133.2170 C.ar      1 AMP1121     0.0000 
     24 H         -28.3859   46.2093  129.4999 H         1 AMP1121     0.0000 
     25 H         -29.3564   46.2278  130.9824 H         1 AMP1121     0.0000 
     26 H         -26.6692   46.2004  130.9670 H         1 AMP1121     0.0000 
     27 H         -28.0856   47.9100  132.9103 H         1 AMP1121     0.0000 
     28 H         -25.9743   47.7150  133.9353 H         1 AMP1121     0.0000 
     29 H         -24.7634   48.0797  131.4870 H         1 AMP1121     0.0000 
     30 H         -27.3903   50.7090  131.9412 H         1 AMP1121     0.0000 
     31 H         -21.5716   50.0421  134.5583 H         1 AMP1121     0.0000 
     32 H         -28.3853   45.2596  132.2421 H         1 AMP1121     0.0000 
     33 H         -24.2726   46.5002  132.4921 H         1 AMP1121     0.0000 
     34 H         -24.4580   53.4532  135.7558 H         1 AMP1121     0.0000 
@<TRIPOS>BOND
     1    2    1 ar   
     2    3    1 ar   
     3    4    1 ar   
     4    5    1 1    
     5    6    5 1    
     6    7    6 1    
     7   24    6 1    
     8   25    6 1    
     9    8    7 1    
    10    9    7 1    
    11   26    7 1    
    12   13    8 1    
    13   10    9 1    
    14   11    9 1    
    15   27    9 1    
    16   32   10 1    
    17   12   11 1    
    18   13   11 1    
    19   28   11 1    
    20   33   12 1    
    21   14   13 1    
    22   29   13 1    
    23   15   14 1    
    24   23   14 1    
    25   16   15 2    
    26   30   15 1    
    27   17   16 1    
    28   18   17 ar   
    29   23   17 ar   
    30   19   18 1    
    31   20   18 ar   
    32   34   19 1    
    33   21   20 ar   
    34   22   21 ar   
    35   31   21 1    
    36   23   22 ar   
@<TRIPOS>SUBSTRUCTURE
     1 AMP1121     1 GROUP   
@<TRIPOS>SET

