#    Name: 1jhr_P2P_2_INTS_M
#    Modification time : Tue Mar 25 08:56:06 2014

@<TRIPOS>MOLECULE
1jhr_P2P_2_INTS_M
   46     0     9     0     0
SMALL
NO_CHARGES


@<TRIPOS>ATOM
      1 N          58.2765   36.8065    5.2050 N.am      2 SEC2        0.0000 
      2 N          59.0920   38.0850    5.3070 N.am      8 SEL2        0.0000 
      3 N          57.4610   35.5280    5.1030 N.am      5 SEP2        0.0000 
      4 N          58.1990   38.0215    4.3235 N.am      2 SEC2        0.0000 
      5 N          57.3060   37.9580    3.3400 N.am      5 SEP2        0.0000 
      6 N          58.6130   41.5540    5.3070 N.am      2 SEC2        0.0000 
      7 N          59.5410   40.4840    5.1700 N.am      8 SEL2        0.0000 
      8 N          57.6850   42.6240    5.4440 N.am      5 SEP2        0.0000 
      9 N          61.0275   38.0070    7.2380 N.am      2 SEC2        0.0000 
     10 N          60.3920   39.1940    7.0360 N.am      8 SEL2        0.0000 
     11 N          61.6630   36.8200    7.4400 N.am      5 SEP2        0.0000 
     12 N          57.8055   41.1155    6.1955 N.am      2 SEC2        0.0000 
     13 N          57.9260   39.6070    6.9470 N.am      8 SEL2        0.0000 
     14 CA         56.5730   38.2080    6.5135 C.3       3 GLC5        0.0000 
     15 CA         57.4130   38.5840    7.8410 C.3       9 GLL5        0.0000 
     16 CA         55.7330   37.8320    5.1860 C.3       6 GLP5        0.0000 
     17 CA         58.5850   36.4520   11.1555 C.3       3 GLC5        0.0000 
     18 CA         57.3010   38.0300   10.3500 C.3       9 GLL5        0.0000 
     19 CA         59.8690   34.8740   11.9610 C.3       6 GLP5        0.0000 
     20 N          58.4320   36.7560   12.1020 N.am      2 SEC2        0.0000 
     21 N          58.1070   38.0080   11.5450 N.am      8 SEL2        0.0000 
     22 N          58.7570   35.5040   12.6590 N.am      5 SEP2        0.0000 
     23 O          55.1030   37.1595   11.6275 O.2       1 ALC1        0.0000 
     24 O          55.4800   38.3630   11.8750 O.2       7 ALL1        0.0000 
     25 O          54.7260   35.9560   11.3800 O.2       4 ALP1        0.0000 
     26 O          54.0560   37.4165   11.8655 O.2       1 ALC1        0.0000 
     27 O          52.6320   36.4700   11.8560 O.2       4 ALP1        0.0000 
     28 CA         57.4375   40.2770   14.6100 C.3       3 GLC5        0.0000 
     29 CA         57.4830   42.0510   13.6250 C.3       9 GLL5        0.0000 
     30 CA         57.3920   38.5030   15.5950 C.3       6 GLP5        0.0000 
     31 CA         55.7160   43.1605   13.4880 C.3       3 GLC5        0.0000 
     32 CA         53.9490   44.2700   13.3510 C.3       6 GLP5        0.0000 
     33 N          58.2980   43.0995   15.8340 N.am      2 SEC2        0.0000 
     34 N          58.3000   42.8590   14.3350 N.am      8 SEL2        0.0000 
     35 N          58.2960   43.3400   17.3330 N.am      5 SEP2        0.0000 
     36 CA         61.0750   42.5785   14.1325 C.3       3 GLC5        0.0000 
     37 CA         59.3680   43.2440   13.5970 C.3       9 GLL5        0.0000 
     38 CA         62.7820   41.9130   14.6680 C.3       6 GLP5        0.0000 
     39 CA         59.7615   42.5210   15.4810 C.3       3 GLC5        0.0000 
     40 CA         60.1550   41.7980   17.3650 C.3       6 GLP5        0.0000 
     41 CA         60.1290   41.2005   13.2150 C.3       3 GLC5        0.0000 
     42 CA         60.8900   39.1570   12.8330 C.3       6 GLP5        0.0000 
     43 CA         58.6595   42.6580    9.6465 C.3       3 GLC5        0.0000 
     44 CA         58.7900   42.0890   11.6020 C.3       9 GLL5        0.0000 
     45 CA         58.5290   43.2270    7.6910 C.3       6 GLP5        0.0000 
     46 CA         59.5538   40.5125   12.3930 C.3       3 GLC5        0.0000 
@<TRIPOS>BOND
@<TRIPOS>SUBSTRUCTURE
     1 ALC1       23 GROUP        1 X    ALC  0     ROOT ALC X 1
     2 SEC2        1 GROUP        1 X    SEC  0     **** SEC X 2
     3 GLC5       14 GROUP        1 X    GLC  0     **** GLC X 6
     4 ALP1       25 GROUP        1 Y    ALP  0     ROOT ALP Y 8
     5 SEP2        3 GROUP        1 Y    SEP  0     **** SEP Y 9
     6 GLP5       16 GROUP        1 Y    GLP  0     **** GLP Y 13
     7 ALL1       24 GROUP        1 Z    ALL  0     ROOT ALL Z 15
     8 SEL2        2 GROUP        1 Z    SEL  0     **** SEL Z 16
     9 GLL5       15 GROUP        1 Z    GLL  0     **** GLL Z 20
@<TRIPOS>SET

