#    Name: 1jhr_P2P_2_ligand
#    Modification time : Tue Mar 25 08:56:06 2014

@<TRIPOS>MOLECULE
1jhr_P2P_2_ligand
   34    36     1     0     0
SMALL
NO_CHARGES


@<TRIPOS>ATOM
      1 P          59.2540   39.3410    6.0910 P.3       1 P2P990      0.0000 
      2 O1P        59.0920   38.0850    5.3070 O.co2     1 P2P990      0.0000 
      3 O2P        59.5410   40.4840    5.1700 O.co2     1 P2P990      0.0000 
      4 O3P        60.3920   39.1940    7.0360 O.co2     1 P2P990      0.0000 
      5 O6'        57.9260   39.6070    6.9470 O.3       1 P2P990      0.0000 
      6 C5'        57.4130   38.5840    7.8410 C.3       1 P2P990      0.0000 
      7 C4'        57.8610   38.9090    9.2510 C.3       1 P2P990      0.0000 
      8 O5'        57.4360   40.2720    9.5920 O.3       1 P2P990      0.0000 
      9 C3'        57.3010   38.0300   10.3500 C.3       1 P2P990      0.0000 
     10 O3'        58.1070   38.0080   11.5450 O.3       1 P2P990      0.0000 
     11 C2'        55.9760   38.7580   10.5820 C.3       1 P2P990      0.0000 
     12 O2'        55.4800   38.3630   11.8750 O.3       1 P2P990      0.0000 
     13 C1'        56.3260   40.2460   10.5340 C.3       1 P2P990      0.0000 
     14 C8         55.8330   40.7590   13.0120 C.2       1 P2P990      0.0000 
     15 N9         56.3240   41.4500   14.0780 N.2       1 P2P990      0.0000 
     16 C4         57.4830   42.0510   13.6250 C.ar      1 P2P990      0.0000 
     17 C5         57.6450   41.6470   12.3040 C.ar      1 P2P990      0.0000 
     18 N7         56.5910   40.8540   11.8950 N.pl3     1 P2P990      0.0000 
     19 N3         58.3000   42.8590   14.3350 N.ar      1 P2P990      0.0000 
     20 C2         59.3680   43.2440   13.5970 C.ar      1 P2P990      0.0000 
     21 N1         59.6390   42.9060   12.2850 N.ar      1 P2P990      0.0000 
     22 C6         58.7900   42.0890   11.6020 C.ar      1 P2P990      0.0000 
     23 O11        60.2630   44.0770   14.2110 O.3       1 P2P990      0.0000 
     24 H          57.7964   37.6003    7.5729 H         1 P2P990      0.0000 
     25 H          56.3243   38.5550    7.8206 H         1 P2P990      0.0000 
     26 H          58.9465   38.8735    9.3035 H         1 P2P990      0.0000 
     27 H          57.0779   37.0847    9.9444 H         1 P2P990      0.0000 
     28 H          55.3237   38.5229    9.7919 H         1 P2P990      0.0000 
     29 H          55.4632   40.7392   10.0673 H         1 P2P990      0.0000 
     30 H          54.9864   40.2293   13.0554 H         1 P2P990      0.0000 
     31 H          58.9459   41.8021   10.6526 H         1 P2P990      0.0000 
     32 H          57.4751   38.2308   12.2873 H         1 P2P990      0.0000 
     33 H          54.7361   37.7231   11.6823 H         1 P2P990      0.0000 
     34 H          61.1362   43.5911   14.1738 H         1 P2P990      0.0000 
@<TRIPOS>BOND
     1    2    1 ar   
     2    3    1 ar   
     3    4    1 ar   
     4    5    1 1    
     5    6    5 1    
     6    7    6 1    
     7   24    6 1    
     8   25    6 1    
     9    8    7 1    
    10    9    7 1    
    11   26    7 1    
    12   13    8 1    
    13   10    9 1    
    14   11    9 1    
    15   27    9 1    
    16   32   10 1    
    17   12   11 1    
    18   13   11 1    
    19   28   11 1    
    20   33   12 1    
    21   18   13 1    
    22   29   13 1    
    23   15   14 2    
    24   18   14 1    
    25   30   14 1    
    26   16   15 1    
    27   17   16 ar   
    28   19   16 ar   
    29   18   17 1    
    30   22   17 ar   
    31   20   19 ar   
    32   21   20 ar   
    33   23   20 1    
    34   22   21 ar   
    35   31   22 1    
    36   34   23 1    
@<TRIPOS>SUBSTRUCTURE
     1 P2P990      1 GROUP   
@<TRIPOS>SET

