#    Name: 6prc_CEB_1_INTS_M
#    Modification time : Tue Mar 25 13:55:40 2014

@<TRIPOS>MOLECULE
6prc_CEB_1_INTS_M
   53     0     9     0     0
SMALL
NO_CHARGES


@<TRIPOS>ATOM
      1 CA        130.2485   70.5235   -3.8445 C.3       3 GLC5        0.0000 
      2 CA        131.5570   69.7910   -2.2450 C.3       9 GLL5        0.0000 
      3 CA        128.9400   71.2560   -5.4440 C.3       6 GLP5        0.0000 
      4 CA        131.5260   68.7555    0.9670 C.3       3 GLC5        0.0000 
      5 CA        131.2300   69.8650   -0.5320 C.3       9 GLL5        0.0000 
      6 CA        131.8220   67.6460    2.4660 C.3       6 GLP5        0.0000 
      7 CA        131.3505   70.9360    1.1450 C.3       3 GLC5        0.0000 
      8 CA        131.4710   72.0070    2.8220 C.3       6 GLP5        0.0000 
      9 CA        132.9215   68.8805   -0.6260 C.3       3 GLC5        0.0000 
     10 CA        134.6130   67.8960   -0.7200 C.3       6 GLP5        0.0000 
     11 CA        133.4450   68.3000   -4.5345 C.3       3 GLC5        0.0000 
     12 CA        131.4760   68.6810   -4.1640 C.3       9 GLL5        0.0000 
     13 CA        135.4140   67.9190   -4.9050 C.3       6 GLP5        0.0000 
     14 CA        132.3195   68.9605   -6.0095 C.3       3 GLC5        0.0000 
     15 CA        133.1630   69.2400   -7.8550 C.3       6 GLP5        0.0000 
     16 CA        130.2080   69.9685   -4.8040 C.3       3 GLC5        0.0000 
     17 N         131.5665   70.0040   -6.1215 N.am      2 SEC2        0.0000 
     18 N         132.0950   69.6650   -4.8100 N.am      8 SEL2        0.0000 
     19 N         131.0380   70.3430   -7.4330 N.am      5 SEP2        0.0000 
     20 CA        133.9130   69.3215   -4.4800 C.3       3 GLC5        0.0000 
     21 CA        132.4120   70.7240   -4.0550 C.3       9 GLL5        0.0000 
     22 CA        132.7875   69.9820   -5.9550 C.3       3 GLC5        0.0000 
     23 CA        130.6760   70.9900   -4.7495 C.3       3 GLC5        0.0000 
     24 O         132.0730   67.1000   -6.0045 O.2       1 ALC1        0.0000 
     25 O         131.1100   67.5990   -4.8670 O.2       7 ALL1        0.0000 
     26 O         133.0360   66.6010   -7.1420 O.2       4 ALP1        0.0000 
     27 CA        127.1060   67.8740   -3.3390 C.3       3 GLC5        0.0000 
     28 CA        129.0590   66.8690   -3.7540 C.3       9 GLL5        0.0000 
     29 CA        125.1530   68.8790   -2.9240 C.3       6 GLP5        0.0000 
     30 O         133.5450   71.5975   -5.9485 O.2       1 ALC1        0.0000 
     31 O         133.0310   71.7780   -4.6260 O.2       7 ALL1        0.0000 
     32 O         134.0590   71.4170   -7.2710 O.2       4 ALP1        0.0000 
     33 CA        134.5725   72.9525   -2.3455 C.3       3 GLC5        0.0000 
     34 CA        133.4340   72.9970   -3.9230 C.3       9 GLL5        0.0000 
     35 CA        135.7110   72.9080   -0.7680 C.3       6 GLP5        0.0000 
     36 CA        132.3850   75.6655   -4.9250 C.3       3 GLC5        0.0000 
     37 CA        133.5770   74.1430   -4.8680 C.3       9 GLL5        0.0000 
     38 CA        131.1930   77.1880   -4.9820 C.3       6 GLP5        0.0000 
     39 CA        129.6008   70.4055   -1.5012 C.3       3 GLC5        0.0000 
     40 CA        127.8080   70.9830   -1.6140 C.3       6 GLP5        0.0000 
     41 CA        132.6527   66.4340   -3.3483 C.3       3 GLC5        0.0000 
     42 CA        130.4050   66.4260   -4.3700 C.3       9 GLL5        0.0000 
     43 CA        134.5170   66.8190   -2.8470 C.3       6 GLP5        0.0000 
     44 CA        132.0596   64.7435   -5.0394 C.3       3 GLC5        0.0000 
     45 CA        131.1720   65.6720   -3.3290 C.3       9 GLL5        0.0000 
     46 CA        133.5820   63.7710   -5.4110 C.3       6 GLP5        0.0000 
     47 CA        129.6363   65.9667   -7.4045 C.3       3 GLC5        0.0000 
     48 CA        130.2860   65.3830   -5.4860 C.3       9 GLL5        0.0000 
     49 CA        129.6780   66.8360   -9.2140 C.3       6 GLP5        0.0000 
     50 CA        135.4538   74.1405   -4.0608 C.3       3 GLC5        0.0000 
     51 CA        137.4020   74.7110   -3.7260 C.3       6 GLP5        0.0000 
     52 CA        132.4597   73.9880   -5.9618 C.3       3 GLC5        0.0000 
     53 CA        131.4140   74.4060   -7.5280 C.3       6 GLP5        0.0000 
@<TRIPOS>BOND
@<TRIPOS>SUBSTRUCTURE
     1 ALC1       24 GROUP        1 X    ALC  0     ROOT ALC X 1
     2 SEC2       17 GROUP        1 X    SEC  0     **** SEC X 2
     3 GLC5        1 GROUP        1 X    GLC  0     **** GLC X 6
     4 ALP1       26 GROUP        1 Y    ALP  0     ROOT ALP Y 8
     5 SEP2       19 GROUP        1 Y    SEP  0     **** SEP Y 9
     6 GLP5        3 GROUP        1 Y    GLP  0     **** GLP Y 13
     7 ALL1       25 GROUP        1 Z    ALL  0     ROOT ALL Z 15
     8 SEL2       18 GROUP        1 Z    SEL  0     **** SEL Z 16
     9 GLL5        2 GROUP        1 Z    GLL  0     **** GLL Z 20
@<TRIPOS>SET

