#    Name: 6prc_CEB_1_ligand
#    Modification time : Tue Mar 25 13:55:40 2014

@<TRIPOS>MOLECULE
6prc_CEB_1_ligand
   32    32     1     0     0
SMALL
NO_CHARGES


@<TRIPOS>ATOM
      1 N1        132.1620   70.8490   -2.7220 N.ar      1 CEB502      0.0000 
      2 C2        131.5570   69.7910   -2.2450 C.ar      1 CEB502      0.0000 
      3 CL2       131.2300   69.8650   -0.5320 Cl        1 CEB502      0.0000 
      4 N3        131.1660   68.6770   -2.8340 N.ar      1 CEB502      0.0000 
      5 C4        131.4760   68.6810   -4.1640 C.ar      1 CEB502      0.0000 
      6 N5        132.0950   69.6650   -4.8100 N.ar      1 CEB502      0.0000 
      7 C6        132.4120   70.7240   -4.0550 C.ar      1 CEB502      0.0000 
      8 N7        131.1100   67.5990   -4.8670 N.pl3     1 CEB502      0.0000 
      9 C8        130.4050   66.4260   -4.3700 C.3       1 CEB502      0.0000 
     10 C9        131.1720   65.6720   -3.3290 C.1       1 CEB502      0.0000 
     11 N9        131.7750   65.0570   -2.5430 N.1       1 CEB502      0.0000 
     12 C10       130.2860   65.3830   -5.4860 C.3       1 CEB502      0.0000 
     13 C11       128.9030   64.8120   -5.7040 C.3       1 CEB502      0.0000 
     14 C12       129.0590   66.8690   -3.7540 C.3       1 CEB502      0.0000 
     15 N13       133.0310   71.7780   -4.6260 N.pl3     1 CEB502      0.0000 
     16 C14       133.4340   72.9970   -3.9230 C.3       1 CEB502      0.0000 
     17 C15       133.5770   74.1430   -4.8680 C.3       1 CEB502      0.0000 
     18 H         131.3436   67.5515   -5.9179 H         1 CEB502      0.0000 
     19 H         130.9921   64.5535   -5.2664 H         1 CEB502      0.0000 
     20 H         130.6443   65.8413   -6.4328 H         1 CEB502      0.0000 
     21 H         133.2630   71.7663   -5.6603 H         1 CEB502      0.0000 
     22 H         134.3925   72.8373   -3.4044 H         1 CEB502      0.0000 
     23 H         132.6890   73.2562   -3.1542 H         1 CEB502      0.0000 
     24 H         128.8907   64.1415   -6.4458 H         1 CEB502      0.0000 
     25 H         128.5585   64.3508   -4.8863 H         1 CEB502      0.0000 
     26 H         128.2407   65.5229   -5.9405 H         1 CEB502      0.0000 
     27 H         129.1900   67.5059   -2.9942 H         1 CEB502      0.0000 
     28 H         128.4770   67.3287   -4.4248 H         1 CEB502      0.0000 
     29 H         128.5395   66.0919   -3.3988 H         1 CEB502      0.0000 
     30 H         133.8502   74.9814   -4.3964 H         1 CEB502      0.0000 
     31 H         134.2673   73.9627   -5.5687 H         1 CEB502      0.0000 
     32 H         132.7203   74.3406   -5.3445 H         1 CEB502      0.0000 
@<TRIPOS>BOND
     1    2    1 ar   
     2    7    1 ar   
     3    3    2 1    
     4    4    2 ar   
     5    5    4 ar   
     6    6    5 ar   
     7    8    5 1    
     8    7    6 ar   
     9   15    7 1    
    10    9    8 1    
    11   18    8 1    
    12   10    9 1    
    13   12    9 1    
    14   14    9 1    
    15   11   10 3    
    16   13   12 1    
    17   19   12 1    
    18   20   12 1    
    19   24   13 1    
    20   25   13 1    
    21   26   13 1    
    22   27   14 1    
    23   28   14 1    
    24   29   14 1    
    25   16   15 1    
    26   21   15 1    
    27   17   16 1    
    28   22   16 1    
    29   23   16 1    
    30   30   17 1    
    31   31   17 1    
    32   32   17 1    
@<TRIPOS>SUBSTRUCTURE
     1 CEB502      1 GROUP   
@<TRIPOS>SET

