#    Name: 3b6h_MXD_2_INTS_M
#    Modification time : Mon Mar 24 18:58:18 2014

@<TRIPOS>MOLECULE
3b6h_MXD_2_INTS_M
   25     0     6     0     0
SMALL
NO_CHARGES


@<TRIPOS>ATOM
      1 O          33.4900   29.0900   73.3250 O.2       1 ALC1        0.0000 
      2 O          35.1090   29.3140   73.2260 O.2       5 ALL1        0.0000 
      3 O          31.8710   28.8660   73.4240 O.2       3 ALP1        0.0000 
      4 CA         36.6105   25.3925   70.9195 C.3       2 GLC5        0.0000 
      5 CA         36.9500   27.2400   70.9080 C.3       6 GLL5        0.0000 
      6 CA         36.2710   23.5450   70.9310 C.3       4 GLP5        0.0000 
      7 CA         36.9750   25.1420   72.0195 C.3       2 GLC5        0.0000 
      8 CA         37.6790   26.7390   73.1080 C.3       6 GLL5        0.0000 
      9 CA         38.7375   23.8035   74.8905 C.3       2 GLC5        0.0000 
     10 CA         39.4990   25.0860   73.4060 C.3       6 GLL5        0.0000 
     11 CA         37.9760   22.5210   76.3750 C.3       4 GLP5        0.0000 
     12 CA         37.8850   24.3155   72.1685 C.3       2 GLC5        0.0000 
     13 CA         38.4875   25.6815   77.5265 C.3       2 GLC5        0.0000 
     14 CA         38.3000   26.1110   75.4290 C.3       6 GLL5        0.0000 
     15 CA         38.6750   25.2520   79.6240 C.3       4 GLP5        0.0000 
     16 CA         41.9860   24.1770   76.3690 C.3       2 GLC5        0.0000 
     17 CA         40.6620   25.2830   75.6510 C.3       6 GLL5        0.0000 
     18 CA         43.3100   23.0710   77.0870 C.3       4 GLP5        0.0000 
     19 CA         42.5165   24.4715   75.0705 C.3       2 GLC5        0.0000 
     20 CA         40.8300   25.2880   74.1350 C.3       6 GLL5        0.0000 
     21 CA         44.2030   23.6550   76.0060 C.3       4 GLP5        0.0000 
     22 CA         40.0870   25.7160   77.7848 C.3       2 GLC5        0.0000 
     23 CA         39.6580   26.3450   76.0920 C.3       6 GLL5        0.0000 
     24 CA         40.0140   25.6180   79.6980 C.3       4 GLP5        0.0000 
     25 CA         38.8983   24.1382   76.0404 C.3       2 GLC5        0.0000 
@<TRIPOS>BOND
@<TRIPOS>SUBSTRUCTURE
     1 ALC1        1 GROUP        1 X    ALC  0     ROOT ALC X 1
     2 GLC5        4 GROUP        1 X    GLC  0     **** GLC X 6
     3 ALP1        3 GROUP        1 Y    ALP  0     ROOT ALP Y 8
     4 GLP5        6 GROUP        1 Y    GLP  0     **** GLP Y 13
     5 ALL1        2 GROUP        1 Z    ALL  0     ROOT ALL Z 15
     6 GLL5        5 GROUP        1 Z    GLL  0     **** GLL Z 20
@<TRIPOS>SET

