#    Name: 3b6h_MXD_2_ligand
#    Modification time : Mon Mar 24 18:58:18 2014

@<TRIPOS>MOLECULE
3b6h_MXD_2_ligand
   30    31     1     0     0
SMALL
NO_CHARGES


@<TRIPOS>ATOM
      1 NAO        35.1090   29.3140   73.2260 N.pl3     1 MXD551      0.0000 
      2 CAE        35.9860   28.3950   72.7610 C.ar      1 MXD551      0.0000 
      3 CAF        36.7940   27.6780   73.6330 C.ar      1 MXD551      0.0000 
      4 NAC        36.0940   28.1640   71.3750 N.pl3     1 MXD551      0.0000 
      5 OAN        35.3640   28.8170   70.6000 O.2       1 MXD551      0.0000 
      6 CAA        36.9500   27.2400   70.9080 C.ar      1 MXD551      0.0000 
      7 NAM        37.0350   27.0110   69.5770 N.pl3     1 MXD551      0.0000 
      8 NAB        37.7430   26.5410   71.7660 N.ar      1 MXD551      0.0000 
      9 CAD        37.6790   26.7390   73.1080 C.ar      1 MXD551      0.0000 
     10 NAI        38.5010   25.9930   73.9790 N.3       1 MXD551      0.0000 
     11 CAG        39.4990   25.0860   73.4060 C.3       1 MXD551      0.0000 
     12 CAK        38.3000   26.1110   75.4290 C.3       1 MXD551      0.0000 
     13 CAL        39.6580   26.3450   76.0920 C.3       1 MXD551      0.0000 
     14 CAJ        40.6620   25.2830   75.6510 C.3       1 MXD551      0.0000 
     15 CAH        40.8300   25.2880   74.1350 C.3       1 MXD551      0.0000 
     16 H          34.1834   28.9843   73.4122 H         1 MXD551      0.0000 
     17 H          35.4640   30.2416   73.3423 H         1 MXD551      0.0000 
     18 H          36.7423   27.8342   74.6392 H         1 MXD551      0.0000 
     19 H          36.4303   27.5570   68.9971 H         1 MXD551      0.0000 
     20 H          37.6950   26.3161   69.2913 H         1 MXD551      0.0000 
     21 H          39.6524   25.2923   72.3491 H         1 MXD551      0.0000 
     22 H          39.1969   24.0479   73.5255 H         1 MXD551      0.0000 
     23 H          37.8700   25.2007   75.8366 H         1 MXD551      0.0000 
     24 H          37.6526   26.9509   75.6641 H         1 MXD551      0.0000 
     25 H          39.5410   26.3033   77.1728 H         1 MXD551      0.0000 
     26 H          40.0284   27.3290   75.8125 H         1 MXD551      0.0000 
     27 H          40.3112   24.3023   75.9711 H         1 MXD551      0.0000 
     28 H          41.6249   25.4821   76.1205 H         1 MXD551      0.0000 
     29 H          41.2657   26.2424   73.8237 H         1 MXD551      0.0000 
     30 H          41.5196   24.4888   73.8461 H         1 MXD551      0.0000 
@<TRIPOS>BOND
     1    2    1 1    
     2   16    1 1    
     3   17    1 1    
     4    3    2 ar   
     5    4    2 ar   
     6    9    3 ar   
     7   18    3 1    
     8    5    4 1    
     9    6    4 ar   
    10    7    6 1    
    11    8    6 ar   
    12   19    7 1    
    13   20    7 1    
    14    9    8 ar   
    15   10    9 1    
    16   11   10 1    
    17   12   10 1    
    18   15   11 1    
    19   21   11 1    
    20   22   11 1    
    21   13   12 1    
    22   23   12 1    
    23   24   12 1    
    24   14   13 1    
    25   25   13 1    
    26   26   13 1    
    27   15   14 1    
    28   27   14 1    
    29   28   14 1    
    30   29   15 1    
    31   30   15 1    
@<TRIPOS>SUBSTRUCTURE
     1 MXD551      1 GROUP   
@<TRIPOS>SET

