#    Name: 2uuj_896_1_INTS_M
#    Modification time : Tue Mar 25 00:12:22 2014

@<TRIPOS>MOLECULE
2uuj_896_1_INTS_M
   71     0     9     0     0
SMALL
NO_CHARGES


@<TRIPOS>ATOM
      1 CA          4.4600   16.4450   43.9505 C.3       3 GLC5        0.0000 
      2 CA          2.4710   16.5160   44.6280 C.3       9 GLL5        0.0000 
      3 CA          6.4490   16.3740   43.2730 C.3       6 GLP5        0.0000 
      4 CA          2.4825   20.6480   46.0965 C.3       3 GLC5        0.0000 
      5 CA          0.9080   19.2700   46.1500 C.3       9 GLL5        0.0000 
      6 CA          4.0570   22.0260   46.0430 C.3       6 GLP5        0.0000 
      7 CA         -0.3785   20.5370   43.9365 C.3       3 GLC5        0.0000 
      8 CA          1.2410   19.6320   44.6720 C.3       9 GLL5        0.0000 
      9 CA         -1.9980   21.4420   43.2010 C.3       6 GLP5        0.0000 
     10 CA          0.9090   19.5465   42.6130 C.3       3 GLC5        0.0000 
     11 CA          0.5770   19.4610   40.5540 C.3       6 GLP5        0.0000 
     12 CA          2.5695   20.6510   44.0850 C.3       3 GLC5        0.0000 
     13 CA          3.8980   21.6700   43.4980 C.3       6 GLP5        0.0000 
     14 CA         -1.0710   18.8400   48.5705 C.3       3 GLC5        0.0000 
     15 CA         -0.5010   19.2200   46.4570 C.3       9 GLL5        0.0000 
     16 CA         -1.6410   18.4600   50.6840 C.3       6 GLP5        0.0000 
     17 CA         -1.2495   20.3310   44.8290 C.3       3 GLC5        0.0000 
     18 CA         -0.8575   20.8040   47.3255 C.3       3 GLC5        0.0000 
     19 CA         -1.2140   22.3880   48.1940 C.3       6 GLP5        0.0000 
     20 CA          0.1295   19.7635   52.0940 C.3       3 GLC5        0.0000 
     21 CA          1.4600   20.5950   51.2000 C.3       9 GLL5        0.0000 
     22 CA         -1.2010   18.9320   52.9880 C.3       6 GLP5        0.0000 
     23 CA          2.2885   19.5865   52.5210 C.3       3 GLC5        0.0000 
     24 CA          3.1170   18.5780   53.8420 C.3       6 GLP5        0.0000 
     25 N           6.4595   20.7645   47.5975 N.am      2 SEC2        0.0000 
     26 N           5.9100   20.5270   49.0960 N.am      8 SEL2        0.0000 
     27 N           7.0090   21.0020   46.0990 N.am      5 SEP2        0.0000 
     28 CA          9.8020   21.2810   52.7315 C.3       3 GLC5        0.0000 
     29 CA          8.6570   21.8830   51.2110 C.3       9 GLL5        0.0000 
     30 CA         10.9470   20.6790   54.2520 C.3       6 GLP5        0.0000 
     31 O           7.0865   23.4590   48.7520 O.2       1 ALC1        0.0000 
     32 O           8.1000   22.5040   48.9730 O.2       7 ALL1        0.0000 
     33 O           6.0730   24.4140   48.5310 O.2       4 ALP1        0.0000 
     34 O          12.6505   21.9340   46.0365 O.2       1 ALC1        0.0000 
     35 O          11.3350   22.7990   46.6230 O.2       7 ALL1        0.0000 
     36 O          13.9660   21.0690   45.4500 O.2       4 ALP1        0.0000 
     37 O          12.5380   23.0315   46.0720 O.2       1 ALC1        0.0000 
     38 O          13.7410   23.2640   45.5210 O.2       4 ALP1        0.0000 
     39 CA         12.0880   23.5885   48.1720 C.3       3 GLC5        0.0000 
     40 CA         11.2470   21.7960   47.3580 C.3       9 GLL5        0.0000 
     41 CA         12.9290   25.3810   48.9860 C.3       6 GLP5        0.0000 
     42 CA          1.2920   16.5970   43.2720 C.3       3 GLC5        0.0000 
     43 CA          0.7220   16.5600   41.5030 C.3       6 GLP5        0.0000 
     44 CA          0.4743   21.1680   46.3420 C.3       3 GLC5        0.0000 
     45 CA         -0.1260   22.8850   47.2730 C.3       6 GLP5        0.0000 
     46 CA          3.8150   20.4985   47.1778 C.3       3 GLC5        0.0000 
     47 CA          2.8940   18.7330   48.3220 C.3       9 GLL5        0.0000 
     48 CA          4.1040   21.1887   47.8610 C.3       3 GLC5        0.0000 
     49 CA          4.5480   20.1400   49.2410 C.3       9 GLL5        0.0000 
     50 CA          2.6519   22.1445   51.5386 C.3       3 GLC5        0.0000 
     51 CA          3.7540   20.5630   50.1170 C.3       9 GLL5        0.0000 
     52 CA          3.0210   23.7990   52.3880 C.3       6 GLP5        0.0000 
     53 CA          1.6567   21.4663   49.0306 C.3       3 GLC5        0.0000 
     54 CA          1.1530   23.1010   48.1050 C.3       6 GLP5        0.0000 
     55 CA          6.2540   22.0145   48.3505 C.3       3 GLC5        0.0000 
     56 CA          6.4400   21.2380   50.3060 C.3       9 GLL5        0.0000 
     57 CA          5.3220   22.6690   46.5870 C.3       6 GLP5        0.0000 
     58 CA          7.2915   22.9325   47.1705 C.3       3 GLC5        0.0000 
     59 CA          9.3470   23.7180   47.3340 C.3       9 GLL5        0.0000 
     60 CA         11.4305   24.5907   47.9450 C.3       3 GLC5        0.0000 
     61 CA         10.2830   23.7297   45.0165 C.3       3 GLC5        0.0000 
     62 CA         10.5170   23.8830   46.4740 C.3       9 GLL5        0.0000 
     63 CA         10.6340   23.6590   43.1290 C.3       6 GLP5        0.0000 
     64 CA          9.5865   25.1157   48.2625 C.3       3 GLC5        0.0000 
     65 CA          9.2840   26.6920   49.4110 C.3       6 GLP5        0.0000 
     66 CA          8.9650   21.9217   46.2425 C.3       3 GLC5        0.0000 
     67 CA          8.0410   20.3040   45.3710 C.3       6 GLP5        0.0000 
     68 CA         11.9400   21.6833   49.5590 C.3       3 GLC5        0.0000 
     69 CA         10.1970   21.6450   48.2560 C.3       9 GLL5        0.0000 
     70 CA         13.1580   21.6460   51.3110 C.3       6 GLP5        0.0000 
     71 CA          9.3815   21.0122   46.5890 C.3       3 GLC5        0.0000 
@<TRIPOS>BOND
@<TRIPOS>SUBSTRUCTURE
     1 ALC1       31 GROUP        1 X    ALC  0     ROOT ALC X 1
     2 SEC2       25 GROUP        1 X    SEC  0     **** SEC X 2
     3 GLC5        1 GROUP        1 X    GLC  0     **** GLC X 6
     4 ALP1       33 GROUP        1 Y    ALP  0     ROOT ALP Y 8
     5 SEP2       27 GROUP        1 Y    SEP  0     **** SEP Y 9
     6 GLP5        3 GROUP        1 Y    GLP  0     **** GLP Y 13
     7 ALL1       32 GROUP        1 Z    ALL  0     ROOT ALL Z 15
     8 SEL2       26 GROUP        1 Z    SEL  0     **** SEL Z 16
     9 GLL5        2 GROUP        1 Z    GLL  0     **** GLL Z 20
@<TRIPOS>SET

