#    Name: 2uuj_896_1_ligand
#    Modification time : Tue Mar 25 00:12:22 2014

@<TRIPOS>MOLECULE
2uuj_896_1_ligand
   56    57     1     0     0
SMALL
NO_CHARGES


@<TRIPOS>ATOM
      1 O2          3.0680   16.5320   47.5040 O.2       1 8961250     0.0000 
      2 C21         2.4260   17.7310   47.3190 C.2       1 8961250     0.0000 
      3 N2          1.5150   17.9020   46.4560 N.am      1 8961250     0.0000 
      4 C6          1.2530   16.7520   45.4540 C.3       1 8961250     0.0000 
      5 C5          2.4710   16.5160   44.6280 C.3       1 8961250     0.0000 
      6 C22         0.9080   19.2700   46.1500 C.3       1 8961250     0.0000 
      7 C24         1.2410   19.6320   44.6720 C.3       1 8961250     0.0000 
      8 C23        -0.5010   19.2200   46.4570 C.3       1 8961250     0.0000 
      9 C17         2.8940   18.7330   48.3220 C.ar      1 8961250     0.0000 
     10 C16         4.2520   19.2090   48.3030 C.ar      1 8961250     0.0000 
     11 C14         4.5480   20.1400   49.2410 C.ar      1 8961250     0.0000 
     12 C15         3.7540   20.5630   50.1170 C.ar      1 8961250     0.0000 
     13 C19         2.4570   20.2070   50.2400 C.ar      1 8961250     0.0000 
     14 C20         1.4600   20.5950   51.2000 C.3       1 8961250     0.0000 
     15 C18         2.0380   19.1730   49.2230 C.ar      1 8961250     0.0000 
     16 O3          5.9100   20.5270   49.0960 O.3       1 8961250     0.0000 
     17 C1          6.4400   21.2380   50.3060 C.3       1 8961250     0.0000 
     18 C7          7.9320   21.4820   49.9220 C.3       1 8961250     0.0000 
     19 C8          8.6570   21.8830   51.2110 C.3       1 8961250     0.0000 
     20 N3          8.1000   22.5040   48.9730 N.pl3     1 8961250     0.0000 
     21 C9          9.1750   22.6740   48.1740 C.ar      1 8961250     0.0000 
     22 C10         9.3470   23.7180   47.3340 C.ar      1 8961250     0.0000 
     23 C11        10.5170   23.8830   46.4740 C.ar      1 8961250     0.0000 
     24 N4         11.3350   22.7990   46.6230 N.pl3     1 8961250     0.0000 
     25 C12        11.2470   21.7960   47.3580 C.ar      1 8961250     0.0000 
     26 C13        10.1970   21.6450   48.2560 C.ar      1 8961250     0.0000 
     27 H           0.4132   17.0329   44.8246 H         1 8961250     0.0000 
     28 H           0.9955   15.8601   46.0184 H         1 8961250     0.0000 
     29 H           1.4226   19.9894   46.7857 H         1 8961250     0.0000 
     30 H           4.8938   18.8540   47.6335 H         1 8961250     0.0000 
     31 H           4.1072   21.2836   50.8626 H         1 8961250     0.0000 
     32 H           1.0611   18.8627   49.3032 H         1 8961250     0.0000 
     33 H           6.4084   20.6151   51.1563 H         1 8961250     0.0000 
     34 H           5.9679   22.1722   50.4342 H         1 8961250     0.0000 
     35 H           8.3425   20.5389   49.6071 H         1 8961250     0.0000 
     36 H           7.2879   23.2030   48.8916 H         1 8961250     0.0000 
     37 H           8.6246   24.4776   47.2622 H         1 8961250     0.0000 
     38 H          10.6391   24.6404   45.9212 H         1 8961250     0.0000 
     39 H          12.2399   22.8604   45.9422 H         1 8961250     0.0000 
     40 H          11.9580   21.0045   47.3453 H         1 8961250     0.0000 
     41 H          10.1232   20.9132   48.9054 H         1 8961250     0.0000 
     42 H           3.2588   16.2662   45.1910 H         1 8961250     0.0000 
     43 H           2.3353   15.7761   43.9691 H         1 8961250     0.0000 
     44 H           2.7294   17.3292   44.1065 H         1 8961250     0.0000 
     45 H           2.2274   19.6718   44.5126 H         1 8961250     0.0000 
     46 H           0.8675   18.9605   44.0320 H         1 8961250     0.0000 
     47 H           0.8663   20.5226   44.4143 H         1 8961250     0.0000 
     48 H          -0.6640   18.9969   47.4181 H         1 8961250     0.0000 
     49 H          -0.9512   20.0949   46.2787 H         1 8961250     0.0000 
     50 H          -0.9757   18.5295   45.9112 H         1 8961250     0.0000 
     51 H           1.7263   20.3492   52.1320 H         1 8961250     0.0000 
     52 H           1.3005   21.5822   51.1915 H         1 8961250     0.0000 
     53 H           0.5804   20.1544   51.0206 H         1 8961250     0.0000 
     54 H           9.6274   22.0635   51.0505 H         1 8961250     0.0000 
     55 H           8.2675   22.7113   51.6139 H         1 8961250     0.0000 
     56 H           8.6032   21.1659   51.9058 H         1 8961250     0.0000 
@<TRIPOS>BOND
     1    2    1 2    
     2    3    2 am   
     3    9    2 1    
     4    4    3 1    
     5    6    3 1    
     6    5    4 1    
     7   27    4 1    
     8   28    4 1    
     9   42    5 1    
    10   43    5 1    
    11   44    5 1    
    12    7    6 1    
    13    8    6 1    
    14   29    6 1    
    15   45    7 1    
    16   46    7 1    
    17   47    7 1    
    18   48    8 1    
    19   49    8 1    
    20   50    8 1    
    21   10    9 ar   
    22   15    9 ar   
    23   11   10 ar   
    24   30   10 1    
    25   12   11 ar   
    26   16   11 1    
    27   13   12 ar   
    28   31   12 1    
    29   14   13 1    
    30   15   13 ar   
    31   51   14 1    
    32   52   14 1    
    33   53   14 1    
    34   32   15 1    
    35   17   16 1    
    36   18   17 1    
    37   33   17 1    
    38   34   17 1    
    39   19   18 1    
    40   20   18 1    
    41   35   18 1    
    42   54   19 1    
    43   55   19 1    
    44   56   19 1    
    45   21   20 1    
    46   36   20 1    
    47   22   21 ar   
    48   26   21 ar   
    49   23   22 ar   
    50   37   22 1    
    51   24   23 ar   
    52   38   23 1    
    53   25   24 ar   
    54   39   24 1    
    55   26   25 ar   
    56   40   25 1    
    57   41   26 1    
@<TRIPOS>SUBSTRUCTURE
     1 8961250     1 GROUP   
@<TRIPOS>SET

