#    Name: 3ba9_3B9_2_INTS_M
#    Modification time : Mon Mar 24 19:12:37 2014

@<TRIPOS>MOLECULE
3ba9_3B9_2_INTS_M
   63     0     9     0     0
SMALL
NO_CHARGES


@<TRIPOS>ATOM
      1 CA         18.0560   32.1975   52.6860 C.3       3 GLC5        0.0000 
      2 CA         17.8870   33.4150   51.3530 C.3       9 GLL5        0.0000 
      3 CA         18.2250   30.9800   54.0190 C.3       6 GLP5        0.0000 
      4 CA         17.6505   34.7860   53.0205 C.3       3 GLC5        0.0000 
      5 CA         17.4140   36.1570   54.6880 C.3       6 GLP5        0.0000 
      6 CA         19.8325   30.4895   51.0935 C.3       3 GLC5        0.0000 
      7 CA         20.0550   32.6660   50.7850 C.3       9 GLL5        0.0000 
      8 CA         19.6100   28.3130   51.4020 C.3       6 GLP5        0.0000 
      9 CA         19.0075   33.7800   53.8655 C.3       3 GLC5        0.0000 
     10 CA         19.7320   34.6910   52.0810 C.3       9 GLL5        0.0000 
     11 CA         18.2830   32.8690   55.6500 C.3       6 GLP5        0.0000 
     12 CA         18.5730   35.4240   53.3845 C.3       3 GLC5        0.0000 
     13 CA         21.9210   33.1145   53.0440 C.3       3 GLC5        0.0000 
     14 CA         22.0370   34.0510   51.5720 C.3       9 GLL5        0.0000 
     15 CA         21.8050   32.1780   54.5160 C.3       6 GLP5        0.0000 
     16 CA         22.7165   34.0865   53.7065 C.3       3 GLC5        0.0000 
     17 CA         22.5040   35.1820   52.2640 C.3       9 GLL5        0.0000 
     18 CA         22.9290   32.9910   55.1490 C.3       6 GLP5        0.0000 
     19 CA         21.1060   40.0475   51.4260 C.3       3 GLC5        0.0000 
     20 CA         21.9350   38.4960   52.6100 C.3       9 GLL5        0.0000 
     21 CA         20.2770   41.5990   50.2420 C.3       6 GLP5        0.0000 
     22 N          17.7515   35.5930   52.6675 N.am      2 SEC2        0.0000 
     23 N          18.3880   34.5030   52.0200 N.am      8 SEL2        0.0000 
     24 N          17.1150   36.6830   53.3150 N.am      5 SEP2        0.0000 
     25 O          15.4950   34.3055   51.6390 O.2       1 ALC1        0.0000 
     26 O          16.5210   33.2410   51.3000 O.2       7 ALL1        0.0000 
     27 O          14.4690   35.3700   51.9780 O.2       4 ALP1        0.0000 
     28 O          15.7780   31.7400   50.8665 O.2       1 ALC1        0.0000 
     29 O          15.0350   30.2390   50.4330 O.2       4 ALP1        0.0000 
     30 O          20.9930   30.5305   49.3730 O.2       1 ALC1        0.0000 
     31 O          20.8430   31.7150   50.1490 O.2       7 ALL1        0.0000 
     32 O          21.1430   29.3460   48.5970 O.2       4 ALP1        0.0000 
     33 CA         19.2320   36.8795   54.7520 C.3       3 GLC5        0.0000 
     34 CA         21.0500   37.6020   54.8160 C.3       9 GLL5        0.0000 
     35 CA         22.4500   37.6450   56.4960 C.3       3 GLC5        0.0000 
     36 CA         23.8500   37.6880   58.1760 C.3       6 GLP5        0.0000 
     37 CA         20.8050   38.9815   55.9730 C.3       3 GLC5        0.0000 
     38 CA         20.5600   40.3610   57.1300 C.3       6 GLP5        0.0000 
     39 CA         25.2685   37.8055   54.2560 C.3       3 GLC5        0.0000 
     40 CA         23.4340   37.2080   54.2100 C.3       9 GLL5        0.0000 
     41 CA         27.1030   38.4030   54.3020 C.3       6 GLP5        0.0000 
     42 CA         22.8985   35.5820   55.1995 C.3       3 GLC5        0.0000 
     43 CA         22.3630   33.9560   56.1890 C.3       6 GLP5        0.0000 
     44 CA         24.3385   37.3110   55.9270 C.3       3 GLC5        0.0000 
     45 CA         25.2430   37.4140   57.6440 C.3       6 GLP5        0.0000 
     46 N          25.8650   39.3490   52.0170 N.am      2 SEC2        0.0000 
     47 N          24.3800   39.9300   52.1410 N.am      8 SEL2        0.0000 
     48 N          27.3500   38.7680   51.8930 N.am      5 SEP2        0.0000 
     49 CA         25.6970   44.8995   52.2090 C.3       3 GLC5        0.0000 
     50 CA         25.1820   43.7350   53.6990 C.3       9 GLL5        0.0000 
     51 CA         26.2120   46.0640   50.7190 C.3       6 GLP5        0.0000 
     52 CA         28.9305   45.7915   53.5985 C.3       3 GLC5        0.0000 
     53 CA         27.9550   46.8530   55.3230 C.3       9 GLL5        0.0000 
     54 CA         29.9060   44.7300   51.8740 C.3       6 GLP5        0.0000 
     55 CA         19.2858   32.1003   52.5708 C.3       3 GLC5        0.0000 
     56 CA         20.6380   33.7750   51.4600 C.3       9 GLL5        0.0000 
     57 CA         20.9221   33.0669   53.0589 C.3       3 GLC5        0.0000 
     58 CA         21.8870   35.5487   55.1075 C.3       3 GLC5        0.0000 
     59 CA         21.5490   36.0470   52.8570 C.3       9 GLL5        0.0000 
     60 CA         25.8762   46.4778   52.5820 C.3       3 GLC5        0.0000 
     61 CA         25.5730   46.3510   54.9100 C.3       9 GLL5        0.0000 
     62 CA         26.7445   47.0683   52.3895 C.3       3 GLC5        0.0000 
     63 CA         26.6670   48.2180   53.7250 C.3       9 GLL5        0.0000 
@<TRIPOS>BOND
@<TRIPOS>SUBSTRUCTURE
     1 ALC1       25 GROUP        1 X    ALC  0     ROOT ALC X 1
     2 SEC2       22 GROUP        1 X    SEC  0     **** SEC X 2
     3 GLC5        1 GROUP        1 X    GLC  0     **** GLC X 6
     4 ALP1       27 GROUP        1 Y    ALP  0     ROOT ALP Y 8
     5 SEP2       24 GROUP        1 Y    SEP  0     **** SEP Y 9
     6 GLP5        3 GROUP        1 Y    GLP  0     **** GLP Y 13
     7 ALL1       26 GROUP        1 Z    ALL  0     ROOT ALL Z 15
     8 SEL2       23 GROUP        1 Z    SEL  0     **** SEL Z 16
     9 GLL5        2 GROUP        1 Z    GLL  0     **** GLL Z 20
@<TRIPOS>SET

