#    Name: 3ba9_3B9_2_ligand
#    Modification time : Mon Mar 24 19:12:37 2014

@<TRIPOS>MOLECULE
3ba9_3B9_2_ligand
   56    59     1     0     0
SMALL
NO_CHARGES


@<TRIPOS>ATOM
      1 C15        22.9720   43.6620   54.8110 C.ar      1 3B9501      0.0000 
      2 C1         17.8870   33.4150   51.3530 C.ar      1 3B9501      0.0000 
      3 C2         20.0550   32.6660   50.7850 C.ar      1 3B9501      0.0000 
      4 C3         19.7320   34.6910   52.0810 C.ar      1 3B9501      0.0000 
      5 C8         21.9950   37.3150   53.6150 C.3       1 3B9501      0.0000 
      6 C4         20.6380   33.7750   51.4600 C.ar      1 3B9501      0.0000 
      7 C5         22.0370   34.0510   51.5720 C.ar      1 3B9501      0.0000 
      8 C6         22.5040   35.1820   52.2640 C.ar      1 3B9501      0.0000 
      9 C7         21.5490   36.0470   52.8570 C.ar      1 3B9501      0.0000 
     10 C9         21.9350   38.4960   52.6100 C.3       1 3B9501      0.0000 
     11 N1         18.6910   32.5000   50.7390 N.ar      1 3B9501      0.0000 
     12 N2         18.3880   34.5030   52.0200 N.ar      1 3B9501      0.0000 
     13 N3         20.1900   35.7810   52.7480 N.ar      1 3B9501      0.0000 
     14 N4         16.5210   33.2410   51.3000 N.pl3     1 3B9501      0.0000 
     15 N5         20.8430   31.7150   50.1490 N.pl3     1 3B9501      0.0000 
     16 C10        21.0500   37.6020   54.8160 C.3       1 3B9501      0.0000 
     17 C11        23.4340   37.2080   54.2100 C.3       1 3B9501      0.0000 
     18 N6         22.3090   39.8100   53.1280 N.am      1 3B9501      0.0000 
     19 C12        23.4980   40.4360   52.8530 C.2       1 3B9501      0.0000 
     20 O1         24.3800   39.9300   52.1410 O.2       1 3B9501      0.0000 
     21 C13        23.7370   41.7760   53.4270 C.ar      1 3B9501      0.0000 
     22 C14        22.7420   42.3760   54.2550 C.ar      1 3B9501      0.0000 
     23 C16        24.1920   44.3500   54.5400 C.ar      1 3B9501      0.0000 
     24 C17        25.1820   43.7350   53.6990 C.ar      1 3B9501      0.0000 
     25 C18        24.9530   42.4550   53.1480 C.ar      1 3B9501      0.0000 
     26 O2         24.3920   45.6230   55.1140 O.3       1 3B9501      0.0000 
     27 C19        25.5730   46.3510   54.9100 C.ar      1 3B9501      0.0000 
     28 C20        26.8080   46.0630   55.5880 C.ar      1 3B9501      0.0000 
     29 C21        27.9550   46.8530   55.3230 C.ar      1 3B9501      0.0000 
     30 C22        27.8870   47.9270   54.3950 C.ar      1 3B9501      0.0000 
     31 C23        26.6670   48.2180   53.7250 C.ar      1 3B9501      0.0000 
     32 C24        25.5080   47.4320   53.9800 C.ar      1 3B9501      0.0000 
     33 H          22.2676   44.0961   55.4039 H         1 3B9501      0.0000 
     34 H          22.7052   33.4036   51.1345 H         1 3B9501      0.0000 
     35 H          23.4903   35.3782   52.3401 H         1 3B9501      0.0000 
     36 H          20.8964   38.5193   52.1954 H         1 3B9501      0.0000 
     37 H          22.5825   38.2185   51.7411 H         1 3B9501      0.0000 
     38 H          15.9687   34.0722   51.3641 H         1 3B9501      0.0000 
     39 H          16.2010   32.2987   51.2020 H         1 3B9501      0.0000 
     40 H          20.3549   30.9561   49.7179 H         1 3B9501      0.0000 
     41 H          21.8303   31.8714   50.1772 H         1 3B9501      0.0000 
     42 H          21.5986   40.2749   53.7463 H         1 3B9501      0.0000 
     43 H          21.8748   41.8833   54.4438 H         1 3B9501      0.0000 
     44 H          26.0495   44.2337   53.5060 H         1 3B9501      0.0000 
     45 H          25.6537   42.0181   52.5534 H         1 3B9501      0.0000 
     46 H          26.8490   45.2970   56.2505 H         1 3B9501      0.0000 
     47 H          28.8344   46.6506   55.8002 H         1 3B9501      0.0000 
     48 H          28.7156   48.4912   54.2086 H         1 3B9501      0.0000 
     49 H          26.6217   48.9893   53.0620 H         1 3B9501      0.0000 
     50 H          24.6359   47.6384   53.5022 H         1 3B9501      0.0000 
     51 H          21.0422   36.8466   55.4712 H         1 3B9501      0.0000 
     52 H          21.3254   38.4222   55.3175 H         1 3B9501      0.0000 
     53 H          20.1053   37.7429   54.5198 H         1 3B9501      0.0000 
     54 H          24.1199   37.0565   53.4982 H         1 3B9501      0.0000 
     55 H          23.6969   38.0403   54.6980 H         1 3B9501      0.0000 
     56 H          23.5124   36.4508   54.8585 H         1 3B9501      0.0000 
@<TRIPOS>BOND
     1   22    1 ar   
     2   23    1 ar   
     3   33    1 1    
     4   11    2 ar   
     5   12    2 ar   
     6   14    2 1    
     7    6    3 ar   
     8   11    3 ar   
     9   15    3 1    
    10    6    4 ar   
    11   12    4 ar   
    12   13    4 ar   
    13    9    5 1    
    14   10    5 1    
    15   16    5 1    
    16   17    5 1    
    17    7    6 ar   
    18    8    7 ar   
    19   34    7 1    
    20    9    8 ar   
    21   35    8 1    
    22   13    9 ar   
    23   18   10 1    
    24   36   10 1    
    25   37   10 1    
    26   38   14 1    
    27   39   14 1    
    28   40   15 1    
    29   41   15 1    
    30   51   16 1    
    31   52   16 1    
    32   53   16 1    
    33   54   17 1    
    34   55   17 1    
    35   56   17 1    
    36   19   18 am   
    37   42   18 1    
    38   20   19 2    
    39   21   19 1    
    40   22   21 ar   
    41   25   21 ar   
    42   43   22 1    
    43   24   23 ar   
    44   26   23 1    
    45   25   24 ar   
    46   44   24 1    
    47   45   25 1    
    48   27   26 1    
    49   28   27 ar   
    50   32   27 ar   
    51   29   28 ar   
    52   46   28 1    
    53   30   29 ar   
    54   47   29 1    
    55   31   30 ar   
    56   48   30 1    
    57   32   31 ar   
    58   49   31 1    
    59   50   32 1    
@<TRIPOS>SUBSTRUCTURE
     1 3B9501      1 GROUP   
@<TRIPOS>SET

