#    Name: 3p23_ADP_4_INTS_M
#    Modification time : Tue Mar 25 05:50:02 2014

@<TRIPOS>MOLECULE
3p23_ADP_4_INTS_M
   59     0    15     0     0
SMALL
NO_CHARGES


@<TRIPOS>ATOM
      1 NZ          0.0405  -34.8505   -8.5130 N.4       3 LYC4        0.0000 
      2 NZ          1.1190  -33.9220   -8.1760 N.4      13 LYL4        0.0000 
      3 NZ         -1.0380  -35.7790   -8.8500 N.4       8 LYP4        0.0000 
      4 N           0.0405  -34.8505   -8.5130 N.am      2 SEC2        0.0000 
      5 N           1.1190  -33.9220   -8.1760 N.am     12 SEL2        0.0000 
      6 N          -1.0380  -35.7790   -8.8500 N.am      7 SEP2        0.0000 
      7 Zn          2.9700  -33.5565  -11.5395 Zn        4 ZIC7        0.0000 
      8 Zn          2.1990  -33.7560  -10.4440 Zn       14 ZIL7        0.0000 
      9 Zn          3.7410  -33.3570  -12.6350 Zn        9 ZIP7        0.0000 
     10 NZ          5.7705  -35.3865  -10.5635 N.4       3 LYC4        0.0000 
     11 NZ          4.6430  -34.6970  -10.2940 N.4      13 LYL4        0.0000 
     12 NZ          6.8980  -36.0760  -10.8330 N.4       8 LYP4        0.0000 
     13 N           5.7705  -35.3865  -10.5635 N.am      2 SEC2        0.0000 
     14 N           4.6430  -34.6970  -10.2940 N.am     12 SEL2        0.0000 
     15 N           6.8980  -36.0760  -10.8330 N.am      7 SEP2        0.0000 
     16 NZ          6.4710  -34.8445   -9.5960 N.4       3 LYC4        0.0000 
     17 NZ          6.0440  -33.6130   -8.3590 N.4      13 LYL4        0.0000 
     18 CA          4.8050  -31.5935   -7.4155 C.3       5 GLC5        0.0000 
     19 CA          4.8800  -30.9970   -9.2360 C.3      15 GLL5        0.0000 
     20 CA          4.7300  -32.1900   -5.5950 C.3      10 GLP5        0.0000 
     21 CA          6.9700  -31.3925   -9.5745 C.3       5 GLC5        0.0000 
     22 CA          9.0600  -31.7880   -9.9130 C.3      10 GLP5        0.0000 
     23 CA          5.7785  -28.2950   -9.3170 C.3       5 GLC5        0.0000 
     24 CA          4.8180  -29.7180  -10.0630 C.3      15 GLL5        0.0000 
     25 CA          6.7390  -26.8720   -8.5710 C.3      10 GLP5        0.0000 
     26 CA          6.2805  -27.9030  -10.3030 C.3       5 GLC5        0.0000 
     27 CA          5.8220  -28.9340  -12.0350 C.3      15 GLL5        0.0000 
     28 CA          7.9150  -29.5050  -11.7500 C.3       5 GLC5        0.0000 
     29 CA         10.0080  -30.0760  -11.4650 C.3      10 GLP5        0.0000 
     30 CA          9.3955  -32.0180  -15.9140 C.3       5 GLC5        0.0000 
     31 CA          7.9240  -30.6050  -16.2440 C.3      15 GLL5        0.0000 
     32 CA         10.8670  -33.4310  -15.5840 C.3      10 GLP5        0.0000 
     33 CA          7.0790  -29.7240  -18.1320 C.3       5 GLC5        0.0000 
     34 CA          6.2340  -28.8430  -20.0200 C.3      10 GLP5        0.0000 
     35 O           9.1515  -31.5775  -18.2880 O.2       1 ALC1        0.0000 
     36 O           8.2630  -31.7170  -16.9360 O.2      11 ALL1        0.0000 
     37 O          10.0400  -31.4380  -19.6400 O.2       6 ALP1        0.0000 
     38 N           8.3735  -28.7790  -18.1800 N.am      2 SEC2        0.0000 
     39 N           8.1710  -29.3650  -16.7260 N.am     12 SEL2        0.0000 
     40 N           8.5760  -28.1930  -19.6340 N.am      7 SEP2        0.0000 
     41 CA          9.0490  -27.3755  -14.9850 C.3       5 GLC5        0.0000 
     42 CA          7.8340  -28.2610  -16.0360 C.3      15 GLL5        0.0000 
     43 CA         10.2640  -26.4900  -13.9340 C.3      10 GLP5        0.0000 
     44 CA          9.7215  -29.1945  -15.7040 C.3       5 GLC5        0.0000 
     45 CA         11.6090  -30.1280  -15.3720 C.3      10 GLP5        0.0000 
     46 CA          9.4155  -27.3730  -16.7470 C.3       5 GLC5        0.0000 
     47 CA         10.9970  -26.4850  -17.4580 C.3      10 GLP5        0.0000 
     48 CA          7.5775  -28.0255  -18.1450 C.3       5 GLC5        0.0000 
     49 CA          7.3210  -27.7900  -20.2540 C.3      10 GLP5        0.0000 
     50 CA          8.5960  -27.9800  -14.0825 C.3       5 GLC5        0.0000 
     51 CA          6.9280  -29.4700  -14.2310 C.3      15 GLL5        0.0000 
     52 CA          2.6430  -29.0370  -13.1253 C.3       5 GLC5        0.0000 
     53 CA          4.3170  -28.8710  -12.2420 C.3      15 GLL5        0.0000 
     54 CA          1.2600  -28.7770  -14.5640 C.3      10 GLP5        0.0000 
     55 CA          8.5525  -30.0857  -13.0215 C.3       5 GLC5        0.0000 
     56 CA          9.6020  -30.3955  -15.4782 C.3       5 GLC5        0.0000 
     57 CA          7.2660  -30.7210  -14.9250 C.3      15 GLL5        0.0000 
     58 CA          6.3340  -31.3725  -16.6227 C.3       5 GLC5        0.0000 
     59 CA          5.0730  -32.0820  -17.6610 C.3      10 GLP5        0.0000 
@<TRIPOS>BOND
@<TRIPOS>SUBSTRUCTURE
     1 ALC1       35 GROUP        1 X    ALC  0     ROOT ALC X 1
     2 SEC2        4 GROUP        1 X    SEC  0     **** SEC X 2
     3 LYC4        1 GROUP        1 X    LYC  0     **** LYC X 4
     4 ZIC7        7 GROUP        1 X    ZIC  0     **** ZIC X 5
     5 GLC5       18 GROUP        1 X    GLC  0     **** GLC X 6
     6 ALP1       37 GROUP        1 Y    ALP  0     ROOT ALP Y 8
     7 SEP2        6 GROUP        1 Y    SEP  0     **** SEP Y 9
     8 LYP4        3 GROUP        1 Y    LYP  0     **** LYP Y 11
     9 ZIP7        9 GROUP        1 Y    ZIP  0     **** ZIP Y 12
    10 GLP5       20 GROUP        1 Y    GLP  0     **** GLP Y 13
    11 ALL1       36 GROUP        1 Z    ALL  0     ROOT ALL Z 15
    12 SEL2        5 GROUP        1 Z    SEL  0     **** SEL Z 16
    13 LYL4        2 GROUP        1 Z    LYL  0     **** LYL Z 18
    14 ZIL7        8 GROUP        1 Z    ZIL  0     **** ZIL Z 19
    15 GLL5       19 GROUP        1 Z    GLL  0     **** GLL Z 20
@<TRIPOS>SET

