#    Name: 3p23_ADP_4_ligand
#    Modification time : Tue Mar 25 05:50:03 2014

@<TRIPOS>MOLECULE
3p23_ADP_4_ligand
   39    41     1     0     0
SMALL
NO_CHARGES


@<TRIPOS>ATOM
      1 PB          2.0790  -33.1640   -9.0610 P.3       1 ADP1002     0.0000 
      2 O1B         1.1190  -33.9220   -8.1760 O.co2     1 ADP1002     0.0000 
      3 O2B         2.1990  -33.7560  -10.4440 O.co2     1 ADP1002     0.0000 
      4 O3B         1.9160  -31.6620   -9.0350 O.co2     1 ADP1002     0.0000 
      5 PA          4.8560  -33.5910   -9.2880 P.3       1 ADP1002     0.0000 
      6 O1A         4.6430  -34.6970  -10.2940 O.co2     1 ADP1002     0.0000 
      7 O2A         6.0440  -33.6130   -8.3590 O.co2     1 ADP1002     0.0000 
      8 O3A         3.5220  -33.4440   -8.3950 O.3       1 ADP1002     0.0000 
      9 O5'         4.9110  -32.1710  -10.0440 O.3       1 ADP1002     0.0000 
     10 C5'         4.8800  -30.9970   -9.2360 C.3       1 ADP1002     0.0000 
     11 C4'         4.8180  -29.7180  -10.0630 C.3       1 ADP1002     0.0000 
     12 O4'         6.0530  -29.5120  -10.7490 O.3       1 ADP1002     0.0000 
     13 C3'         3.7350  -29.7230  -11.1310 C.3       1 ADP1002     0.0000 
     14 O3'         2.5100  -29.1670  -10.6470 O.3       1 ADP1002     0.0000 
     15 C2'         4.3170  -28.8710  -12.2420 C.3       1 ADP1002     0.0000 
     16 O2'         3.8650  -27.5160  -12.1260 O.3       1 ADP1002     0.0000 
     17 C1'         5.8220  -28.9340  -12.0350 C.3       1 ADP1002     0.0000 
     18 N9          6.3570  -29.8350  -13.0790 N.pl3     1 ADP1002     0.0000 
     19 C8          6.3150  -31.1800  -13.0220 C.2       1 ADP1002     0.0000 
     20 N7          6.8650  -31.7340  -14.1320 N.2       1 ADP1002     0.0000 
     21 C5          7.2660  -30.7210  -14.9250 C.ar      1 ADP1002     0.0000 
     22 C6          7.9240  -30.6050  -16.2440 C.ar      1 ADP1002     0.0000 
     23 N6          8.2630  -31.7170  -16.9360 N.pl3     1 ADP1002     0.0000 
     24 N1          8.1710  -29.3650  -16.7260 N.ar      1 ADP1002     0.0000 
     25 C2          7.8340  -28.2610  -16.0360 C.ar      1 ADP1002     0.0000 
     26 N3          7.2340  -28.2920  -14.8300 N.ar      1 ADP1002     0.0000 
     27 C4          6.9280  -29.4700  -14.2310 C.ar      1 ADP1002     0.0000 
     28 H           5.7750  -30.9297   -8.5849 H         1 ADP1002     0.0000 
     29 H           4.0045  -30.9966   -8.5556 H         1 ADP1002     0.0000 
     30 H           4.6247  -28.8802   -9.3976 H         1 ADP1002     0.0000 
     31 H           3.6322  -30.7192  -11.4959 H         1 ADP1002     0.0000 
     32 H           4.0837  -29.3128  -13.1736 H         1 ADP1002     0.0000 
     33 H           6.2225  -27.9693  -12.1292 H         1 ADP1002     0.0000 
     34 H           5.9372  -31.6971  -12.2774 H         1 ADP1002     0.0000 
     35 H           8.6782  -31.5674  -17.8333 H         1 ADP1002     0.0000 
     36 H           8.0683  -32.5899  -16.4888 H         1 ADP1002     0.0000 
     37 H           8.0530  -27.3091  -16.4656 H         1 ADP1002     0.0000 
     38 H           2.1021  -29.8880  -10.0869 H         1 ADP1002     0.0000 
     39 H           4.6667  -27.0010  -11.8226 H         1 ADP1002     0.0000 
@<TRIPOS>BOND
     1    2    1 ar   
     2    3    1 ar   
     3    4    1 ar   
     4    8    1 1    
     5    6    5 ar   
     6    7    5 ar   
     7    8    5 1    
     8    9    5 1    
     9   10    9 1    
    10   11   10 1    
    11   28   10 1    
    12   29   10 1    
    13   12   11 1    
    14   13   11 1    
    15   30   11 1    
    16   17   12 1    
    17   14   13 1    
    18   15   13 1    
    19   31   13 1    
    20   38   14 1    
    21   16   15 1    
    22   17   15 1    
    23   32   15 1    
    24   39   16 1    
    25   18   17 1    
    26   33   17 1    
    27   19   18 1    
    28   27   18 1    
    29   20   19 2    
    30   34   19 1    
    31   21   20 1    
    32   22   21 ar   
    33   27   21 ar   
    34   23   22 1    
    35   24   22 ar   
    36   35   23 1    
    37   36   23 1    
    38   25   24 ar   
    39   26   25 ar   
    40   37   25 1    
    41   27   26 ar   
@<TRIPOS>SUBSTRUCTURE
     1 ADP1002     1 GROUP   
@<TRIPOS>SET

