#    Name: 4efu_EFU_1_INTS_M
#    Modification time : Mon Mar 24 17:43:49 2014

@<TRIPOS>MOLECULE
4efu_EFU_1_INTS_M
   64     0     9     0     0
SMALL
NO_CHARGES


@<TRIPOS>ATOM
      1 CA         -2.5440   12.8065   26.0710 C.3       3 GLC5        0.0000 
      2 CA         -2.0350   11.4780   25.0190 C.3       9 GLL5        0.0000 
      3 CA         -3.0530   14.1350   27.1230 C.3       6 GLP5        0.0000 
      4 O          -4.2885   11.7925   24.9790 O.2       1 ALC1        0.0000 
      5 O          -3.2590   11.2620   25.5550 O.2       7 ALL1        0.0000 
      6 O          -5.3180   12.3230   24.4030 O.2       4 ALP1        0.0000 
      7 N          -1.9080   12.2580   28.1490 N.am      2 SEC2        0.0000 
      8 N          -1.2970   11.0130   28.0170 N.am      8 SEL2        0.0000 
      9 N          -2.5190   13.5030   28.2810 N.am      5 SEP2        0.0000 
     10 N          -2.9025   10.9440   28.0955 N.am      2 SEC2        0.0000 
     11 N          -4.5080   10.8750   28.1740 N.am      5 SEP2        0.0000 
     12 CA         -0.8935   14.4745   22.9135 C.3       3 GLC5        0.0000 
     13 CA         -0.6930   12.4380   23.2730 C.3       9 GLL5        0.0000 
     14 CA         -1.0940   16.5110   22.5540 C.3       6 GLP5        0.0000 
     15 CA          3.3660   13.4980   22.0460 C.3       3 GLC5        0.0000 
     16 CA          3.0700   12.1190   23.2900 C.3       9 GLL5        0.0000 
     17 CA          3.6620   14.8770   20.8020 C.3       6 GLP5        0.0000 
     18 CA          2.5400   13.0965   26.3265 C.3       3 GLC5        0.0000 
     19 CA          3.7460   12.7600   24.4760 C.3       9 GLL5        0.0000 
     20 CA          1.3340   13.4330   28.1770 C.3       6 GLP5        0.0000 
     21 CA          4.5545   14.7910   28.2050 C.3       3 GLC5        0.0000 
     22 CA          5.1760   13.9040   26.6000 C.3       9 GLL5        0.0000 
     23 CA          3.9330   15.6780   29.8100 C.3       6 GLP5        0.0000 
     24 CA         -2.4105    8.3165   27.4630 C.3       3 GLC5        0.0000 
     25 CA         -0.7630    8.3780   28.4660 C.3       9 GLL5        0.0000 
     26 CA         -4.0580    8.2550   26.4600 C.3       6 GLP5        0.0000 
     27 CA         -2.0145    7.6105   29.5225 C.3       3 GLC5        0.0000 
     28 CA         -3.2660    6.8430   30.5790 C.3       6 GLP5        0.0000 
     29 CA          0.2685    9.8640   29.2765 C.3       3 GLC5        0.0000 
     30 CA          1.3000   11.3500   30.0870 C.3       6 GLP5        0.0000 
     31 CA         -2.2095    8.1965   26.2330 C.3       3 GLC5        0.0000 
     32 CA         -0.3610    8.1380   26.0060 C.3       9 GLL5        0.0000 
     33 CA          5.0170    7.7440   26.1005 C.3       3 GLC5        0.0000 
     34 CA          3.6370    8.0370   24.4320 C.3       9 GLL5        0.0000 
     35 CA          6.3970    7.4510   27.7690 C.3       6 GLP5        0.0000 
     36 CA          2.2355   10.1630   27.5350 C.3       3 GLC5        0.0000 
     37 CA          2.1600    8.3360   26.3330 C.3       9 GLL5        0.0000 
     38 CA          2.3110   11.9900   28.7370 C.3       6 GLP5        0.0000 
     39 CA          5.0050   16.4725   23.5015 C.3       3 GLC5        0.0000 
     40 CA          5.1260   16.1190   25.4630 C.3       9 GLL5        0.0000 
     41 CA          4.8840   16.8260   21.5400 C.3       6 GLP5        0.0000 
     42 CA          3.5930   17.1840   24.9155 C.3       3 GLC5        0.0000 
     43 CA          2.0600   18.2490   24.3680 C.3       6 GLP5        0.0000 
     44 CA          5.6775   17.6665   25.8315 C.3       3 GLC5        0.0000 
     45 CA          6.2290   19.2140   26.2000 C.3       6 GLP5        0.0000 
     46 CA         -2.7545    9.7700   25.9165 C.3       3 GLC5        0.0000 
     47 CA         -0.8670   11.0920   25.7270 C.3       9 GLL5        0.0000 
     48 CA          0.5520   12.3320   26.8178 C.3       3 GLC5        0.0000 
     49 CA         -3.3822   10.7515   23.3418 C.3       3 GLC5        0.0000 
     50 CA         -4.7710    9.6720   22.2580 C.3       6 GLP5        0.0000 
     51 CA         -0.4006   10.9245   22.3999 C.3       3 GLC5        0.0000 
     52 CA         -1.9520   12.1840   23.8320 C.3       9 GLL5        0.0000 
     53 CA         -0.3860    9.6880   21.0520 C.3       6 GLP5        0.0000 
     54 CA          4.8063   10.8347   27.3675 C.3       3 GLC5        0.0000 
     55 CA          4.8740   12.5480   26.6140 C.3       9 GLL5        0.0000 
     56 CA          5.1020    9.4060   28.6480 C.3       6 GLP5        0.0000 
     57 CA          3.5771   12.5369   27.5403 C.3       3 GLC5        0.0000 
     58 CA          4.1470   11.9790   25.5600 C.3       9 GLL5        0.0000 
     59 CA          0.7558    8.7603   22.4635 C.3       3 GLC5        0.0000 
     60 CA          2.5390    7.8170   23.6040 C.3       9 GLL5        0.0000 
     61 CA          3.9518    8.8630   27.3540 C.3       3 GLC5        0.0000 
     62 CA         -1.2664   13.3985   25.2318 C.3       3 GLC5        0.0000 
     63 CA          0.4920   12.0110   23.9430 C.3       9 GLL5        0.0000 
     64 CA         -1.9370   14.8310   26.3370 C.3       6 GLP5        0.0000 
@<TRIPOS>BOND
@<TRIPOS>SUBSTRUCTURE
     1 ALC1        4 GROUP        1 X    ALC  0     ROOT ALC X 1
     2 SEC2        7 GROUP        1 X    SEC  0     **** SEC X 2
     3 GLC5        1 GROUP        1 X    GLC  0     **** GLC X 6
     4 ALP1        6 GROUP        1 Y    ALP  0     ROOT ALP Y 8
     5 SEP2        9 GROUP        1 Y    SEP  0     **** SEP Y 9
     6 GLP5        3 GROUP        1 Y    GLP  0     **** GLP Y 13
     7 ALL1        5 GROUP        1 Z    ALL  0     ROOT ALL Z 15
     8 SEL2        8 GROUP        1 Z    SEL  0     **** SEL Z 16
     9 GLL5        2 GROUP        1 Z    GLL  0     **** GLL Z 20
@<TRIPOS>SET

