#    Name: 4efu_EFU_1_ligand
#    Modification time : Mon Mar 24 17:43:49 2014

@<TRIPOS>MOLECULE
4efu_EFU_1_ligand
   52    55     1     0     0
SMALL
NO_CHARGES


@<TRIPOS>ATOM
      1 C1         -0.8670   11.0920   25.7270 C.ar      1 EFU301      0.0000 
      2 C2         -2.0350   11.4780   25.0190 C.ar      1 EFU301      0.0000 
      3 C3         -1.9520   12.1840   23.8320 C.ar      1 EFU301      0.0000 
      4 C4          0.4070   11.3700   25.1900 C.ar      1 EFU301      0.0000 
      5 O5         -3.2590   11.2620   25.5550 O.3       1 EFU301      0.0000 
      6 C6         -0.9670   10.3650   27.0270 C.2       1 EFU301      0.0000 
      7 N7         -0.6750    9.0290   27.1470 N.am      1 EFU301      0.0000 
      8 O8         -1.2970   11.0130   28.0170 O.2       1 EFU301      0.0000 
      9 C9          0.4920   12.0110   23.9430 C.ar      1 EFU301      0.0000 
     10 C10        -0.6930   12.4380   23.2730 C.ar      1 EFU301      0.0000 
     11 N11        -0.3000   13.0240   22.1060 N.pl3     1 EFU301      0.0000 
     12 N12         1.0920   12.9610   22.0130 N.2       1 EFU301      0.0000 
     13 C13         1.6040   12.4290   23.0900 C.2       1 EFU301      0.0000 
     14 C14         3.0700   12.1190   23.2900 C.3       1 EFU301      0.0000 
     15 C15         3.7460   12.7600   24.4760 C.ar      1 EFU301      0.0000 
     16 C16         4.1470   11.9790   25.5600 C.ar      1 EFU301      0.0000 
     17 C17         5.1760   13.9040   26.6000 C.ar      1 EFU301      0.0000 
     18 C18         4.7870   14.6690   25.5020 C.ar      1 EFU301      0.0000 
     19 C19         4.8740   12.5480   26.6140 C.ar      1 EFU301      0.0000 
     20 C20         4.0760   14.1130   24.4390 C.ar      1 EFU301      0.0000 
     21 C21        -0.7630    8.3780   28.4660 C.3       1 EFU301      0.0000 
     22 C22        -0.3610    8.1380   26.0060 C.3       1 EFU301      0.0000 
     23 C23         1.0610    8.1090   25.5040 C.ar      1 EFU301      0.0000 
     24 C24         1.2560    7.8480   24.1460 C.ar      1 EFU301      0.0000 
     25 C25         3.6370    8.0370   24.4320 C.ar      1 EFU301      0.0000 
     26 C26         3.4430    8.3040   25.7870 C.ar      1 EFU301      0.0000 
     27 C27         2.5390    7.8170   23.6040 C.ar      1 EFU301      0.0000 
     28 C28         2.1600    8.3360   26.3330 C.ar      1 EFU301      0.0000 
     29 C29         5.1260   16.1190   25.4630 C.3       1 EFU301      0.0000 
     30 H          -2.7958   12.5200   23.3620 H         1 EFU301      0.0000 
     31 H           1.2463   11.1105   25.6976 H         1 EFU301      0.0000 
     32 H          -0.8702   13.4191   21.4463 H         1 EFU301      0.0000 
     33 H           3.6252   12.4058   22.3616 H         1 EFU301      0.0000 
     34 H           3.1933   11.0090   23.3627 H         1 EFU301      0.0000 
     35 H           3.9088   10.9786   25.5883 H         1 EFU301      0.0000 
     36 H           5.6741   14.3343   27.3794 H         1 EFU301      0.0000 
     37 H           5.1819   11.9570   27.3961 H         1 EFU301      0.0000 
     38 H           3.8008   14.6913   23.6432 H         1 EFU301      0.0000 
     39 H          -1.0328    8.3978   25.1389 H         1 EFU301      0.0000 
     40 H          -0.6611    7.0834   26.2676 H         1 EFU301      0.0000 
     41 H           0.4396    7.6764   23.5384 H         1 EFU301      0.0000 
     42 H           4.5877    8.0029   24.0465 H         1 EFU301      0.0000 
     43 H           4.2599    8.4803   26.3940 H         1 EFU301      0.0000 
     44 H           2.6733    7.6341   22.6060 H         1 EFU301      0.0000 
     45 H           2.0263    8.5234   27.3281 H         1 EFU301      0.0000 
     46 H          -0.5290    7.4070   28.4173 H         1 EFU301      0.0000 
     47 H          -0.1419    8.7962   29.1288 H         1 EFU301      0.0000 
     48 H          -1.6846    8.4386   28.8493 H         1 EFU301      0.0000 
     49 H           6.1139   16.2705   25.4968 H         1 EFU301      0.0000 
     50 H           4.7908   16.5565   24.6286 H         1 EFU301      0.0000 
     51 H           4.7269   16.6146   26.2344 H         1 EFU301      0.0000 
     52 H          -3.8961   11.7287   24.9416 H         1 EFU301      0.0000 
@<TRIPOS>BOND
     1    2    1 ar   
     2    4    1 ar   
     3    6    1 1    
     4    3    2 ar   
     5    5    2 1    
     6   10    3 ar   
     7   30    3 1    
     8    9    4 ar   
     9   31    4 1    
    10   52    5 1    
    11    7    6 am   
    12    8    6 2    
    13   21    7 1    
    14   22    7 1    
    15   10    9 ar   
    16   13    9 1    
    17   11   10 1    
    18   12   11 1    
    19   32   11 1    
    20   13   12 2    
    21   14   13 1    
    22   15   14 1    
    23   33   14 1    
    24   34   14 1    
    25   16   15 ar   
    26   20   15 ar   
    27   19   16 ar   
    28   35   16 1    
    29   18   17 ar   
    30   19   17 ar   
    31   36   17 1    
    32   20   18 ar   
    33   29   18 1    
    34   37   19 1    
    35   38   20 1    
    36   46   21 1    
    37   47   21 1    
    38   48   21 1    
    39   23   22 1    
    40   39   22 1    
    41   40   22 1    
    42   24   23 ar   
    43   28   23 ar   
    44   27   24 ar   
    45   41   24 1    
    46   26   25 ar   
    47   27   25 ar   
    48   42   25 1    
    49   28   26 ar   
    50   43   26 1    
    51   44   27 1    
    52   45   28 1    
    53   49   29 1    
    54   50   29 1    
    55   51   29 1    
@<TRIPOS>SUBSTRUCTURE
     1 EFU301      1 GROUP   
@<TRIPOS>SET

