#    Name: 3o8g_O8G_1_INTS_M
#    Modification time : Tue Mar 25 03:22:13 2014

@<TRIPOS>MOLECULE
3o8g_O8G_1_INTS_M
   40     0     6     0     0
SMALL
NO_CHARGES


@<TRIPOS>ATOM
      1 CA         32.8260   70.1845    9.8955 C.3       2 GLC5        0.0000 
      2 CA         33.5260   71.9530   10.9420 C.3       6 GLL5        0.0000 
      3 CA         32.1260   68.4160    8.8490 C.3       4 GLP5        0.0000 
      4 CA         31.5135   73.4015    9.9920 C.3       2 GLC5        0.0000 
      5 CA         33.5350   73.3910   10.4800 C.3       6 GLL5        0.0000 
      6 CA         29.4920   73.4120    9.5040 C.3       4 GLP5        0.0000 
      7 CA         31.1245   74.8875   14.0885 C.3       2 GLC5        0.0000 
      8 CA         32.1080   73.9630   12.6280 C.3       6 GLL5        0.0000 
      9 CA         30.1410   75.8120   15.5490 C.3       4 GLP5        0.0000 
     10 CA         30.5670   71.6755   13.8240 C.3       2 GLC5        0.0000 
     11 CA         32.1780   72.4660   12.9940 C.3       6 GLL5        0.0000 
     12 CA         28.9560   70.8850   14.6540 C.3       4 GLP5        0.0000 
     13 N          33.7895   75.8570    8.9445 N.am      1 SEC2        0.0000 
     14 N          32.4000   75.7790    9.4590 N.am      5 SEL2        0.0000 
     15 N          35.1790   75.9350    8.4300 N.am      3 SEP2        0.0000 
     16 CA         29.9920   75.4570   10.1465 C.3       2 GLC5        0.0000 
     17 CA         31.0870   76.3590   11.3450 C.3       6 GLL5        0.0000 
     18 CA         28.8970   74.5550    8.9480 C.3       4 GLP5        0.0000 
     19 CA         29.6095   76.9735   12.4530 C.3       2 GLC5        0.0000 
     20 CA         28.1320   77.5880   13.5610 C.3       4 GLP5        0.0000 
     21 CA         31.5690   67.9780   12.9355 C.3       2 GLC5        0.0000 
     22 CA         33.4380   66.9920   12.7280 C.3       6 GLL5        0.0000 
     23 CA         29.7000   68.9640   13.1430 C.3       4 GLP5        0.0000 
     24 CA         34.2145   66.2940   15.5755 C.3       2 GLC5        0.0000 
     25 CA         33.2400   65.7390   13.8520 C.3       6 GLL5        0.0000 
     26 CA         35.1890   66.8490   17.2990 C.3       4 GLP5        0.0000 
     27 CA         34.5592   72.4010    9.0770 C.3       2 GLC5        0.0000 
     28 CA         35.5880   72.1300    7.4430 C.3       4 GLP5        0.0000 
     29 CA         30.6440   73.0952   11.8220 C.3       2 GLC5        0.0000 
     30 CA         29.1450   72.9760   10.8330 C.3       4 GLP5        0.0000 
     31 CA         35.1359   73.1902   11.7763 C.3       2 GLC5        0.0000 
     32 CA         33.5050   71.8790   12.5000 C.3       6 GLL5        0.0000 
     33 CA         36.7540   74.1050   11.9470 C.3       4 GLP5        0.0000 
     34 CA         31.5537   65.7752   10.6232 C.3       2 GLC5        0.0000 
     35 CA         33.4810   66.4560   11.5080 C.3       6 GLL5        0.0000 
     36 CA         29.6940   65.7680    9.7370 C.3       4 GLP5        0.0000 
     37 CA         32.7644   67.1662   10.3317 C.3       2 GLC5        0.0000 
     38 CA         33.3460   65.1090   11.5110 C.3       6 GLL5        0.0000 
     39 CA         34.8961   64.2826   11.7291 C.3       2 GLC5        0.0000 
     40 CA         36.4790   63.4260   11.3520 C.3       4 GLP5        0.0000 
@<TRIPOS>BOND
@<TRIPOS>SUBSTRUCTURE
     1 SEC2       13 GROUP        1 X    SEC  0     ROOT SEC X 2
     2 GLC5        1 GROUP        1 X    GLC  0     **** GLC X 6
     3 SEP2       15 GROUP        1 Y    SEP  0     ROOT SEP Y 9
     4 GLP5        3 GROUP        1 Y    GLP  0     **** GLP Y 13
     5 SEL2       14 GROUP        1 Z    SEL  0     ROOT SEL Z 16
     6 GLL5        2 GROUP        1 Z    GLL  0     **** GLL Z 20
@<TRIPOS>SET

