#    Name: 3o8g_O8G_1_ligand
#    Modification time : Tue Mar 25 03:22:13 2014

@<TRIPOS>MOLECULE
3o8g_O8G_1_ligand
   36    38     1     0     0
SMALL
NO_CHARGES


@<TRIPOS>ATOM
      1 C1         33.5260   71.9530   10.9420 C.3       1 O8G217      0.0000 
      2 C4         33.5350   73.3910   10.4800 C.3       1 O8G217      0.0000 
      3 N7         32.5430   74.2860   11.1860 N.am      1 O8G217      0.0000 
      4 C8         32.1080   73.9630   12.6280 C.3       1 O8G217      0.0000 
      5 C11        32.1780   72.4660   12.9940 C.3       1 O8G217      0.0000 
      6 C14        33.5050   71.8790   12.5000 C.3       1 O8G217      0.0000 
      7 C16        32.0750   75.4260   10.6050 C.2       1 O8G217      0.0000 
      8 O17        32.4000   75.7790    9.4590 O.2       1 O8G217      0.0000 
      9 C18        31.0870   76.3590   11.3450 C.3       1 O8G217      0.0000 
     10 N21        33.4510   69.3670   12.2690 N.2       1 O8G217      0.0000 
     11 C22        33.5700   70.4560   13.0110 C.2       1 O8G217      0.0000 
     12 O23        33.7250   70.1320   14.3310 O.3       1 O8G217      0.0000 
     13 N24        33.6800   68.7530   14.3610 N.2       1 O8G217      0.0000 
     14 C25        33.5130   68.3280   13.1060 C.2       1 O8G217      0.0000 
     15 C26        33.4380   66.9920   12.7280 C.2       1 O8G217      0.0000 
     16 C27        33.4810   66.4560   11.5080 C.2       1 O8G217      0.0000 
     17 C29        33.3460   65.1090   11.5110 C.2       1 O8G217      0.0000 
     18 C31        33.2130   64.4960   12.7030 C.2       1 O8G217      0.0000 
     19 S33        33.2400   65.7390   13.8520 S.3       1 O8G217      0.0000 
     20 N34        30.4250   77.2490   10.3440 N.2       1 O8G217      0.0000 
     21 N36        30.9770   78.1920   10.0460 N.1       1 O8G217      0.0000 
     22 N37        31.5150   79.1250    9.7240 N.1       1 O8G217      0.0000 
     23 H          34.4158   71.4398   10.5892 H         1 O8G217      0.0000 
     24 H          32.6440   71.4433   10.5655 H         1 O8G217      0.0000 
     25 H          33.3340   73.4206    9.3897 H         1 O8G217      0.0000 
     26 H          34.5544   73.8066   10.6151 H         1 O8G217      0.0000 
     27 H          31.0748   74.3149   12.7746 H         1 O8G217      0.0000 
     28 H          32.7453   74.5279   13.3262 H         1 O8G217      0.0000 
     29 H          31.3557   71.9473   12.5212 H         1 O8G217      0.0000 
     30 H          32.1145   72.3610   14.0681 H         1 O8G217      0.0000 
     31 H          34.3009   72.4538   12.8934 H         1 O8G217      0.0000 
     32 H          31.6431   76.9442   12.0653 H         1 O8G217      0.0000 
     33 H          30.3539   75.7470   11.8535 H         1 O8G217      0.0000 
     34 H          33.6004   66.9858   10.6693 H         1 O8G217      0.0000 
     35 H          33.3454   64.5764   10.6340 H         1 O8G217      0.0000 
     36 H          33.1211   63.6685   13.0248 H         1 O8G217      0.0000 
@<TRIPOS>BOND
     1    2    1 1    
     2    6    1 1    
     3   23    1 1    
     4   24    1 1    
     5    3    2 1    
     6   25    2 1    
     7   26    2 1    
     8    4    3 1    
     9    7    3 am   
    10    5    4 1    
    11   27    4 1    
    12   28    4 1    
    13    6    5 1    
    14   29    5 1    
    15   30    5 1    
    16   11    6 1    
    17   31    6 1    
    18    8    7 2    
    19    9    7 1    
    20   20    9 1    
    21   32    9 1    
    22   33    9 1    
    23   11   10 2    
    24   14   10 1    
    25   12   11 1    
    26   13   12 1    
    27   14   13 2    
    28   15   14 1    
    29   16   15 2    
    30   19   15 1    
    31   17   16 1    
    32   34   16 1    
    33   18   17 2    
    34   35   17 1    
    35   19   18 1    
    36   36   18 1    
    37   21   20 2    
    38   22   21 2    
@<TRIPOS>SUBSTRUCTURE
     1 O8G217      1 GROUP   
@<TRIPOS>SET

