#    Name: 4gi2_NAP_2_INTS_M
#    Modification time : Mon Mar 24 22:14:16 2014

@<TRIPOS>MOLECULE
4gi2_NAP_2_INTS_M
   73     0     9     0     0
SMALL
NO_CHARGES


@<TRIPOS>ATOM
      1 N          21.4050   77.5535   13.2490 N.am      1 SEC2        0.0000 
      2 N          21.8500   79.1770   13.0710 N.am      7 SEL2        0.0000 
      3 N          20.9600   75.9300   13.4270 N.am      4 SEP2        0.0000 
      4 CA         27.2205   76.9340   14.4360 C.3       3 GLC5        0.0000 
      5 CA         26.1980   78.5610   13.3100 C.3       9 GLL5        0.0000 
      6 CA         28.2430   75.3070   15.5620 C.3       6 GLP5        0.0000 
      7 CA         33.6460   79.7110   15.0885 C.3       3 GLC5        0.0000 
      8 CA         33.1200   80.0150   12.9570 C.3       9 GLL5        0.0000 
      9 CA         34.1720   79.4070   17.2200 C.3       6 GLP5        0.0000 
     10 CA         33.4675   78.7140   15.5560 C.3       3 GLC5        0.0000 
     11 CA         32.7630   78.0210   13.8920 C.3       9 GLL5        0.0000 
     12 CA         32.5890   77.6710   11.9180 C.3       3 GLC5        0.0000 
     13 CA         32.4150   77.3210    9.9440 C.3       6 GLP5        0.0000 
     14 N          22.2775   74.9175   11.5125 N.am      1 SEC2        0.0000 
     15 N          22.9550   76.0580   11.0170 N.am      7 SEL2        0.0000 
     16 N          21.6000   73.7770   12.0080 N.am      4 SEP2        0.0000 
     17 CA         26.1345   76.5580    5.5975 C.3       3 GLC5        0.0000 
     18 CA         24.7890   77.1370    6.8830 C.3       9 GLL5        0.0000 
     19 CA         27.4800   75.9790    4.3120 C.3       6 GLP5        0.0000 
     20 CA         22.8505   78.8690    3.4265 C.3       3 GLC5        0.0000 
     21 CA         23.1680   77.9210    5.4370 C.3       9 GLL5        0.0000 
     22 CA         22.5330   79.8170    1.4160 C.3       6 GLP5        0.0000 
     23 CA         25.6145   76.3120    4.6410 C.3       3 GLC5        0.0000 
     24 CA         23.7490   76.6450    4.9700 C.3       9 GLL5        0.0000 
     25 N          22.0995   70.7020    1.0935 N.am      1 SEC2        0.0000 
     26 N          22.5160   71.8250    1.5610 N.am      7 SEL2        0.0000 
     27 N          21.6830   69.5790    0.6260 N.am      4 SEP2        0.0000 
     28 CA         21.3955   72.9960    6.8775 C.3       3 GLC5        0.0000 
     29 CA         20.8220   74.1690    5.1000 C.3       9 GLL5        0.0000 
     30 CA         21.9690   71.8230    8.6550 C.3       6 GLP5        0.0000 
     31 CA         22.8590   74.1960    6.8630 C.3       3 GLC5        0.0000 
     32 CA         21.6560   75.2820    5.4930 C.3       9 GLL5        0.0000 
     33 CA         24.0620   73.1100    8.2330 C.3       6 GLP5        0.0000 
     34 NZ         27.4805   80.9285   18.6425 N.4       2 LYC4        0.0000 
     35 NZ         28.8880   80.6940   17.4560 N.4       8 LYL4        0.0000 
     36 NZ         26.0730   81.1630   19.8290 N.4       5 LYP4        0.0000 
     37 NZ         29.9980   81.0090   17.0120 N.4       2 LYC4        0.0000 
     38 NZ         32.3800   80.9500   16.5210 N.4       5 LYP4        0.0000 
     39 N          29.3740   81.1565   18.3835 N.am      1 SEC2        0.0000 
     40 N          28.8880   80.6940   17.4560 N.am      7 SEL2        0.0000 
     41 N          29.8600   81.6190   19.3110 N.am      4 SEP2        0.0000 
     42 N          29.9980   81.0090   17.0120 N.am      1 SEC2        0.0000 
     43 N          31.1080   81.3240   16.5680 N.am      4 SEP2        0.0000 
     44 NZ         30.6560   79.9690   16.8110 N.4       2 LYC4        0.0000 
     45 NZ         30.2040   78.6140   17.0540 N.4       8 LYL4        0.0000 
     46 N          31.4995   79.2530   17.1310 N.am      1 SEC2        0.0000 
     47 N          30.2040   78.6140   17.0540 N.am      7 SEL2        0.0000 
     48 N          32.7950   79.8920   17.2080 N.am      4 SEP2        0.0000 
     49 N          30.6560   79.9690   16.8110 N.am      1 SEC2        0.0000 
     50 NZ         27.1845   79.8765   19.2330 N.4       2 LYC4        0.0000 
     51 NZ         28.2960   78.5900   18.6370 N.4       8 LYL4        0.0000 
     52 CA         24.3985   77.7381   14.2892 C.3       3 GLC5        0.0000 
     53 CA         22.8450   76.4370   14.8410 C.3       6 GLP5        0.0000 
     54 CA         28.0852   77.2245   15.0267 C.3       3 GLC5        0.0000 
     55 CA         27.5860   79.4580   15.0500 C.3       9 GLL5        0.0000 
     56 CA         32.6275   80.6890   10.9510 C.3       3 GLC5        0.0000 
     57 CA         32.8560   81.2990    8.9070 C.3       6 GLP5        0.0000 
     58 CA         32.0343   78.4663   11.6100 C.3       3 GLC5        0.0000 
     59 CA         31.6780   80.1430   13.0330 C.3       9 GLL5        0.0000 
     60 CA         24.2447   74.9770    7.8588 C.3       3 GLC5        0.0000 
     61 CA         26.1217   78.4975    6.7957 C.3       3 GLC5        0.0000 
     62 CA         27.7290   79.2360    6.9920 C.3       6 GLP5        0.0000 
     63 CA         22.4530   79.4410    6.4973 C.3       3 GLC5        0.0000 
     64 CA         24.2400   78.3810    6.3160 C.3       9 GLL5        0.0000 
     65 CA         21.2020   80.7310    7.1180 C.3       6 GLP5        0.0000 
     66 CA         24.0575   73.0225    4.2698 C.3       3 GLC5        0.0000 
     67 CA         22.9130   74.7320    3.6980 C.3       9 GLL5        0.0000 
     68 CA         25.5120   71.8600    5.1310 C.3       6 GLP5        0.0000 
     69 CA         19.0358   73.7637    4.6277 C.3       3 GLC5        0.0000 
     70 CA         21.1270   73.3460    3.9210 C.3       9 GLL5        0.0000 
     71 CA         17.0970   73.7700    4.7450 C.3       6 GLP5        0.0000 
     72 CA         21.6475   71.8758    4.5630 C.3       3 GLC5        0.0000 
     73 CA         22.0290   69.9210    4.8160 C.3       6 GLP5        0.0000 
@<TRIPOS>BOND
@<TRIPOS>SUBSTRUCTURE
     1 SEC2        1 GROUP        1 X    SEC  0     ROOT SEC X 2
     2 LYC4       34 GROUP        1 X    LYC  0     **** LYC X 4
     3 GLC5        4 GROUP        1 X    GLC  0     **** GLC X 6
     4 SEP2        3 GROUP        1 Y    SEP  0     ROOT SEP Y 9
     5 LYP4       36 GROUP        1 Y    LYP  0     **** LYP Y 11
     6 GLP5        6 GROUP        1 Y    GLP  0     **** GLP Y 13
     7 SEL2        2 GROUP        1 Z    SEL  0     ROOT SEL Z 16
     8 LYL4       35 GROUP        1 Z    LYL  0     **** LYL Z 18
     9 GLL5        5 GROUP        1 Z    GLL  0     **** GLL Z 20
@<TRIPOS>SET

