#    Name: 4gi2_NAP_2_ligand
#    Modification time : Mon Mar 24 22:14:16 2014

@<TRIPOS>MOLECULE
4gi2_NAP_2_ligand
   73    77     1     0     0
SMALL
NO_CHARGES


@<TRIPOS>ATOM
      1 PA         22.7010   79.0360   11.8350 P.3       1 NAP501      0.0000 
      2 O1A        23.0490   80.3640   11.2480 O.co2     1 NAP501      0.0000 
      3 O2A        21.8500   79.1770   13.0710 O.co2     1 NAP501      0.0000 
      4 O5B        24.0870   78.3370   12.1470 O.3       1 NAP501      0.0000 
      5 C5B        25.2200   79.1320   12.3180 C.3       1 NAP501      0.0000 
      6 C4B        26.1980   78.5610   13.3100 C.3       1 NAP501      0.0000 
      7 O4B        27.5110   78.6340   12.7770 O.3       1 NAP501      0.0000 
      8 C3B        26.1950   79.2320   14.6610 C.3       1 NAP501      0.0000 
      9 O3B        25.6170   78.3950   15.5910 O.3       1 NAP501      0.0000 
     10 C2B        27.5860   79.4580   15.0500 C.3       1 NAP501      0.0000 
     11 O2B        27.8360   78.7680   16.2080 O.3       1 NAP501      0.0000 
     12 C1B        28.2690   78.8260   13.9330 C.3       1 NAP501      0.0000 
     13 N9A        29.5760   79.5730   13.5010 N.pl3     1 NAP501      0.0000 
     14 C8A        29.6500   80.8750   12.8920 C.2       1 NAP501      0.0000 
     15 N7A        30.9750   81.1540   12.6420 N.2       1 NAP501      0.0000 
     16 C5A        31.6780   80.1430   13.0330 C.ar      1 NAP501      0.0000 
     17 C6A        33.1200   80.0150   12.9570 C.ar      1 NAP501      0.0000 
     18 N6A        33.8980   81.0620   12.4070 N.pl3     1 NAP501      0.0000 
     19 N1A        33.7230   78.8300   13.4360 N.ar      1 NAP501      0.0000 
     20 C2A        32.7630   78.0210   13.8920 C.ar      1 NAP501      0.0000 
     21 N3A        31.4390   77.9730   14.0400 N.ar      1 NAP501      0.0000 
     22 C4A        30.9080   79.1440   13.5570 C.ar      1 NAP501      0.0000 
     23 O3         21.8250   78.2830   10.7530 O.3       1 NAP501      0.0000 
     24 PN         22.4090   77.0410    9.9980 P.3       1 NAP501      0.0000 
     25 O1N        21.2330   76.4590    9.2510 O.co2     1 NAP501      0.0000 
     26 O2N        22.9550   76.0580   11.0170 O.co2     1 NAP501      0.0000 
     27 O5D        23.5780   77.4870    9.0200 O.3       1 NAP501      0.0000 
     28 C5D        24.0660   76.5510    8.0860 C.3       1 NAP501      0.0000 
     29 C4D        24.7890   77.1370    6.8830 C.3       1 NAP501      0.0000 
     30 O4D        24.7320   76.1550    5.8540 O.3       1 NAP501      0.0000 
     31 C3D        24.2400   78.3810    6.3160 C.3       1 NAP501      0.0000 
     32 O3D        25.2470   79.0000    5.5900 O.3       1 NAP501      0.0000 
     33 C2D        23.1680   77.9210    5.4370 C.3       1 NAP501      0.0000 
     34 O2D        22.9350   78.7670    4.3780 O.3       1 NAP501      0.0000 
     35 C1D        23.7490   76.6450    4.9700 C.3       1 NAP501      0.0000 
     36 N1N        22.7620   75.5790    4.7470 N.pl3     1 NAP501      0.0000 
     37 C2N        22.9130   74.7320    3.6980 C.ar      1 NAP501      0.0000 
     38 C3N        22.2930   73.6380    3.1190 C.ar      1 NAP501      0.0000 
     39 C7N        22.8310   72.9630    1.8590 C.2       1 NAP501      0.0000 
     40 O7N        22.5160   71.8250    1.5610 O.2       1 NAP501      0.0000 
     41 N7N        23.7260   73.7000    1.0040 N.am      1 NAP501      0.0000 
     42 C4N        21.1270   73.3460    3.9210 C.ar      1 NAP501      0.0000 
     43 C5N        20.8220   74.1690    5.1000 C.ar      1 NAP501      0.0000 
     44 C6N        21.6560   75.2820    5.4930 C.ar      1 NAP501      0.0000 
     45 P2B        28.8290   79.1800   17.3410 P.3       1 NAP501      0.0000 
     46 O1X        28.8880   80.6940   17.4560 O.co2     1 NAP501      0.0000 
     47 O2X        30.2040   78.6140   17.0540 O.co2     1 NAP501      0.0000 
     48 O3X        28.2960   78.5900   18.6370 O.co2     1 NAP501      0.0000 
     49 H          24.9561   80.1602   12.6645 H         1 NAP501      0.0000 
     50 H          25.7693   79.2824   11.3575 H         1 NAP501      0.0000 
     51 H          25.9378   77.4991   13.4676 H         1 NAP501      0.0000 
     52 H          25.6902   80.1697   14.5718 H         1 NAP501      0.0000 
     53 H          27.7867   80.4785   15.0706 H         1 NAP501      0.0000 
     54 H          28.6548   77.8175   14.2764 H         1 NAP501      0.0000 
     55 H          28.9010   81.4146   12.7108 H         1 NAP501      0.0000 
     56 H          33.3901   81.8397   12.0366 H         1 NAP501      0.0000 
     57 H          34.8895   80.9351   12.4355 H         1 NAP501      0.0000 
     58 H          33.2502   77.0119   14.3000 H         1 NAP501      0.0000 
     59 H          23.2384   75.9031    7.6866 H         1 NAP501      0.0000 
     60 H          24.7727   75.8222    8.5694 H         1 NAP501      0.0000 
     61 H          25.8346   77.2892    7.1577 H         1 NAP501      0.0000 
     62 H          23.8452   78.9719    7.0970 H         1 NAP501      0.0000 
     63 H          22.3111   77.6913    6.0284 H         1 NAP501      0.0000 
     64 H          24.2406   76.8413    3.9815 H         1 NAP501      0.0000 
     65 H          23.8773   75.0104    3.0776 H         1 NAP501      0.0000 
     66 H          23.9760   74.6170    1.3148 H         1 NAP501      0.0000 
     67 H          24.0227   73.2332    0.1709 H         1 NAP501      0.0000 
     68 H          20.5177   72.5824    3.6817 H         1 NAP501      0.0000 
     69 H          19.9942   73.9393    5.6509 H         1 NAP501      0.0000 
     70 H          21.3932   75.8147    6.3187 H         1 NAP501      0.0000 
     71 H          26.3576   78.1551   16.2187 H         1 NAP501      0.0000 
     72 H          24.7947   79.3572    4.7728 H         1 NAP501      0.0000 
     73 H          23.1458   78.2262    3.5637 H         1 NAP501      0.0000 
@<TRIPOS>BOND
     1    2    1 ar   
     2    3    1 ar   
     3    4    1 1    
     4   23    1 1    
     5    5    4 1    
     6    6    5 1    
     7   49    5 1    
     8   50    5 1    
     9    7    6 1    
    10    8    6 1    
    11   51    6 1    
    12   12    7 1    
    13    9    8 1    
    14   10    8 1    
    15   52    8 1    
    16   71    9 1    
    17   11   10 1    
    18   12   10 1    
    19   53   10 1    
    20   45   11 1    
    21   13   12 1    
    22   54   12 1    
    23   14   13 1    
    24   22   13 1    
    25   15   14 2    
    26   55   14 1    
    27   16   15 1    
    28   17   16 ar   
    29   22   16 ar   
    30   18   17 1    
    31   19   17 ar   
    32   56   18 1    
    33   57   18 1    
    34   20   19 ar   
    35   21   20 ar   
    36   58   20 1    
    37   22   21 ar   
    38   24   23 1    
    39   25   24 ar   
    40   26   24 ar   
    41   27   24 1    
    42   28   27 1    
    43   29   28 1    
    44   59   28 1    
    45   60   28 1    
    46   30   29 1    
    47   31   29 1    
    48   61   29 1    
    49   35   30 1    
    50   32   31 1    
    51   33   31 1    
    52   62   31 1    
    53   72   32 1    
    54   34   33 1    
    55   35   33 1    
    56   63   33 1    
    57   73   34 1    
    58   36   35 1    
    59   64   35 1    
    60   37   36 ar   
    61   44   36 ar   
    62   38   37 ar   
    63   65   37 1    
    64   39   38 1    
    65   42   38 ar   
    66   40   39 2    
    67   41   39 am   
    68   66   41 1    
    69   67   41 1    
    70   43   42 ar   
    71   68   42 1    
    72   44   43 ar   
    73   69   43 1    
    74   70   44 1    
    75   46   45 ar   
    76   47   45 ar   
    77   48   45 ar   
@<TRIPOS>SUBSTRUCTURE
     1 NAP501      1 GROUP   
@<TRIPOS>SET

