#    Name: 2y04_Y01_1_INTS_M
#    Modification time : Tue Mar 25 07:16:50 2014

@<TRIPOS>MOLECULE
2y04_Y01_1_INTS_M
   82     0     3     0     0
SMALL
NO_CHARGES


@<TRIPOS>ATOM
      1 CA        -10.0370   -8.1295   24.3320 C.3       1 GLC5        0.0000 
      2 CA         -9.2150   -6.1890   23.7750 C.3       3 GLL5        0.0000 
      3 CA        -10.8590  -10.0700   24.8890 C.3       2 GLP5        0.0000 
      4 CA         -9.4310   -4.4460   24.7375 C.3       1 GLC5        0.0000 
      5 CA         -9.6470   -2.7030   25.7000 C.3       2 GLP5        0.0000 
      6 CA         -9.1575   -8.3615   19.9715 C.3       1 GLC5        0.0000 
      7 CA         -9.2700   -7.7910   21.7900 C.3       3 GLL5        0.0000 
      8 CA         -9.0450   -8.9320   18.1530 C.3       2 GLP5        0.0000 
      9 CA         -9.7175   -9.9075   21.8795 C.3       1 GLC5        0.0000 
     10 CA        -10.1650  -12.0240   21.9690 C.3       2 GLP5        0.0000 
     11 CA        -10.0645   -8.9305   23.3395 C.3       1 GLC5        0.0000 
     12 CA         -7.1450   -7.4450   21.2080 C.3       1 GLC5        0.0000 
     13 CA         -5.0200   -7.0990   20.6260 C.3       2 GLP5        0.0000 
     14 CA         -6.9615   -6.2075   21.0430 C.3       1 GLC5        0.0000 
     15 CA         -8.9030   -5.3160   21.4600 C.3       3 GLL5        0.0000 
     16 CA         -7.3650   -4.2445   22.4740 C.3       1 GLC5        0.0000 
     17 CA         -5.8270   -3.1730   23.4880 C.3       2 GLP5        0.0000 
     18 CA        -11.4950   -4.7690   19.7145 C.3       1 GLC5        0.0000 
     19 CA         -9.8050   -4.2140   20.9120 C.3       3 GLL5        0.0000 
     20 CA        -13.1850   -5.3240   18.5170 C.3       2 GLP5        0.0000 
     21 CA        -11.6095   -4.0595   21.7625 C.3       1 GLC5        0.0000 
     22 CA        -13.4140   -3.9050   22.6130 C.3       2 GLP5        0.0000 
     23 CA         -9.0015   -1.6215   21.5435 C.3       1 GLC5        0.0000 
     24 CA         -8.9250   -3.2120   20.1210 C.3       3 GLL5        0.0000 
     25 CA         -9.0780   -0.0310   22.9660 C.3       2 GLP5        0.0000 
     26 CA        -11.8070   -0.9750   18.3720 C.3       1 GLC5        0.0000 
     27 CA        -10.8550   -2.4870   18.6850 C.3       3 GLL5        0.0000 
     28 CA        -12.7590    0.5370   18.0590 C.3       2 GLP5        0.0000 
     29 CA         -7.5975    1.2385   17.1975 C.3       1 GLC5        0.0000 
     30 CA         -6.6320   -0.6930   17.5000 C.3       3 GLL5        0.0000 
     31 CA         -8.5630    3.1700   16.8950 C.3       2 GLP5        0.0000 
     32 CA         -4.7580   -0.8580   17.7925 C.3       1 GLC5        0.0000 
     33 CA         -2.8840   -1.0230   18.0850 C.3       2 GLP5        0.0000 
     34 CA         -6.9745   -5.5175   16.7050 C.3       1 GLC5        0.0000 
     35 CA         -6.6440   -3.5860   17.3690 C.3       3 GLL5        0.0000 
     36 CA         -7.3050   -7.4490   16.0410 C.3       2 GLP5        0.0000 
     37 CA         -9.8345   -2.1215   14.5070 C.3       1 GLC5        0.0000 
     38 CA         -8.4390   -3.3350   15.6130 C.3       3 GLL5        0.0000 
     39 CA        -11.2300   -0.9080   13.4010 C.3       2 GLP5        0.0000 
     40 CA         -6.8015   -5.3820   13.4960 C.3       1 GLC5        0.0000 
     41 CA         -7.4150   -3.6890   14.5070 C.3       3 GLL5        0.0000 
     42 CA         -6.1880   -7.0750   12.4850 C.3       2 GLP5        0.0000 
     43 CA         -1.7640   -1.4450   11.7775 C.3       1 GLC5        0.0000 
     44 CA         -3.6650   -1.7650   11.5500 C.3       3 GLL5        0.0000 
     45 CA          0.1370   -1.1250   12.0050 C.3       2 GLP5        0.0000 
     46 CA         -2.8050   -2.7445   14.3750 C.3       1 GLC5        0.0000 
     47 CA         -4.5170   -3.9100   13.8790 C.3       3 GLL5        0.0000 
     48 CA         -1.0930   -1.5790   14.8710 C.3       2 GLP5        0.0000 
     49 CA         -3.8860   -5.4415   14.6335 C.3       1 GLC5        0.0000 
     50 CA         -3.2550   -6.9730   15.3880 C.3       2 GLP5        0.0000 
     51 CA         -4.8340   -4.6370    8.6615 C.3       1 GLC5        0.0000 
     52 CA         -4.9840   -3.5590   10.6300 C.3       3 GLL5        0.0000 
     53 CA         -4.6840   -5.7150    6.6930 C.3       2 GLP5        0.0000 
     54 CA         -5.9655   -5.2975   10.8880 C.3       1 GLC5        0.0000 
     55 CA         -6.9470   -7.0360   11.1460 C.3       2 GLP5        0.0000 
     56 CA         -3.8210   -5.1035   10.0865 C.3       1 GLC5        0.0000 
     57 CA         -2.6580   -6.6480    9.5430 C.3       2 GLP5        0.0000 
     58 CA         -6.0775   -1.6610    9.5320 C.3       1 GLC5        0.0000 
     59 CA         -4.5620   -2.0850   10.3520 C.3       3 GLL5        0.0000 
     60 CA         -7.5930   -1.2370    8.7120 C.3       2 GLP5        0.0000 
     61 CA         -3.2780   -1.2500    5.1430 C.3       1 GLC5        0.0000 
     62 CA         -3.0760   -2.2440    6.8300 C.3       3 GLL5        0.0000 
     63 CA         -3.4800   -0.2560    3.4560 C.3       2 GLP5        0.0000 
     64 CA         -3.8800   -3.9795    6.7615 C.3       1 GLC5        0.0000 
     65 CA         -2.1130   -0.6570    5.2005 C.3       1 GLC5        0.0000 
     66 CA         -1.6130   -2.1480    6.3750 C.3       3 GLL5        0.0000 
     67 CA         -2.6130    0.8340    4.0260 C.3       2 GLP5        0.0000 
     68 CA         -0.0025   -2.9410    7.1250 C.3       1 GLC5        0.0000 
     69 CA          1.6080   -3.7340    7.8750 C.3       2 GLP5        0.0000 
     70 CA        -11.6612   -4.0360   18.5995 C.3       1 GLC5        0.0000 
     71 CA         -9.4200   -3.0090   18.6790 C.3       3 GLL5        0.0000 
     72 CA         -9.6350   -4.0585   14.0050 C.3       1 GLC5        0.0000 
     73 CA        -11.3430   -4.6050   12.9500 C.3       2 GLP5        0.0000 
     74 CA         -7.6160   -5.4805   15.5505 C.3       1 GLC5        0.0000 
     75 CA         -4.3535   -0.9718   16.4798 C.3       1 GLC5        0.0000 
     76 CA         -6.0860   -1.5820   15.1580 C.3       3 GLL5        0.0000 
     77 CA         -2.8857   -1.3400   13.9947 C.3       1 GLC5        0.0000 
     78 CA         -4.7450   -0.5060   13.4830 C.3       3 GLL5        0.0000 
     79 CA         -6.9595   -3.5928    9.9708 C.3       1 GLC5        0.0000 
     80 CA         -5.9660   -3.5960   11.8250 C.3       3 GLL5        0.0000 
     81 CA         -8.4440   -3.6080    8.7140 C.3       2 GLP5        0.0000 
     82 CA         -5.8293   -5.2926   12.5738 C.3       1 GLC5        0.0000 
@<TRIPOS>BOND
@<TRIPOS>SUBSTRUCTURE
     1 GLC5        1 GROUP        1 X    GLC  0     ROOT GLC X 6
     2 GLP5        3 GROUP        1 Y    GLP  0     ROOT GLP Y 13
     3 GLL5        2 GROUP        1 Z    GLL  0     ROOT GLL Z 20
@<TRIPOS>SET

