#    Name: 2y04_Y01_1_ligand
#    Modification time : Tue Mar 25 07:16:51 2014

@<TRIPOS>MOLECULE
2y04_Y01_1_ligand
   84    87     1     0     0
SMALL
NO_CHARGES


@<TRIPOS>ATOM
      1 CAA        -9.2150   -6.1890   23.7750 C.3       1 Y01401      0.0000 
      2 CBA        -9.6060   -6.3750   22.3030 C.3       1 Y01401      0.0000 
      3 CAB        -9.2700   -7.7910   21.7900 C.3       1 Y01401      0.0000 
      4 CAN        -8.9030   -5.3160   21.4600 C.3       1 Y01401      0.0000 
      5 CAJ        -9.8050   -4.2140   20.9120 C.3       1 Y01401      0.0000 
      6 CAO        -8.9250   -3.2120   20.1210 C.3       1 Y01401      0.0000 
      7 CBB        -9.4200   -3.0090   18.6790 C.3       1 Y01401      0.0000 
      8 CAC       -10.8550   -2.4870   18.6850 C.3       1 Y01401      0.0000 
      9 CBE        -8.6120   -2.0190   17.8090 C.3       1 Y01401      0.0000 
     10 CAP        -7.6320   -1.1320   18.5780 C.3       1 Y01401      0.0000 
     11 CAQ        -6.6320   -0.6930   17.5000 C.3       1 Y01401      0.0000 
     12 CBG        -7.1510   -1.3450   16.2320 C.3       1 Y01401      0.0000 
     13 CBI        -7.7080   -2.6480   16.7610 C.3       1 Y01401      0.0000 
     14 CAE        -6.6440   -3.5860   17.3690 C.3       1 Y01401      0.0000 
     15 CAU        -8.4390   -3.3350   15.6130 C.3       1 Y01401      0.0000 
     16 CAS        -7.4150   -3.6890   14.5070 C.3       1 Y01401      0.0000 
     17 CBF        -6.5980   -2.4850   14.0050 C.3       1 Y01401      0.0000 
     18 CBD        -6.0860   -1.5820   15.1580 C.3       1 Y01401      0.0000 
     19 CAK        -5.5600   -0.2590   14.5910 C.3       1 Y01401      0.0000 
     20 CAI        -4.7450   -0.5060   13.4830 C.2       1 Y01401      0.0000 
     21 CAZ        -4.6120   -1.6960   12.7540 C.2       1 Y01401      0.0000 
     22 CAV        -3.6650   -1.7650   11.5500 C.3       1 Y01401      0.0000 
     23 CBH        -5.4330   -2.9390   13.1210 C.3       1 Y01401      0.0000 
     24 CAD        -4.5170   -3.9100   13.8790 C.3       1 Y01401      0.0000 
     25 CAT        -5.9660   -3.5960   11.8250 C.3       1 Y01401      0.0000 
     26 CAR        -4.9840   -3.5590   10.6300 C.3       1 Y01401      0.0000 
     27 CBC        -4.5620   -2.0850   10.3520 C.3       1 Y01401      0.0000 
     28 OAW        -4.0830   -1.6720    9.0070 O.3       1 Y01401      0.0000 
     29 CAY        -3.2050   -2.4450    8.3380 C.2       1 Y01401      0.0000 
     30 OAG        -2.5400   -3.2820    8.9400 O.2       1 Y01401      0.0000 
     31 CAM        -3.0760   -2.2440    6.8300 C.3       1 Y01401      0.0000 
     32 CAL        -1.6130   -2.1480    6.3750 C.3       1 Y01401      0.0000 
     33 CAX        -1.3090   -3.1350    5.2310 C.2       1 Y01401      0.0000 
     34 OAH        -1.7260   -2.8340    4.0820 O.co2     1 Y01401      0.0000 
     35 OAF        -0.6700   -4.1750    5.5350 O.co2     1 Y01401      0.0000 
     36 H         -10.6768   -6.2230   22.2136 H         1 Y01401      0.0000 
     37 H          -8.3943   -5.8156   20.6107 H         1 Y01401      0.0000 
     38 H          -8.1007   -4.8507   22.0677 H         1 Y01401      0.0000 
     39 H         -10.2820   -3.6935   21.7240 H         1 Y01401      0.0000 
     40 H         -10.5365   -4.6369   20.2458 H         1 Y01401      0.0000 
     41 H          -7.8997   -3.5868   20.0997 H         1 Y01401      0.0000 
     42 H          -8.9318   -2.2524   20.6418 H         1 Y01401      0.0000 
     43 H          -9.4370   -3.9694   18.1650 H         1 Y01401      0.0000 
     44 H          -9.2929   -1.3459   17.2809 H         1 Y01401      0.0000 
     45 H          -7.1331   -1.7021   19.3158 H         1 Y01401      0.0000 
     46 H          -8.1370   -0.2856   18.9614 H         1 Y01401      0.0000 
     47 H          -5.6683   -1.0693   17.7371 H         1 Y01401      0.0000 
     48 H          -6.6560    0.3638   17.4044 H         1 Y01401      0.0000 
     49 H          -7.9605   -0.7658   15.8531 H         1 Y01401      0.0000 
     50 H          -9.1817   -2.6697   15.2014 H         1 Y01401      0.0000 
     51 H          -8.9013   -4.2440   15.9649 H         1 Y01401      0.0000 
     52 H          -7.9538   -4.1340   13.6592 H         1 Y01401      0.0000 
     53 H          -6.7262   -4.4508   14.8972 H         1 Y01401      0.0000 
     54 H          -7.2620   -1.8677   13.3794 H         1 Y01401      0.0000 
     55 H          -5.2387   -2.1004   15.6240 H         1 Y01401      0.0000 
     56 H          -5.0231    0.2516   15.4047 H         1 Y01401      0.0000 
     57 H          -6.4366    0.3578   14.3414 H         1 Y01401      0.0000 
     58 H          -4.1390    0.3259   13.1434 H         1 Y01401      0.0000 
     59 H          -2.9615   -2.5514   11.6929 H         1 Y01401      0.0000 
     60 H          -3.1983   -0.8187   11.4073 H         1 Y01401      0.0000 
     61 H          -6.8993   -3.0902   11.5310 H         1 Y01401      0.0000 
     62 H          -6.2206   -4.6458   12.0405 H         1 Y01401      0.0000 
     63 H          -5.4707   -3.9550    9.7543 H         1 Y01401      0.0000 
     64 H          -4.1060   -4.1352   10.8701 H         1 Y01401      0.0000 
     65 H          -5.5266   -1.4957   10.5957 H         1 Y01401      0.0000 
     66 H          -3.5979   -1.3254    6.5425 H         1 Y01401      0.0000 
     67 H          -3.5543   -3.0818    6.3122 H         1 Y01401      0.0000 
     68 H          -0.9596   -2.3706    7.2182 H         1 Y01401      0.0000 
     69 H          -1.4098   -1.1339    6.0317 H         1 Y01401      0.0000 
     70 H          -8.2356   -6.3298   23.9198 H         1 Y01401      0.0000 
     71 H          -9.4306   -5.2693   24.1032 H         1 Y01401      0.0000 
     72 H          -9.6949   -6.8328   24.3710 H         1 Y01401      0.0000 
     73 H          -8.2917   -7.9874   21.8559 H         1 Y01401      0.0000 
     74 H          -9.7467   -8.4981   22.3123 H         1 Y01401      0.0000 
     75 H          -9.5290   -7.9099   20.8315 H         1 Y01401      0.0000 
     76 H         -10.9303   -1.6130   19.1651 H         1 Y01401      0.0000 
     77 H         -11.2017   -2.3431   17.7581 H         1 Y01401      0.0000 
     78 H         -11.4800   -3.1240   19.1361 H         1 Y01401      0.0000 
     79 H          -6.0596   -3.9903   16.6654 H         1 Y01401      0.0000 
     80 H          -6.0438   -3.1030   18.0065 H         1 Y01401      0.0000 
     81 H          -7.0604   -4.3420   17.8741 H         1 Y01401      0.0000 
     82 H          -3.7506   -4.2154   13.3138 H         1 Y01401      0.0000 
     83 H          -4.1276   -3.4899   14.6987 H         1 Y01401      0.0000 
     84 H          -5.0080   -4.7295   14.1747 H         1 Y01401      0.0000 
@<TRIPOS>BOND
     1    2    1 1    
     2   70    1 1    
     3   71    1 1    
     4   72    1 1    
     5    3    2 1    
     6    4    2 1    
     7   36    2 1    
     8   73    3 1    
     9   74    3 1    
    10   75    3 1    
    11    5    4 1    
    12   37    4 1    
    13   38    4 1    
    14    6    5 1    
    15   39    5 1    
    16   40    5 1    
    17    7    6 1    
    18   41    6 1    
    19   42    6 1    
    20    8    7 1    
    21    9    7 1    
    22   43    7 1    
    23   76    8 1    
    24   77    8 1    
    25   78    8 1    
    26   10    9 1    
    27   13    9 1    
    28   44    9 1    
    29   11   10 1    
    30   45   10 1    
    31   46   10 1    
    32   12   11 1    
    33   47   11 1    
    34   48   11 1    
    35   13   12 1    
    36   18   12 1    
    37   49   12 1    
    38   14   13 1    
    39   15   13 1    
    40   79   14 1    
    41   80   14 1    
    42   81   14 1    
    43   16   15 1    
    44   50   15 1    
    45   51   15 1    
    46   17   16 1    
    47   52   16 1    
    48   53   16 1    
    49   18   17 1    
    50   23   17 1    
    51   54   17 1    
    52   19   18 1    
    53   55   18 1    
    54   20   19 1    
    55   56   19 1    
    56   57   19 1    
    57   21   20 2    
    58   58   20 1    
    59   22   21 1    
    60   23   21 1    
    61   27   22 1    
    62   59   22 1    
    63   60   22 1    
    64   24   23 1    
    65   25   23 1    
    66   82   24 1    
    67   83   24 1    
    68   84   24 1    
    69   26   25 1    
    70   61   25 1    
    71   62   25 1    
    72   27   26 1    
    73   63   26 1    
    74   64   26 1    
    75   28   27 1    
    76   65   27 1    
    77   29   28 1    
    78   30   29 2    
    79   31   29 1    
    80   32   31 1    
    81   66   31 1    
    82   67   31 1    
    83   33   32 1    
    84   68   32 1    
    85   69   32 1    
    86   34   33 ar   
    87   35   33 ar   
@<TRIPOS>SUBSTRUCTURE
     1 Y01401      1 GROUP   
@<TRIPOS>SET

