#    Name: 3u5l_08K_1_INTS_M
#    Modification time : Mon Mar 24 21:40:53 2014

@<TRIPOS>MOLECULE
3u5l_08K_1_INTS_M
   49     0     6     0     0
SMALL
NO_CHARGES


@<TRIPOS>ATOM
      1 CA         24.5830   15.4165   -0.7260 C.3       2 GLC5        0.0000 
      2 CA         25.6140   14.4260    0.4450 C.3       6 GLL5        0.0000 
      3 CA         23.5520   16.4070   -1.8970 C.3       4 GLP5        0.0000 
      4 CA         25.7765   16.6135    0.8260 C.3       2 GLC5        0.0000 
      5 CA         25.9390   18.8010    1.2070 C.3       4 GLP5        0.0000 
      6 CA         26.6215   12.8485    0.0460 C.3       2 GLC5        0.0000 
      7 CA         27.6290   11.2710   -0.3530 C.3       4 GLP5        0.0000 
      8 CA         27.6910   13.2270   -0.6920 C.3       2 GLC5        0.0000 
      9 CA         27.7530   15.1830   -1.0310 C.3       6 GLL5        0.0000 
     10 CA         32.9895   13.2000   -1.0170 C.3       2 GLC5        0.0000 
     11 CA         32.9820   14.4960   -2.1690 C.3       6 GLL5        0.0000 
     12 CA         32.9970   11.9040    0.1350 C.3       4 GLP5        0.0000 
     13 CA         34.8835   14.1025   -1.9865 C.3       2 GLC5        0.0000 
     14 CA         36.7850   13.7090   -1.8040 C.3       4 GLP5        0.0000 
     15 CA         28.8065   18.8760    0.7425 C.3       2 GLC5        0.0000 
     16 CA         30.8030   18.7450    1.5250 C.3       6 GLL5        0.0000 
     17 CA         26.8100   19.0070   -0.0400 C.3       4 GLP5        0.0000 
     18 CA         30.6595   20.5830    1.3620 C.3       2 GLC5        0.0000 
     19 CA         30.5160   22.4210    1.1990 C.3       4 GLP5        0.0000 
     20 CA         31.4120   17.3335    2.8495 C.3       2 GLC5        0.0000 
     21 CA         32.0210   15.9220    4.1740 C.3       4 GLP5        0.0000 
     22 CA         30.1455   19.2750   -0.3310 C.3       2 GLC5        0.0000 
     23 CA         29.4880   19.8050   -2.1870 C.3       4 GLP5        0.0000 
     24 N          34.1925   17.6140   -1.5400 N.am      1 SEC2        0.0000 
     25 N          33.1250   16.9750   -0.6610 N.am      5 SEL2        0.0000 
     26 N          35.2600   18.2530   -2.4190 N.am      3 SEP2        0.0000 
     27 CA         30.5785   16.0090    2.6790 C.3       2 GLC5        0.0000 
     28 CA         29.1360   16.0960    1.1840 C.3       6 GLL5        0.0000 
     29 CA         26.9085   17.1820    1.2790 C.3       2 GLC5        0.0000 
     30 CA         27.8780   15.5630    1.3510 C.3       6 GLL5        0.0000 
     31 CA         27.1468   17.0785   -0.2203 C.3       2 GLC5        0.0000 
     32 CA         27.2140   15.1170    0.2300 C.3       6 GLL5        0.0000 
     33 CA         29.4348   17.9068   -1.4105 C.3       2 GLC5        0.0000 
     34 CA         29.7390   16.2560   -0.0790 C.3       6 GLL5        0.0000 
     35 CA         26.5063   18.4050   -2.5390 C.3       2 GLC5        0.0000 
     36 CA         27.5290   17.0560   -3.4490 C.3       6 GLL5        0.0000 
     37 CA         25.8680   19.5100   -1.0990 C.3       4 GLP5        0.0000 
     38 CA         28.3163   18.5525   -3.0830 C.3       2 GLC5        0.0000 
     39 CA         28.2177   18.1737   -7.4207 C.3       2 GLC5        0.0000 
     40 CA         27.1560   17.3000   -5.8190 C.3       6 GLL5        0.0000 
     41 CA         28.6880   19.4030   -8.9060 C.3       4 GLP5        0.0000 
     42 CA         26.8341   19.2560   -4.8720 C.3       2 GLC5        0.0000 
     43 CA         26.5180   21.2120   -4.8450 C.3       4 GLP5        0.0000 
     44 CA         29.8387   17.8491   -4.6700 C.3       2 GLC5        0.0000 
     45 CA         28.3390   16.5890   -6.0520 C.3       6 GLL5        0.0000 
     46 CA         31.0630   19.3050   -4.1400 C.3       4 GLP5        0.0000 
     47 CA         28.0344   17.5296    0.1175 C.3       2 GLC5        0.0000 
     48 CA         29.0226   14.0741    0.7793 C.3       2 GLC5        0.0000 
     49 CA         29.1840   12.2850    1.3820 C.3       4 GLP5        0.0000 
@<TRIPOS>BOND
@<TRIPOS>SUBSTRUCTURE
     1 SEC2       24 GROUP        1 X    SEC  0     ROOT SEC X 2
     2 GLC5        1 GROUP        1 X    GLC  0     **** GLC X 6
     3 SEP2       26 GROUP        1 Y    SEP  0     ROOT SEP Y 9
     4 GLP5        3 GROUP        1 Y    GLP  0     **** GLP Y 13
     5 SEL2       25 GROUP        1 Z    SEL  0     ROOT SEL Z 16
     6 GLL5        2 GROUP        1 Z    GLL  0     **** GLL Z 20
@<TRIPOS>SET

