#    Name: 3u5l_08K_1_ligand
#    Modification time : Mon Mar 24 21:40:53 2014

@<TRIPOS>MOLECULE
3u5l_08K_1_ligand
   37    40     1     0     0
SMALL
NO_CHARGES


@<TRIPOS>ATOM
      1 CLA        25.6140   14.4260    0.4450 Cl        1 08K1        0.0000 
      2 CAP        27.2140   15.1170    0.2300 C.ar      1 08K1        0.0000 
      3 CAJ        27.7530   15.1830   -1.0310 C.ar      1 08K1        0.0000 
      4 CAS        29.0240   15.7610   -1.1890 C.ar      1 08K1        0.0000 
      5 CAO        29.5910   15.8440   -2.5730 C.2       1 08K1        0.0000 
      6 CAQ        28.6920   16.3060   -3.6880 C.ar      1 08K1        0.0000 
      7 CAG        27.5290   17.0560   -3.4490 C.ar      1 08K1        0.0000 
      8 CAE        26.7600   17.5440   -4.5090 C.ar      1 08K1        0.0000 
      9 CAC        27.1560   17.3000   -5.8190 C.ar      1 08K1        0.0000 
     10 CAD        28.3390   16.5890   -6.0520 C.ar      1 08K1        0.0000 
     11 CAF        29.0880   16.0890   -5.0080 C.ar      1 08K1        0.0000 
     12 NAL        30.8580   15.6870   -2.7930 N.2       1 08K1        0.0000 
     13 NAK        31.8580   15.3230   -1.7940 N.pl3     1 08K1        0.0000 
     14 C23        32.9820   14.4960   -2.1690 C.3       1 08K1        0.0000 
     15 CAT        31.9910   16.2740   -0.8350 C.2       1 08K1        0.0000 
     16 NAV        31.0080   16.8110   -0.1470 N.pl3     1 08K1        0.0000 
     17 CAR        31.4960   17.8510    0.5570 C.2       1 08K1        0.0000 
     18 CAA        30.8030   18.7450    1.5250 C.3       1 08K1        0.0000 
     19 NAM        32.7760   17.9960    0.2410 N.2       1 08K1        0.0000 
     20 NAN        33.1250   16.9750   -0.6610 N.2       1 08K1        0.0000 
     21 CAU        29.7390   16.2560   -0.0790 C.ar      1 08K1        0.0000 
     22 CAI        29.1360   16.0960    1.1840 C.ar      1 08K1        0.0000 
     23 CAH        27.8780   15.5630    1.3510 C.ar      1 08K1        0.0000 
     24 H          27.2542   14.8249   -1.8440 H         1 08K1        0.0000 
     25 H          27.2412   17.2475   -2.4777 H         1 08K1        0.0000 
     26 H          25.9068   18.0801   -4.3176 H         1 08K1        0.0000 
     27 H          26.5946   17.6331   -6.6037 H         1 08K1        0.0000 
     28 H          28.6497   16.4406   -7.0300 H         1 08K1        0.0000 
     29 H          29.9479   15.5501   -5.1966 H         1 08K1        0.0000 
     30 H          29.6809   16.4007    2.0265 H         1 08K1        0.0000 
     31 H          27.4518   15.5004    2.2735 H         1 08K1        0.0000 
     32 H          33.5351   14.9232   -2.8842 H         1 08K1        0.0000 
     33 H          33.5893   14.3211   -1.3940 H         1 08K1        0.0000 
     34 H          32.6883   13.6061   -2.5179 H         1 08K1        0.0000 
     35 H          31.4201   19.4379    1.8981 H         1 08K1        0.0000 
     36 H          30.0390   19.2309    1.1005 H         1 08K1        0.0000 
     37 H          30.4313   18.2352    2.3009 H         1 08K1        0.0000 
@<TRIPOS>BOND
     1    2    1 1    
     2    3    2 ar   
     3   23    2 ar   
     4    4    3 ar   
     5   24    3 1    
     6    5    4 1    
     7   21    4 ar   
     8    6    5 1    
     9   12    5 2    
    10    7    6 ar   
    11   11    6 ar   
    12    8    7 ar   
    13   25    7 1    
    14    9    8 ar   
    15   26    8 1    
    16   10    9 ar   
    17   27    9 1    
    18   11   10 ar   
    19   28   10 1    
    20   29   11 1    
    21   13   12 1    
    22   14   13 1    
    23   15   13 1    
    24   32   14 1    
    25   33   14 1    
    26   34   14 1    
    27   16   15 1    
    28   20   15 2    
    29   17   16 1    
    30   21   16 1    
    31   18   17 1    
    32   19   17 2    
    33   35   18 1    
    34   36   18 1    
    35   37   18 1    
    36   20   19 1    
    37   22   21 ar   
    38   23   22 ar   
    39   30   22 1    
    40   31   23 1    
@<TRIPOS>SUBSTRUCTURE
     1 08K1        1 GROUP   
@<TRIPOS>SET

