#    Name: 4gqt_ADP_1_INTS_M
#    Modification time : Mon Mar 24 23:32:16 2014

@<TRIPOS>MOLECULE
4gqt_ADP_1_INTS_M
   43     0    12     0     0
SMALL
NO_CHARGES


@<TRIPOS>ATOM
      1 Zn         20.0850   17.5670    6.3180 Zn        3 ZIC7        0.0000 
      2 Zn         19.9190   18.4940    5.9170 Zn       11 ZIL7        0.0000 
      3 Zn         20.2510   16.6400    6.7190 Zn        7 ZIP7        0.0000 
      4 Zn         19.4420   16.7245    7.1790 Zn        3 ZIC7        0.0000 
      5 Zn         18.6330   16.8090    7.6390 Zn       11 ZIL7        0.0000 
      6 N          19.3570   16.8190    8.8295 N.am      2 SEC2        0.0000 
      7 N          18.6330   16.8090    7.6390 N.am     10 SEL2        0.0000 
      8 N          20.0810   16.8290   10.0200 N.am      6 SEP2        0.0000 
      9 N          17.6680   15.7225    8.3620 N.am      2 SEC2        0.0000 
     10 N          16.7030   14.6360    9.0850 N.am      6 SEP2        0.0000 
     11 N          16.3375   15.9010    8.3495 N.am      2 SEC2        0.0000 
     12 N          15.9720   17.1660    7.6140 N.am     10 SEL2        0.0000 
     13 CA         15.7775   22.9005    8.9335 C.3       4 GLC5        0.0000 
     14 CA         17.0340   21.4140    8.4540 C.3      12 GLL5        0.0000 
     15 CA         14.5210   24.3870    9.4130 C.3       8 GLP5        0.0000 
     16 CA         17.9085   23.1945   11.8745 C.3       4 GLC5        0.0000 
     17 CA         18.2040   22.3870   10.2260 C.3      12 GLL5        0.0000 
     18 CA         17.6130   24.0020   13.5230 C.3       8 GLP5        0.0000 
     19 CA         16.3625   23.3870    9.8195 C.3       4 GLC5        0.0000 
     20 CA         16.5970   21.3635   11.2450 C.3       4 GLC5        0.0000 
     21 CA         14.9900   20.3400   12.2640 C.3       8 GLP5        0.0000 
     22 CA         21.5050   19.4460   11.4615 C.3       4 GLC5        0.0000 
     23 CA         20.8200   21.0840   12.4260 C.3      12 GLL5        0.0000 
     24 CA         22.1900   17.8080   10.4970 C.3       8 GLP5        0.0000 
     25 CA         23.6920   22.3395   12.6225 C.3       4 GLC5        0.0000 
     26 CA         21.9900   21.3960   13.2530 C.3      12 GLL5        0.0000 
     27 CA         25.3940   23.2830   11.9920 C.3       8 GLP5        0.0000 
     28 CA         22.1415   21.7165   15.2780 C.3       4 GLC5        0.0000 
     29 CA         22.2930   22.0370   17.3030 C.3       8 GLP5        0.0000 
     30 O          23.8225   20.3800   14.7380 O.2       1 ALC1        0.0000 
     31 O          22.6090   20.3470   13.8180 O.2       9 ALL1        0.0000 
     32 O          25.0360   20.4130   15.6580 O.2       5 ALP1        0.0000 
     33 CA         23.5730   23.4800   12.3585 C.3       4 GLC5        0.0000 
     34 CA         21.7520   23.6770   12.7250 C.3      12 GLL5        0.0000 
     35 CA         23.0560   25.4160   12.1535 C.3       4 GLC5        0.0000 
     36 CA         24.3600   27.1550   11.5820 C.3       8 GLP5        0.0000 
     37 CA         20.1550   24.6120   13.1620 C.3       4 GLC5        0.0000 
     38 CA         18.5580   25.5470   13.5990 C.3       8 GLP5        0.0000 
     39 CA         18.9025   23.0965   12.6155 C.3       4 GLC5        0.0000 
     40 CA         20.1920   22.1910   11.7080 C.3      12 GLL5        0.0000 
     41 CA         15.8750   20.5355   10.2718 C.3       4 GLC5        0.0000 
     42 CA         19.9420   22.1955   13.8468 C.3       4 GLC5        0.0000 
     43 CA         18.4790   23.1510   14.8540 C.3       8 GLP5        0.0000 
@<TRIPOS>BOND
@<TRIPOS>SUBSTRUCTURE
     1 ALC1       30 GROUP        1 X    ALC  0     ROOT ALC X 1
     2 SEC2        6 GROUP        1 X    SEC  0     **** SEC X 2
     3 ZIC7        1 GROUP        1 X    ZIC  0     **** ZIC X 5
     4 GLC5       13 GROUP        1 X    GLC  0     **** GLC X 6
     5 ALP1       32 GROUP        1 Y    ALP  0     ROOT ALP Y 8
     6 SEP2        8 GROUP        1 Y    SEP  0     **** SEP Y 9
     7 ZIP7        3 GROUP        1 Y    ZIP  0     **** ZIP Y 12
     8 GLP5       15 GROUP        1 Y    GLP  0     **** GLP Y 13
     9 ALL1       31 GROUP        1 Z    ALL  0     ROOT ALL Z 15
    10 SEL2        7 GROUP        1 Z    SEL  0     **** SEL Z 16
    11 ZIL7        2 GROUP        1 Z    ZIL  0     **** ZIL Z 19
    12 GLL5       14 GROUP        1 Z    GLL  0     **** GLL Z 20
@<TRIPOS>SET

