#    Name: 4gqt_ADP_1_ligand
#    Modification time : Mon Mar 24 23:32:16 2014

@<TRIPOS>MOLECULE
4gqt_ADP_1_ligand
   39    41     1     0     0
SMALL
NO_CHARGES


@<TRIPOS>ATOM
      1 PB         18.6770   18.7390    5.1030 P.3       1 ADP500      0.0000 
      2 O1B        19.9190   18.4940    5.9170 O.co2     1 ADP500      0.0000 
      3 O2B        18.4460   20.2240    4.8920 O.co2     1 ADP500      0.0000 
      4 O3B        18.5170   17.8790    3.8800 O.co2     1 ADP500      0.0000 
      5 PA         17.3760   17.6450    7.3860 P.3       1 ADP500      0.0000 
      6 O1A        18.6330   16.8090    7.6390 O.co2     1 ADP500      0.0000 
      7 O2A        15.9720   17.1660    7.6140 O.co2     1 ADP500      0.0000 
      8 O3A        17.4230   18.1890    5.8900 O.3       1 ADP500      0.0000 
      9 O5'        17.4250   18.9740    8.2470 O.3       1 ADP500      0.0000 
     10 C5'        16.4860   20.0480    8.1050 C.3       1 ADP500      0.0000 
     11 C4'        17.0340   21.4140    8.4540 C.3       1 ADP500      0.0000 
     12 O4'        17.1230   21.5380    9.8750 O.3       1 ADP500      0.0000 
     13 C3'        18.4690   21.6650    8.0100 C.3       1 ADP500      0.0000 
     14 O3'        18.5100   22.0790    6.6320 O.3       1 ADP500      0.0000 
     15 C2'        18.9530   22.7280    8.9560 C.3       1 ADP500      0.0000 
     16 O2'        18.4850   24.0420    8.6200 O.3       1 ADP500      0.0000 
     17 C1'        18.2040   22.3870   10.2260 C.3       1 ADP500      0.0000 
     18 N9         19.1610   21.6340   11.0580 N.pl3     1 ADP500      0.0000 
     19 C8         19.1710   20.2990   11.2630 C.2       1 ADP500      0.0000 
     20 N7         20.1690   19.9540   12.0950 N.2       1 ADP500      0.0000 
     21 C5         20.8200   21.0840   12.4260 C.ar      1 ADP500      0.0000 
     22 C6         21.9900   21.3960   13.2530 C.ar      1 ADP500      0.0000 
     23 N6         22.6090   20.3470   13.8180 N.pl3     1 ADP500      0.0000 
     24 N1         22.3860   22.6920   13.3880 N.ar      1 ADP500      0.0000 
     25 C2         21.7520   23.6770   12.7250 C.ar      1 ADP500      0.0000 
     26 N3         20.6590   23.4640   11.9180 N.ar      1 ADP500      0.0000 
     27 C4         20.1920   22.1910   11.7080 C.ar      1 ADP500      0.0000 
     28 H          15.5839   19.8723    8.7409 H         1 ADP500      0.0000 
     29 H          16.0951   20.0969    7.0591 H         1 ADP500      0.0000 
     30 H          16.4139   22.1852    8.0569 H         1 ADP500      0.0000 
     31 H          19.0229   20.7675    8.1912 H         1 ADP500      0.0000 
     32 H          19.9622   22.6553    9.1320 H         1 ADP500      0.0000 
     33 H          17.9080   23.2700   10.7008 H         1 ADP500      0.0000 
     34 H          18.5357   19.6705   10.8587 H         1 ADP500      0.0000 
     35 H          23.4319   20.5543   14.3470 H         1 ADP500      0.0000 
     36 H          22.1918   19.4521   13.6593 H         1 ADP500      0.0000 
     37 H          22.1045   24.6737   12.8221 H         1 ADP500      0.0000 
     38 H          17.9866   21.3849    6.1377 H         1 ADP500      0.0000 
     39 H          18.0650   23.9442    7.7178 H         1 ADP500      0.0000 
@<TRIPOS>BOND
     1    2    1 ar   
     2    3    1 ar   
     3    4    1 ar   
     4    8    1 1    
     5    6    5 ar   
     6    7    5 ar   
     7    8    5 1    
     8    9    5 1    
     9   10    9 1    
    10   11   10 1    
    11   28   10 1    
    12   29   10 1    
    13   12   11 1    
    14   13   11 1    
    15   30   11 1    
    16   17   12 1    
    17   14   13 1    
    18   15   13 1    
    19   31   13 1    
    20   38   14 1    
    21   16   15 1    
    22   17   15 1    
    23   32   15 1    
    24   39   16 1    
    25   18   17 1    
    26   33   17 1    
    27   19   18 1    
    28   27   18 1    
    29   20   19 2    
    30   34   19 1    
    31   21   20 1    
    32   22   21 ar   
    33   27   21 ar   
    34   23   22 1    
    35   24   22 ar   
    36   35   23 1    
    37   36   23 1    
    38   25   24 ar   
    39   26   25 ar   
    40   37   25 1    
    41   27   26 ar   
@<TRIPOS>SUBSTRUCTURE
     1 ADP500      1 GROUP   
@<TRIPOS>SET

