#    Name: 3lfs_A07_1_INTS_M
#    Modification time : Mon Mar 24 21:37:01 2014

@<TRIPOS>MOLECULE
3lfs_A07_1_INTS_M
   57     0     9     0     0
SMALL
NO_CHARGES


@<TRIPOS>ATOM
      1 CA         36.4465   -8.4480   22.2720 C.3       3 GLC5        0.0000 
      2 CA         37.9800   -7.6880   22.8980 C.3       9 GLL5        0.0000 
      3 CA         34.9130   -9.2080   21.6460 C.3       6 GLP5        0.0000 
      4 CA         41.3190   -4.8245   25.6080 C.3       3 GLC5        0.0000 
      5 CA         40.2440   -6.5870   25.8510 C.3       9 GLL5        0.0000 
      6 CA         42.3940   -3.0620   25.3650 C.3       6 GLP5        0.0000 
      7 CA         40.4140   -3.9905   25.9860 C.3       3 GLC5        0.0000 
      8 CA         39.8200   -5.6070   26.7540 C.3       9 GLL5        0.0000 
      9 CA         41.0080   -2.3740   25.2180 C.3       6 GLP5        0.0000 
     10 CA         40.0280   -9.0585   20.4590 C.3       3 GLC5        0.0000 
     11 CA         39.8160   -9.6030   22.4150 C.3       9 GLL5        0.0000 
     12 CA         40.2400   -8.5140   18.5030 C.3       6 GLP5        0.0000 
     13 CA         38.6565  -10.4475   21.0920 C.3       3 GLC5        0.0000 
     14 CA         37.4970  -11.2920   19.7690 C.3       6 GLP5        0.0000 
     15 CA         39.5110  -10.8075   25.9265 C.3       3 GLC5        0.0000 
     16 CA         40.9560   -9.4580   24.9590 C.3       9 GLL5        0.0000 
     17 CA         38.0660  -12.1570   26.8940 C.3       6 GLP5        0.0000 
     18 O          41.4070  -11.7560   20.6530 O.2       1 ALC1        0.0000 
     19 O          41.5610  -11.3490   22.0640 O.2       7 ALL1        0.0000 
     20 O          41.2530  -12.1630   19.2420 O.2       4 ALP1        0.0000 
     21 N          43.6080  -12.4285   21.7400 N.am      2 SEC2        0.0000 
     22 N          42.4290  -11.8890   22.7660 N.am      8 SEL2        0.0000 
     23 N          44.7870  -12.9680   20.7140 N.am      5 SEP2        0.0000 
     24 O          44.5950  -12.1720   24.0470 O.2       1 ALC1        0.0000 
     25 O          43.3290  -11.7590   24.9180 O.2       7 ALL1        0.0000 
     26 O          45.8610  -12.5850   23.1760 O.2       4 ALP1        0.0000 
     27 CA         42.9910  -13.2010   26.8050 C.3       3 GLC5        0.0000 
     28 CA         44.5440  -12.1110   26.9810 C.3       9 GLL5        0.0000 
     29 CA         41.4380  -14.2910   26.6290 C.3       6 GLP5        0.0000 
     30 CA         46.3495   -8.2130   27.1230 C.3       3 GLC5        0.0000 
     31 CA         45.8560   -9.9340   27.2150 C.3       9 GLL5        0.0000 
     32 CA         46.8430   -6.4920   27.0310 C.3       6 GLP5        0.0000 
     33 CA         45.2430   -8.8050   25.6945 C.3       3 GLC5        0.0000 
     34 CA         44.6300   -7.6760   24.1740 C.3       6 GLP5        0.0000 
     35 CA         36.9823   -6.5183   28.9712 C.3       3 GLC5        0.0000 
     36 CA         37.7640   -6.8320   27.1060 C.3       9 GLL5        0.0000 
     37 CA         35.7950   -6.7580   30.7000 C.3       6 GLP5        0.0000 
     38 CA         37.3368   -8.8927   27.3940 C.3       3 GLC5        0.0000 
     39 CA         36.7000  -10.4670   28.1400 C.3       6 GLP5        0.0000 
     40 CA         36.0858   -7.6288   26.0215 C.3       3 GLC5        0.0000 
     41 CA         38.1830   -7.8050   26.1900 C.3       9 GLL5        0.0000 
     42 CA         34.1980   -7.9390   25.3950 C.3       6 GLP5        0.0000 
     43 CA         41.4183   -8.6145   22.5180 C.3       3 GLC5        0.0000 
     44 CA         39.3150   -8.6950   23.3510 C.3       9 GLL5        0.0000 
     45 CA         43.2710   -8.0800   22.1530 C.3       6 GLP5        0.0000 
     46 CA         39.9634   -7.0756   22.4289 C.3       3 GLC5        0.0000 
     47 CA         40.6950   -5.2540   22.0880 C.3       6 GLP5        0.0000 
     48 CA         42.2115   -9.2523   22.7750 C.3       3 GLC5        0.0000 
     49 CA         40.8690  -10.4530   22.7620 C.3       9 GLL5        0.0000 
     50 CA         40.0469  -11.9185   22.9901 C.3       3 GLC5        0.0000 
     51 CA         41.4350  -10.3960   24.0320 C.3       9 GLL5        0.0000 
     52 CA         39.2050  -13.6250   22.6700 C.3       6 GLP5        0.0000 
     53 CA         41.8415   -8.5635   23.4763 C.3       3 GLC5        0.0000 
     54 CA         40.2734   -6.5702   23.6306 C.3       3 GLC5        0.0000 
     55 CA         39.8680   -8.6360   24.6400 C.3       9 GLL5        0.0000 
     56 CA         47.5443  -10.5365   26.2767 C.3       3 GLC5        0.0000 
     57 CA         49.1990  -10.3860   25.4800 C.3       6 GLP5        0.0000 
@<TRIPOS>BOND
@<TRIPOS>SUBSTRUCTURE
     1 ALC1       18 GROUP        1 X    ALC  0     ROOT ALC X 1
     2 SEC2       21 GROUP        1 X    SEC  0     **** SEC X 2
     3 GLC5        1 GROUP        1 X    GLC  0     **** GLC X 6
     4 ALP1       20 GROUP        1 Y    ALP  0     ROOT ALP Y 8
     5 SEP2       23 GROUP        1 Y    SEP  0     **** SEP Y 9
     6 GLP5        3 GROUP        1 Y    GLP  0     **** GLP Y 13
     7 ALL1       19 GROUP        1 Z    ALL  0     ROOT ALL Z 15
     8 SEL2       22 GROUP        1 Z    SEL  0     **** SEL Z 16
     9 GLL5        2 GROUP        1 Z    GLL  0     **** GLL Z 20
@<TRIPOS>SET

