#    Name: 3lfs_A07_1_ligand
#    Modification time : Mon Mar 24 21:37:01 2014

@<TRIPOS>MOLECULE
3lfs_A07_1_ligand
   38    40     1     0     0
SMALL
NO_CHARGES


@<TRIPOS>ATOM
      1 C1         39.4270   -7.6870   25.5620 C.ar      1 A07299      0.0000 
      2 CL1        37.9800   -7.6880   22.8980 Cl        1 A07299      0.0000 
      3 C2         40.2440   -6.5870   25.8510 C.ar      1 A07299      0.0000 
      4 C3         39.8200   -5.6070   26.7540 C.ar      1 A07299      0.0000 
      5 C4         38.5750   -5.7250   27.3790 C.ar      1 A07299      0.0000 
      6 C5         37.7640   -6.8320   27.1060 C.ar      1 A07299      0.0000 
      7 C6         38.1830   -7.8050   26.1900 C.ar      1 A07299      0.0000 
      8 C12        39.3150   -8.6950   23.3510 C.ar      1 A07299      0.0000 
      9 C13        39.8160   -9.6030   22.4150 C.ar      1 A07299      0.0000 
     10 C14        40.8690  -10.4530   22.7620 C.ar      1 A07299      0.0000 
     11 C15        41.4350  -10.3960   24.0320 C.ar      1 A07299      0.0000 
     12 C16        40.9560   -9.4580   24.9590 C.ar      1 A07299      0.0000 
     13 C17        39.8680   -8.6360   24.6400 C.ar      1 A07299      0.0000 
     14 N20        41.5610  -11.3490   22.0640 N.pl3     1 A07299      0.0000 
     15 N21        42.4290  -11.8890   22.7660 N.2       1 A07299      0.0000 
     16 C22        42.4770  -11.3210   23.9680 C.2       1 A07299      0.0000 
     17 N23        43.3290  -11.7590   24.9180 N.am      1 A07299      0.0000 
     18 C24        43.4730  -11.3490   26.1890 C.2       1 A07299      0.0000 
     19 C25        44.5440  -12.1110   26.9810 C.3       1 A07299      0.0000 
     20 C26        45.9230  -11.4400   26.9320 C.3       1 A07299      0.0000 
     21 C29        45.8560   -9.9340   27.2150 C.3       1 A07299      0.0000 
     22 O35        42.8300  -10.4590   26.7450 O.2       1 A07299      0.0000 
     23 H          41.1621   -6.5000   25.3955 H         1 A07299      0.0000 
     24 H          40.4221   -4.8022   26.9576 H         1 A07299      0.0000 
     25 H          38.2577   -5.0049   28.0336 H         1 A07299      0.0000 
     26 H          36.8578   -6.9320   27.5789 H         1 A07299      0.0000 
     27 H          37.5760   -8.6049   25.9800 H         1 A07299      0.0000 
     28 H          39.4110   -9.6456   21.4735 H         1 A07299      0.0000 
     29 H          41.4077   -9.3744   25.8786 H         1 A07299      0.0000 
     30 H          41.3659  -11.5293   21.0913 H         1 A07299      0.0000 
     31 H          44.0079  -12.5759   24.6016 H         1 A07299      0.0000 
     32 H          44.6281  -13.1287   26.5790 H         1 A07299      0.0000 
     33 H          44.2236  -12.1917   28.0275 H         1 A07299      0.0000 
     34 H          46.3618  -11.5981   25.9413 H         1 A07299      0.0000 
     35 H          46.5768  -11.9137   27.6717 H         1 A07299      0.0000 
     36 H          46.7608   -9.5094   27.1824 H         1 A07299      0.0000 
     37 H          45.2837   -9.4560   26.5486 H         1 A07299      0.0000 
     38 H          45.4748   -9.7427   28.1195 H         1 A07299      0.0000 
@<TRIPOS>BOND
     1    3    1 ar   
     2    7    1 ar   
     3   13    1 1    
     4    8    2 1    
     5    4    3 ar   
     6   23    3 1    
     7    5    4 ar   
     8   24    4 1    
     9    6    5 ar   
    10   25    5 1    
    11    7    6 ar   
    12   26    6 1    
    13   27    7 1    
    14    9    8 ar   
    15   13    8 ar   
    16   10    9 ar   
    17   28    9 1    
    18   11   10 ar   
    19   14   10 1    
    20   12   11 ar   
    21   16   11 1    
    22   13   12 ar   
    23   29   12 1    
    24   15   14 1    
    25   30   14 1    
    26   16   15 2    
    27   17   16 1    
    28   18   17 am   
    29   31   17 1    
    30   19   18 1    
    31   22   18 2    
    32   20   19 1    
    33   32   19 1    
    34   33   19 1    
    35   21   20 1    
    36   34   20 1    
    37   35   20 1    
    38   36   21 1    
    39   37   21 1    
    40   38   21 1    
@<TRIPOS>SUBSTRUCTURE
     1 A07299      1 GROUP   
@<TRIPOS>SET

