#    Name: 3okf_NAD_2_INTS_M
#    Modification time : Tue Mar 25 04:48:03 2014

@<TRIPOS>MOLECULE
3okf_NAD_2_INTS_M
   81     0     9     0     0
SMALL
NO_CHARGES


@<TRIPOS>ATOM
      1 N         -60.7895  -27.4940  -12.9025 N.am      2 SEC2        0.0000 
      2 N         -62.2050  -27.6430  -12.4300 N.am      8 SEL2        0.0000 
      3 N         -59.3740  -27.3450  -13.3750 N.am      5 SEP2        0.0000 
      4 CA        -65.1400  -29.3775  -10.7465 C.3       3 GLC5        0.0000 
      5 CA        -66.0500  -28.3030  -12.3140 C.3       9 GLL5        0.0000 
      6 CA        -64.2300  -30.4520   -9.1790 C.3       6 GLP5        0.0000 
      7 CA        -67.7200  -29.7870  -12.1990 C.3       3 GLC5        0.0000 
      8 CA        -69.3900  -31.2710  -12.0840 C.3       6 GLP5        0.0000 
      9 O         -66.6815  -23.7505  -12.5035 O.2       1 ALC1        0.0000 
     10 O         -67.4990  -24.9300  -12.1110 O.2       7 ALL1        0.0000 
     11 O         -65.8640  -22.5710  -12.8960 O.2       4 ALP1        0.0000 
     12 N         -65.0070  -23.3760   -9.9885 N.am      2 SEC2        0.0000 
     13 N         -66.4580  -24.1080  -10.0420 N.am      8 SEL2        0.0000 
     14 N         -63.5560  -22.6440   -9.9350 N.am      5 SEP2        0.0000 
     15 O         -66.1610  -23.3395  -11.4690 O.2       1 ALC1        0.0000 
     16 O         -66.4580  -24.1080  -10.0420 O.2       7 ALL1        0.0000 
     17 O         -66.9330  -23.1040  -10.7235 O.2       1 ALC1        0.0000 
     18 O         -67.4080  -22.1000  -11.4050 O.2       4 ALP1        0.0000 
     19 N         -64.0525  -28.0100   -6.2075 N.am      2 SEC2        0.0000 
     20 N         -65.4110  -28.0300   -6.7890 N.am      8 SEL2        0.0000 
     21 N         -62.6940  -27.9900   -5.6260 N.am      5 SEP2        0.0000 
     22 CA        -64.6820  -28.3240   -5.3805 C.3       3 GLC5        0.0000 
     23 CA        -66.6600  -27.8590   -6.3250 C.3       9 GLL5        0.0000 
     24 CA        -62.7040  -28.7890   -4.4360 C.3       6 GLP5        0.0000 
     25 O         -65.5365  -29.8610   -4.7970 O.2       1 ALC1        0.0000 
     26 O         -66.6020  -28.8580   -4.2070 O.2       7 ALL1        0.0000 
     27 O         -64.4710  -30.8640   -5.3870 O.2       4 ALP1        0.0000 
     28 O         -68.1120  -28.6000   -3.3640 O.2       1 ALC1        0.0000 
     29 O         -69.6220  -28.3420   -2.5210 O.2       4 ALP1        0.0000 
     30 N         -69.1040  -28.1290   -3.7490 N.am      2 SEC2        0.0000 
     31 N         -68.5860  -27.9160   -4.9770 N.am      8 SEL2        0.0000 
     32 N         -69.6220  -28.3420   -2.5210 N.am      5 SEP2        0.0000 
     33 CA        -69.0120  -25.8955   -4.4765 C.3       3 GLC5        0.0000 
     34 CA        -69.2820  -27.2680   -5.9340 C.3       9 GLL5        0.0000 
     35 CA        -68.7420  -24.5230   -3.0190 C.3       6 GLP5        0.0000 
     36 CA        -70.1555  -27.8640   -4.0965 C.3       3 GLC5        0.0000 
     37 CA        -71.0290  -28.4600   -2.2590 C.3       6 GLP5        0.0000 
     38 CA        -69.7110  -29.1630   -6.0120 C.3       3 GLC5        0.0000 
     39 CA        -70.1400  -31.0580   -6.0900 C.3       6 GLP5        0.0000 
     40 CA        -70.2120  -28.5095   -7.2170 C.3       3 GLC5        0.0000 
     41 CA        -71.1420  -29.7510   -8.5000 C.3       6 GLP5        0.0000 
     42 N         -61.1655  -29.8755  -11.6730 N.am      2 SEC2        0.0000 
     43 N         -62.4040  -30.4870  -11.9170 N.am      8 SEL2        0.0000 
     44 N         -59.9270  -29.2640  -11.4290 N.am      5 SEP2        0.0000 
     45 N         -62.4320  -31.2395  -10.7880 N.am      2 SEC2        0.0000 
     46 N         -62.4600  -31.9920   -9.6590 N.am      5 SEP2        0.0000 
     47 N         -57.8460  -28.1120  -18.2135 N.am      2 SEC2        0.0000 
     48 N         -59.0970  -28.6430  -17.8530 N.am      8 SEL2        0.0000 
     49 N         -56.5950  -27.5810  -18.5740 N.am      5 SEP2        0.0000 
     50 O         -60.0125  -27.9070  -18.4410 O.2       1 ALC1        0.0000 
     51 O         -59.0970  -28.6430  -17.8530 O.2       7 ALL1        0.0000 
     52 O         -60.9280  -27.1710  -19.0290 O.2       4 ALP1        0.0000 
     53 N         -56.6140  -30.4290  -19.8095 N.am      2 SEC2        0.0000 
     54 N         -57.5740  -30.6860  -18.6180 N.am      8 SEL2        0.0000 
     55 N         -55.6540  -30.1720  -21.0010 N.am      5 SEP2        0.0000 
     56 CA        -58.2775  -30.2000  -14.2710 C.3       3 GLC5        0.0000 
     57 CA        -57.7450  -30.9250  -16.2150 C.3       9 GLL5        0.0000 
     58 CA        -58.8100  -29.4750  -12.3270 C.3       6 GLP5        0.0000 
     59 O         -53.4600  -30.8130  -14.5450 O.2       1 ALC1        0.0000 
     60 O         -53.1660  -32.0650  -14.4760 O.2       7 ALL1        0.0000 
     61 O         -53.7540  -29.5610  -14.6140 O.2       4 ALP1        0.0000 
     62 O         -51.8905  -31.4185  -14.3430 O.2       1 ALC1        0.0000 
     63 O         -50.6150  -30.7720  -14.2100 O.2       4 ALP1        0.0000 
     64 CA        -65.7272  -25.9745   -6.5175 C.3       3 GLC5        0.0000 
     65 CA        -64.4270  -24.4170   -6.2250 C.3       6 GLP5        0.0000 
     66 CA        -67.4649  -29.3114   -7.2964 C.3       3 GLC5        0.0000 
     67 CA        -67.7440  -31.0000   -8.0740 C.3       6 GLP5        0.0000 
     68 CA        -59.6325  -29.7890  -14.0150 C.3       3 GLC5        0.0000 
     69 CA        -61.1370  -30.3690  -15.5120 C.3       9 GLL5        0.0000 
     70 CA        -60.8210  -28.0890  -15.5775 C.3       3 GLC5        0.0000 
     71 CA        -59.7730  -29.8370  -15.8940 C.3       9 GLL5        0.0000 
     72 CA        -61.1870  -26.0750  -15.4520 C.3       6 GLP5        0.0000 
     73 CA        -55.0087  -33.9913  -12.9890 C.3       3 GLC5        0.0000 
     74 CA        -55.1500  -33.3130  -15.1360 C.3       9 GLL5        0.0000 
     75 CA        -54.5230  -34.0660  -10.8580 C.3       6 GLP5        0.0000 
     76 CA        -56.7095  -35.8528  -14.1352 C.3       3 GLC5        0.0000 
     77 CA        -55.8390  -34.5200  -15.1040 C.3       9 GLL5        0.0000 
     78 CA        -56.9080  -37.1760  -12.9980 C.3       6 GLP5        0.0000 
     79 CA        -58.8750  -34.3222  -14.6828 C.3       3 GLC5        0.0000 
     80 CA        -57.1830  -34.5390  -15.4410 C.3       9 GLL5        0.0000 
     81 CA        -60.2580  -34.7040  -13.7400 C.3       6 GLP5        0.0000 
@<TRIPOS>BOND
@<TRIPOS>SUBSTRUCTURE
     1 ALC1        9 GROUP        1 X    ALC  0     ROOT ALC X 1
     2 SEC2        1 GROUP        1 X    SEC  0     **** SEC X 2
     3 GLC5        4 GROUP        1 X    GLC  0     **** GLC X 6
     4 ALP1       11 GROUP        1 Y    ALP  0     ROOT ALP Y 8
     5 SEP2        3 GROUP        1 Y    SEP  0     **** SEP Y 9
     6 GLP5        6 GROUP        1 Y    GLP  0     **** GLP Y 13
     7 ALL1       10 GROUP        1 Z    ALL  0     ROOT ALL Z 15
     8 SEL2        2 GROUP        1 Z    SEL  0     **** SEL Z 16
     9 GLL5        5 GROUP        1 Z    GLL  0     **** GLL Z 20
@<TRIPOS>SET

