#    Name: 3okf_NAD_2_ligand
#    Modification time : Tue Mar 25 04:48:03 2014

@<TRIPOS>MOLECULE
3okf_NAD_2_ligand
   70    74     1     0     0
SMALL
NO_CHARGES


@<TRIPOS>ATOM
      1 PA        -63.5430  -27.8880  -13.0830 P.3       1 NAD367      0.0000 
      2 O1A       -62.2050  -27.6430  -12.4300 O.co2     1 NAD367      0.0000 
      3 O2A       -64.1410  -26.9150  -14.0780 O.co2     1 NAD367      0.0000 
      4 O5B       -64.6720  -28.1080  -11.9370 O.3       1 NAD367      0.0000 
      5 C5B       -66.0500  -28.3030  -12.3140 C.3       1 NAD367      0.0000 
      6 C4B       -67.0020  -27.2260  -11.7710 C.3       1 NAD367      0.0000 
      7 O4B       -67.3400  -27.4870  -10.4080 O.3       1 NAD367      0.0000 
      8 C3B       -66.4560  -25.8170  -11.7450 C.3       1 NAD367      0.0000 
      9 O3B       -67.4990  -24.9300  -12.1110 O.3       1 NAD367      0.0000 
     10 C2B       -66.1330  -25.4720  -10.3150 C.3       1 NAD367      0.0000 
     11 O2B       -66.4580  -24.1080  -10.0420 O.3       1 NAD367      0.0000 
     12 C1B       -67.0740  -26.3580   -9.5530 C.3       1 NAD367      0.0000 
     13 N9A       -66.5860  -26.9710   -8.3120 N.pl3     1 NAD367      0.0000 
     14 C8A       -65.3840  -27.4890   -8.0360 C.2       1 NAD367      0.0000 
     15 N7A       -65.4110  -28.0300   -6.7890 N.2       1 NAD367      0.0000 
     16 C5A       -66.6600  -27.8590   -6.3250 C.ar      1 NAD367      0.0000 
     17 C6A       -67.2930  -28.2220   -5.1600 C.ar      1 NAD367      0.0000 
     18 N6A       -66.6020  -28.8580   -4.2070 N.pl3     1 NAD367      0.0000 
     19 N1A       -68.5860  -27.9160   -4.9770 N.ar      1 NAD367      0.0000 
     20 C2A       -69.2820  -27.2680   -5.9340 C.ar      1 NAD367      0.0000 
     21 N3A       -68.7130  -26.9180   -7.0960 N.ar      1 NAD367      0.0000 
     22 C4A       -67.3950  -27.2050   -7.2950 C.ar      1 NAD367      0.0000 
     23 O3        -63.4670  -29.2860  -13.8720 O.3       1 NAD367      0.0000 
     24 PN        -62.6480  -30.5670  -13.4010 P.3       1 NAD367      0.0000 
     25 O1N       -62.4040  -30.4870  -11.9170 O.co2     1 NAD367      0.0000 
     26 O2N       -63.2630  -31.7630  -14.0790 O.co2     1 NAD367      0.0000 
     27 O5D       -61.2120  -30.4380  -14.0970 O.3       1 NAD367      0.0000 
     28 C5D       -61.1370  -30.3690  -15.5120 C.3       1 NAD367      0.0000 
     29 C4D       -59.7730  -29.8370  -15.8940 C.3       1 NAD367      0.0000 
     30 O4D       -58.7650  -30.6290  -15.2670 O.3       1 NAD367      0.0000 
     31 C3D       -59.5380  -29.9140  -17.3870 C.3       1 NAD367      0.0000 
     32 O3D       -59.0970  -28.6430  -17.8530 O.3       1 NAD367      0.0000 
     33 C2D       -58.4580  -30.9620  -17.5470 C.3       1 NAD367      0.0000 
     34 O2D       -57.5740  -30.6860  -18.6180 O.3       1 NAD367      0.0000 
     35 C1D       -57.7450  -30.9250  -16.2150 C.3       1 NAD367      0.0000 
     36 N1N       -57.1040  -32.1800  -15.8460 N.pl3     1 NAD367      0.0000 
     37 C2N       -55.8090  -32.1500  -15.5160 C.ar      1 NAD367      0.0000 
     38 C3N       -55.1500  -33.3130  -15.1360 C.ar      1 NAD367      0.0000 
     39 C7N       -53.7020  -33.2370  -14.7670 C.2       1 NAD367      0.0000 
     40 O7N       -52.9620  -34.3330  -14.7260 O.2       1 NAD367      0.0000 
     41 N7N       -53.1660  -32.0650  -14.4760 N.am      1 NAD367      0.0000 
     42 C4N       -55.8390  -34.5200  -15.1040 C.ar      1 NAD367      0.0000 
     43 C5N       -57.1830  -34.5390  -15.4410 C.ar      1 NAD367      0.0000 
     44 C6N       -57.8010  -33.3420  -15.8100 C.ar      1 NAD367      0.0000 
     45 H         -66.4260  -29.2864  -11.9587 H         1 NAD367      0.0000 
     46 H         -66.1634  -28.3179  -13.4192 H         1 NAD367      0.0000 
     47 H         -67.9105  -27.2223  -12.3692 H         1 NAD367      0.0000 
     48 H         -65.6106  -25.7328  -12.3373 H         1 NAD367      0.0000 
     49 H         -65.1503  -25.7371  -10.0995 H         1 NAD367      0.0000 
     50 H         -68.0036  -25.8437   -9.3779 H         1 NAD367      0.0000 
     51 H         -64.6110  -27.4856   -8.6215 H         1 NAD367      0.0000 
     52 H         -66.8855  -28.6798   -3.2647 H         1 NAD367      0.0000 
     53 H         -65.8640  -29.4546   -4.5225 H         1 NAD367      0.0000 
     54 H         -70.2941  -27.0338   -5.7606 H         1 NAD367      0.0000 
     55 H         -61.8924  -29.6969  -15.9285 H         1 NAD367      0.0000 
     56 H         -61.2602  -31.3516  -15.9757 H         1 NAD367      0.0000 
     57 H         -59.6955  -28.8099  -15.5868 H         1 NAD367      0.0000 
     58 H         -60.4235  -30.2528  -17.8514 H         1 NAD367      0.0000 
     59 H         -58.9406  -31.9192  -17.6271 H         1 NAD367      0.0000 
     60 H         -57.0305  -30.1174  -16.2396 H         1 NAD367      0.0000 
     61 H         -55.2689  -31.2599  -15.5363 H         1 NAD367      0.0000 
     62 H         -53.7898  -31.2834  -14.4770 H         1 NAD367      0.0000 
     63 H         -52.1852  -32.0659  -14.2812 H         1 NAD367      0.0000 
     64 H         -55.3582  -35.3821  -14.8348 H         1 NAD367      0.0000 
     65 H         -57.7155  -35.4083  -15.4215 H         1 NAD367      0.0000 
     66 H         -58.8108  -33.3615  -16.0574 H         1 NAD367      0.0000 
     67 H         -67.0602  -24.2365  -12.6823 H         1 NAD367      0.0000 
     68 H         -66.7786  -23.7389  -10.9143 H         1 NAD367      0.0000 
     69 H         -59.9147  -28.2076  -18.2295 H         1 NAD367      0.0000 
     70 H         -57.8202  -29.7672  -18.9264 H         1 NAD367      0.0000 
@<TRIPOS>BOND
     1    2    1 ar   
     2    3    1 ar   
     3    4    1 1    
     4   23    1 1    
     5    5    4 1    
     6    6    5 1    
     7   45    5 1    
     8   46    5 1    
     9    7    6 1    
    10    8    6 1    
    11   47    6 1    
    12   12    7 1    
    13    9    8 1    
    14   10    8 1    
    15   48    8 1    
    16   67    9 1    
    17   11   10 1    
    18   12   10 1    
    19   49   10 1    
    20   68   11 1    
    21   13   12 1    
    22   50   12 1    
    23   14   13 1    
    24   22   13 1    
    25   15   14 2    
    26   51   14 1    
    27   16   15 1    
    28   17   16 ar   
    29   22   16 ar   
    30   18   17 1    
    31   19   17 ar   
    32   52   18 1    
    33   53   18 1    
    34   20   19 ar   
    35   21   20 ar   
    36   54   20 1    
    37   22   21 ar   
    38   24   23 1    
    39   25   24 ar   
    40   26   24 ar   
    41   27   24 1    
    42   28   27 1    
    43   29   28 1    
    44   55   28 1    
    45   56   28 1    
    46   30   29 1    
    47   31   29 1    
    48   57   29 1    
    49   35   30 1    
    50   32   31 1    
    51   33   31 1    
    52   58   31 1    
    53   69   32 1    
    54   34   33 1    
    55   35   33 1    
    56   59   33 1    
    57   70   34 1    
    58   36   35 1    
    59   60   35 1    
    60   37   36 ar   
    61   44   36 ar   
    62   38   37 ar   
    63   61   37 1    
    64   39   38 1    
    65   42   38 ar   
    66   40   39 2    
    67   41   39 am   
    68   62   41 1    
    69   63   41 1    
    70   43   42 ar   
    71   64   42 1    
    72   44   43 ar   
    73   65   43 1    
    74   66   44 1    
@<TRIPOS>SUBSTRUCTURE
     1 NAD367      1 GROUP   
@<TRIPOS>SET

