#    Name: 3zc5_W9Z_1_INTS_M
#    Modification time : Tue Mar 25 02:41:42 2014

@<TRIPOS>MOLECULE
3zc5_W9Z_1_INTS_M
   66     0     6     0     0
SMALL
NO_CHARGES


@<TRIPOS>ATOM
      1 CA         24.8700   84.5125    5.9550 C.3       2 GLC5        0.0000 
      2 CA         23.5420   85.9150    5.1940 C.3       6 GLL5        0.0000 
      3 CA         26.1980   83.1100    6.7160 C.3       4 GLP5        0.0000 
      4 N          26.0745   85.5505    5.7130 N.am      1 SEC2        0.0000 
      5 N          24.8680   85.8070    4.8700 N.am      5 SEL2        0.0000 
      6 N          27.2810   85.2940    6.5560 N.am      3 SEP2        0.0000 
      7 CA         24.3840   84.7040    7.3220 C.3       2 GLC5        0.0000 
      8 CA         23.1980   86.0620    6.5600 C.3       6 GLL5        0.0000 
      9 CA         25.5700   83.3460    8.0840 C.3       4 GLP5        0.0000 
     10 CA         18.8700   87.5475    4.9550 C.3       2 GLC5        0.0000 
     11 CA         19.2610   86.3650    6.5320 C.3       6 GLL5        0.0000 
     12 CA         18.4790   88.7300    3.3780 C.3       4 GLP5        0.0000 
     13 CA         17.4075   85.9535    6.1740 C.3       2 GLC5        0.0000 
     14 CA         15.5540   85.5420    5.8160 C.3       4 GLP5        0.0000 
     15 N          17.6445   82.7670    9.6610 N.am      1 SEC2        0.0000 
     16 N          18.3070   83.5700    8.6150 N.am      5 SEL2        0.0000 
     17 N          16.9820   81.9640   10.7070 N.am      3 SEP2        0.0000 
     18 CA         19.9065   81.5825    4.6990 C.3       2 GLC5        0.0000 
     19 CA         18.2280   81.9830    3.3710 C.3       6 GLL5        0.0000 
     20 CA         21.5850   81.1820    6.0270 C.3       4 GLP5        0.0000 
     21 CA         16.3950   81.9205    4.3110 C.3       2 GLC5        0.0000 
     22 CA         17.9190   81.2890    5.8060 C.3       6 GLL5        0.0000 
     23 CA         14.8710   82.5520    2.8160 C.3       4 GLP5        0.0000 
     24 CA         18.7730   81.3955    8.8180 C.3       2 GLC5        0.0000 
     25 CA         17.9130   81.6290    7.1920 C.3       6 GLL5        0.0000 
     26 CA         19.6330   81.1620   10.4440 C.3       4 GLP5        0.0000 
     27 CA         16.4810   81.4505    8.2790 C.3       2 GLC5        0.0000 
     28 CA         15.0490   81.2720    9.3660 C.3       4 GLP5        0.0000 
     29 CA         18.4655   89.3570    7.4080 C.3       2 GLC5        0.0000 
     30 CA         19.3520   87.4690    7.6100 C.3       6 GLL5        0.0000 
     31 CA         17.5790   91.2450    7.2060 C.3       4 GLP5        0.0000 
     32 CA         19.7455   88.6575    8.7790 C.3       2 GLC5        0.0000 
     33 CA         20.1390   89.8460    9.9480 C.3       4 GLP5        0.0000 
     34 CA         18.2360   86.9845    9.3805 C.3       2 GLC5        0.0000 
     35 CA         17.1200   86.5000   11.1510 C.3       4 GLP5        0.0000 
     36 CA         23.4330   87.5880    3.1410 C.3       2 GLC5        0.0000 
     37 CA         22.4700   85.8890    4.2070 C.3       6 GLL5        0.0000 
     38 CA         24.3960   89.2870    2.0750 C.3       4 GLP5        0.0000 
     39 CA         23.0660   87.3505    1.9590 C.3       2 GLC5        0.0000 
     40 CA         22.8500   85.7360    2.8360 C.3       6 GLL5        0.0000 
     41 CA         23.2820   88.9650    1.0820 C.3       4 GLP5        0.0000 
     42 CA         26.3605   84.7620    5.0275 C.3       2 GLC5        0.0000 
     43 CA         25.2060   85.6650    3.5510 C.3       6 GLL5        0.0000 
     44 CA         27.5150   83.8590    6.5040 C.3       4 GLP5        0.0000 
     45 CA         22.9695   84.2257    5.5980 C.3       2 GLC5        0.0000 
     46 CA         22.5690   82.4630    5.3190 C.3       4 GLP5        0.0000 
     47 CA         22.5633   87.8155    6.3197 C.3       2 GLC5        0.0000 
     48 CA         21.8390   86.1920    6.9630 C.3       6 GLL5        0.0000 
     49 CA         23.8350   89.4440    6.1510 C.3       4 GLP5        0.0000 
     50 CA         21.9303   84.3250    5.9038 C.3       2 GLC5        0.0000 
     51 CA         20.8705   87.8220    4.5305 C.3       2 GLC5        0.0000 
     52 CA         20.7440   86.1820    6.0140 C.3       6 GLL5        0.0000 
     53 CA         20.8300   89.5410    3.7430 C.3       4 GLP5        0.0000 
     54 CA         19.4828   79.9648    3.2252 C.3       2 GLC5        0.0000 
     55 CA         20.8960   78.5470    3.3880 C.3       4 GLP5        0.0000 
     56 CA         16.4703   81.9673    2.9392 C.3       2 GLC5        0.0000 
     57 CA         17.9110   80.7820    2.7540 C.3       6 GLL5        0.0000 
     58 CA         17.4450   79.6685    6.9165 C.3       2 GLC5        0.0000 
     59 CA         16.9740   77.8780    7.3340 C.3       4 GLP5        0.0000 
     60 CA         19.7505   81.3205    6.2630 C.3       2 GLC5        0.0000 
     61 CA         21.7450   87.6767    3.6322 C.3       2 GLC5        0.0000 
     62 CA         23.3775   87.6914    5.5965 C.3       2 GLC5        0.0000 
     63 CA         22.4405   84.1546    4.4721 C.3       2 GLC5        0.0000 
     64 CA         21.0780   86.0240    4.6220 C.3       6 GLL5        0.0000 
     65 CA         24.5590   87.4650    2.5500 C.3       2 GLC5        0.0000 
     66 CA         24.2380   85.6210    2.4990 C.3       6 GLL5        0.0000 
@<TRIPOS>BOND
@<TRIPOS>SUBSTRUCTURE
     1 SEC2        4 GROUP        1 X    SEC  0     ROOT SEC X 2
     2 GLC5        1 GROUP        1 X    GLC  0     **** GLC X 6
     3 SEP2        6 GROUP        1 Y    SEP  0     ROOT SEP Y 9
     4 GLP5        3 GROUP        1 Y    GLP  0     **** GLP Y 13
     5 SEL2        5 GROUP        1 Z    SEL  0     ROOT SEL Z 16
     6 GLL5        2 GROUP        1 Z    GLL  0     **** GLL Z 20
@<TRIPOS>SET

