#    Name: 3zc5_W9Z_1_ligand
#    Modification time : Tue Mar 25 02:41:42 2014

@<TRIPOS>MOLECULE
3zc5_W9Z_1_ligand
   44    48     1     0     0
SMALL
NO_CHARGES


@<TRIPOS>ATOM
      1 C1         23.5420   85.9150    5.1940 C.ar      1 W9Z2345     0.0000 
      2 N1         24.8680   85.8070    4.8700 N.ar      1 W9Z2345     0.0000 
      3 C2         23.1980   86.0620    6.5600 C.ar      1 W9Z2345     0.0000 
      4 N2         18.5720   83.8540    6.4710 N.pl3     1 W9Z2345     0.0000 
      5 C3         21.8390   86.1920    6.9630 C.ar      1 W9Z2345     0.0000 
      6 N3         18.5880   83.5670    5.1940 N.2       1 W9Z2345     0.0000 
      7 C4         20.7440   86.1820    6.0140 C.ar      1 W9Z2345     0.0000 
      8 N4         18.3780   82.2900    1.1570 N.2       1 W9Z2345     0.0000 
      9 C5         19.2610   86.3650    6.5320 C.3       1 W9Z2345     0.0000 
     10 N5         18.0270   81.0630    1.3950 N.pl3     1 W9Z2345     0.0000 
     11 C6         18.8360   85.0240    7.1440 C.2       1 W9Z2345     0.0000 
     12 N6         18.3070   83.5700    8.6150 N.2       1 W9Z2345     0.0000 
     13 C7         18.2560   82.2920    4.8290 C.2       1 W9Z2345     0.0000 
     14 C8         18.2280   81.9830    3.3710 C.2       1 W9Z2345     0.0000 
     15 C9         18.5210   82.9110    2.2770 C.2       1 W9Z2345     0.0000 
     16 C10        17.9110   80.7820    2.7540 C.2       1 W9Z2345     0.0000 
     17 N10        18.6540   84.8030    8.4100 N.2       1 W9Z2345     0.0000 
     18 C11        17.7770   80.0700    0.3510 C.3       1 W9Z2345     0.0000 
     19 C12        17.9190   81.2890    5.8060 C.2       1 W9Z2345     0.0000 
     20 C13        17.9130   81.6290    7.1920 C.2       1 W9Z2345     0.0000 
     21 C14        18.2470   82.9660    7.4830 C.2       1 W9Z2345     0.0000 
     22 C15        19.3520   87.4690    7.6100 C.3       1 W9Z2345     0.0000 
     23 C16        21.0780   86.0240    4.6220 C.ar      1 W9Z2345     0.0000 
     24 C17        22.4700   85.8890    4.2070 C.ar      1 W9Z2345     0.0000 
     25 C18        22.8500   85.7360    2.8360 C.ar      1 W9Z2345     0.0000 
     26 C19        24.2380   85.6210    2.4990 C.ar      1 W9Z2345     0.0000 
     27 C20        25.2060   85.6650    3.5510 C.ar      1 W9Z2345     0.0000 
     28 H          23.9364   86.0753    7.2714 H         1 W9Z2345     0.0000 
     29 H          21.6147   86.2976    7.9631 H         1 W9Z2345     0.0000 
     30 H          18.6643   86.6495    5.7485 H         1 W9Z2345     0.0000 
     31 H          18.7715   83.8190    2.4681 H         1 W9Z2345     0.0000 
     32 H          17.6777   79.9831    3.1480 H         1 W9Z2345     0.0000 
     33 H          17.6889   80.3513    5.5059 H         1 W9Z2345     0.0000 
     34 H          17.6898   80.9688    7.8887 H         1 W9Z2345     0.0000 
     35 H          20.3484   86.0055    3.9212 H         1 W9Z2345     0.0000 
     36 H          22.1466   85.7092    2.1113 H         1 W9Z2345     0.0000 
     37 H          24.5245   85.5116    1.5417 H         1 W9Z2345     0.0000 
     38 H          26.2122   85.5828    3.2736 H         1 W9Z2345     0.0000 
     39 H          18.5845   79.9194   -0.2193 H         1 W9Z2345     0.0000 
     40 H          17.5203   79.1833    0.7356 H         1 W9Z2345     0.0000 
     41 H          17.0357   80.3507   -0.2587 H         1 W9Z2345     0.0000 
     42 H          19.9567   87.2053    8.3616 H         1 W9Z2345     0.0000 
     43 H          19.7066   88.3256    7.2353 H         1 W9Z2345     0.0000 
     44 H          18.4583   87.6719    8.0102 H         1 W9Z2345     0.0000 
@<TRIPOS>BOND
     1    2    1 ar   
     2    3    1 ar   
     3   24    1 ar   
     4   27    2 ar   
     5    5    3 ar   
     6   28    3 1    
     7    6    4 1    
     8   11    4 1    
     9   21    4 1    
    10    7    5 ar   
    11   29    5 1    
    12   13    6 2    
    13    9    7 1    
    14   23    7 ar   
    15   10    8 1    
    16   15    8 2    
    17   11    9 1    
    18   22    9 1    
    19   30    9 1    
    20   16   10 1    
    21   18   10 1    
    22   17   11 2    
    23   17   12 1    
    24   21   12 2    
    25   14   13 1    
    26   19   13 1    
    27   15   14 1    
    28   16   14 2    
    29   31   15 1    
    30   32   16 1    
    31   39   18 1    
    32   40   18 1    
    33   41   18 1    
    34   20   19 2    
    35   33   19 1    
    36   21   20 1    
    37   34   20 1    
    38   42   22 1    
    39   43   22 1    
    40   44   22 1    
    41   24   23 ar   
    42   35   23 1    
    43   25   24 ar   
    44   26   25 ar   
    45   36   25 1    
    46   27   26 ar   
    47   37   26 1    
    48   38   27 1    
@<TRIPOS>SUBSTRUCTURE
     1 W9Z2345     1 GROUP   
@<TRIPOS>SET

