#    Name: 3ewd_MCF_1_INTS_M
#    Modification time : Tue Mar 25 02:35:46 2014

@<TRIPOS>MOLECULE
3ewd_MCF_1_INTS_M
   69     0    12     0     0
SMALL
NO_CHARGES


@<TRIPOS>ATOM
      1 Zn        -10.4770   -1.3260  -24.8980 Zn        3 ZIC7        0.0000 
      2 Zn         -9.5280   -1.6190  -25.0260 Zn       11 ZIL7        0.0000 
      3 Zn        -11.4260   -1.0330  -24.7700 Zn        7 ZIP7        0.0000 
      4 N          -8.8660   -0.3110  -25.1745 N.am      2 SEC2        0.0000 
      5 N          -9.5280   -1.6190  -25.0260 N.am     10 SEL2        0.0000 
      6 N          -8.2040    0.9970  -25.3230 N.am      6 SEP2        0.0000 
      7 O          -9.0885   -1.3795  -23.7980 O.2       1 ALC1        0.0000 
      8 O          -9.5280   -1.6190  -25.0260 O.2       9 ALL1        0.0000 
      9 O          -8.6490   -1.1400  -22.5700 O.2       5 ALP1        0.0000 
     10 CA         -9.9970   -1.5730  -26.4085 C.3       4 GLC5        0.0000 
     11 CA         -9.1400   -2.9800  -25.0870 C.3      12 GLL5        0.0000 
     12 CA        -10.8540   -0.1660  -27.7300 C.3       8 GLP5        0.0000 
     13 CA         -6.7450   -3.8300  -27.3055 C.3       4 GLC5        0.0000 
     14 CA         -7.9350   -3.1450  -25.9970 C.3      12 GLL5        0.0000 
     15 CA         -5.5550   -4.5150  -28.6140 C.3       8 GLP5        0.0000 
     16 CA         -6.0230   -3.4225  -25.3580 C.3       4 GLC5        0.0000 
     17 CA         -4.1110   -3.7000  -24.7190 C.3       8 GLP5        0.0000 
     18 O          -7.4790   -1.5380  -27.6280 O.2       1 ALC1        0.0000 
     19 O          -8.2340   -2.5630  -27.2840 O.2       9 ALL1        0.0000 
     20 O          -6.7240   -0.5130  -27.9720 O.2       5 ALP1        0.0000 
     21 O          -6.9155   -1.7215  -26.6950 O.2       1 ALC1        0.0000 
     22 O          -5.5970   -0.8800  -26.1060 O.2       5 ALP1        0.0000 
     23 CA         -7.2845   -3.8280  -28.3980 C.3       4 GLC5        0.0000 
     24 CA         -9.0140   -3.1410  -28.1820 C.3      12 GLL5        0.0000 
     25 CA        -10.7855   -3.0540  -29.5495 C.3       4 GLC5        0.0000 
     26 CA        -12.5570   -2.9670  -30.9170 C.3       8 GLP5        0.0000 
     27 CA         -9.5945   -4.5070  -29.8480 C.3       4 GLC5        0.0000 
     28 CA        -10.1750   -5.8730  -31.5140 C.3       8 GLP5        0.0000 
     29 CA         -9.9340   -1.6535  -27.9560 C.3       4 GLC5        0.0000 
     30 CA        -10.6525   -2.3325  -27.2920 C.3       4 GLC5        0.0000 
     31 CA        -10.4510   -4.4990  -26.8540 C.3      12 GLL5        0.0000 
     32 CA        -11.6935   -3.4540  -24.3850 C.3       4 GLC5        0.0000 
     33 CA        -10.1040   -4.0300  -25.5160 C.3      12 GLL5        0.0000 
     34 CA        -13.2830   -2.8780  -23.2540 C.3       8 GLP5        0.0000 
     35 N         -11.0525   -5.0650  -23.3400 N.am      2 SEC2        0.0000 
     36 N         -10.8060   -4.8880  -24.7030 N.am     10 SEL2        0.0000 
     37 N         -11.2990   -5.2420  -21.9770 N.am      6 SEP2        0.0000 
     38 CA         -9.5670   -7.2470  -26.3405 C.3       4 GLC5        0.0000 
     39 CA        -11.1420   -7.6330  -27.7660 C.3      12 GLL5        0.0000 
     40 CA         -7.9920   -6.8610  -24.9150 C.3       8 GLP5        0.0000 
     41 CA        -13.6165   -9.7820  -28.9520 C.3       4 GLC5        0.0000 
     42 CA        -13.1530   -8.0030  -27.8830 C.3      12 GLL5        0.0000 
     43 CA        -14.0800  -11.5610  -30.0210 C.3       8 GLP5        0.0000 
     44 CA        -14.0720   -7.3835  -29.6425 C.3       4 GLC5        0.0000 
     45 CA        -14.9910   -6.7640  -31.4020 C.3       8 GLP5        0.0000 
     46 CA        -12.4165  -10.3680  -29.0595 C.3       4 GLC5        0.0000 
     47 CA        -12.0100   -8.6520  -28.4400 C.3      12 GLL5        0.0000 
     48 CA        -12.8230  -12.0840  -29.6790 C.3       8 GLP5        0.0000 
     49 CA        -16.0405   -8.3630  -28.1665 C.3       4 GLC5        0.0000 
     50 CA        -14.2830   -8.8130  -27.3750 C.3      12 GLL5        0.0000 
     51 CA        -17.7980   -7.9130  -28.9580 C.3       8 GLP5        0.0000 
     52 CA        -14.7055  -10.2115  -28.2395 C.3       4 GLC5        0.0000 
     53 CA        -15.1280  -11.6100  -29.1040 C.3       8 GLP5        0.0000 
     54 CA        -12.6380   -8.7255  -24.3530 C.3       4 GLC5        0.0000 
     55 CA        -13.6500   -8.9460  -25.7750 C.3      12 GLL5        0.0000 
     56 CA        -11.6260   -8.5050  -22.9310 C.3       8 GLP5        0.0000 
     57 CA        -16.1780   -9.9690  -23.8900 C.3       4 GLC5        0.0000 
     58 CA        -14.5830  -10.2810  -25.0380 C.3      12 GLL5        0.0000 
     59 CA        -17.7730   -9.6570  -22.7420 C.3       8 GLP5        0.0000 
     60 CA        -13.6730   -9.6710  -23.5110 C.3       4 GLC5        0.0000 
     61 CA        -12.7630   -9.0610  -21.9840 C.3       8 GLP5        0.0000 
     62 CA        -15.5270  -12.2005  -24.4455 C.3       4 GLC5        0.0000 
     63 CA        -16.4710  -14.1200  -23.8530 C.3       8 GLP5        0.0000 
     64 CA         -8.2647   -4.9618  -25.2285 C.3       4 GLC5        0.0000 
     65 CA        -10.8480   -6.4175  -29.6680 C.3       4 GLC5        0.0000 
     66 CA        -10.5775   -9.6787  -27.0405 C.3       4 GLC5        0.0000 
     67 CA         -9.5790  -11.2150  -25.9780 C.3       8 GLP5        0.0000 
     68 CA        -14.5122  -10.9117  -26.6298 C.3       4 GLC5        0.0000 
     69 CA        -14.9080  -12.2100  -27.8530 C.3       8 GLP5        0.0000 
@<TRIPOS>BOND
@<TRIPOS>SUBSTRUCTURE
     1 ALC1        7 GROUP        1 X    ALC  0     ROOT ALC X 1
     2 SEC2        4 GROUP        1 X    SEC  0     **** SEC X 2
     3 ZIC7        1 GROUP        1 X    ZIC  0     **** ZIC X 5
     4 GLC5       10 GROUP        1 X    GLC  0     **** GLC X 6
     5 ALP1        9 GROUP        1 Y    ALP  0     ROOT ALP Y 8
     6 SEP2        6 GROUP        1 Y    SEP  0     **** SEP Y 9
     7 ZIP7        3 GROUP        1 Y    ZIP  0     **** ZIP Y 12
     8 GLP5       12 GROUP        1 Y    GLP  0     **** GLP Y 13
     9 ALL1        8 GROUP        1 Z    ALL  0     ROOT ALL Z 15
    10 SEL2        5 GROUP        1 Z    SEL  0     **** SEL Z 16
    11 ZIL7        2 GROUP        1 Z    ZIL  0     **** ZIL Z 19
    12 GLL5       11 GROUP        1 Z    GLL  0     **** GLL Z 20
@<TRIPOS>SET

