#    Name: 3ewd_MCF_1_ligand
#    Modification time : Tue Mar 25 02:35:46 2014

@<TRIPOS>MOLECULE
3ewd_MCF_1_ligand
   40    42     1     0     0
SMALL
NO_CHARGES


@<TRIPOS>ATOM
      1 O8         -9.5280   -1.6190  -25.0260 O.3       1 MCF372      0.0000 
      2 C8         -9.1400   -2.9800  -25.0870 C.3       1 MCF372      0.0000 
      3 C7         -7.9350   -3.1450  -25.9970 C.3       1 MCF372      0.0000 
      4 N6         -8.2340   -2.5630  -27.2840 N.pl3     1 MCF372      0.0000 
      5 C5         -9.0140   -3.1410  -28.1820 C.2       1 MCF372      0.0000 
      6 N4         -9.9830   -3.9560  -28.0340 N.pl3     1 MCF372      0.0000 
      7 C10       -10.4510   -4.4990  -26.8540 C.2       1 MCF372      0.0000 
      8 C9        -10.1040   -4.0300  -25.5160 C.2       1 MCF372      0.0000 
      9 N1        -10.8060   -4.8880  -24.7030 N.2       1 MCF372      0.0000 
     10 C2        -11.5020   -5.7570  -25.4730 C.2       1 MCF372      0.0000 
     11 N3        -11.3150   -5.5000  -26.7740 N.pl3     1 MCF372      0.0000 
     12 C1S       -11.9000   -6.2910  -27.8780 C.3       1 MCF372      0.0000 
     13 C2S       -11.1420   -7.6330  -27.7660 C.3       1 MCF372      0.0000 
     14 O2S        -9.8450   -7.6370  -28.3290 O.3       1 MCF372      0.0000 
     15 O4S       -13.2780   -6.6670  -27.6860 O.3       1 MCF372      0.0000 
     16 C4S       -13.1530   -8.0030  -27.8830 C.3       1 MCF372      0.0000 
     17 C3S       -12.0100   -8.6520  -28.4400 C.3       1 MCF372      0.0000 
     18 O3S       -11.7790   -8.3940  -29.8210 O.3       1 MCF372      0.0000 
     19 C5S       -14.2830   -8.8130  -27.3750 C.3       1 MCF372      0.0000 
     20 S5S       -13.6500   -8.9460  -25.7750 S.3       1 MCF372      0.0000 
     21 C6S       -14.5830  -10.2810  -25.0380 C.3       1 MCF372      0.0000 
     22 H          -8.7429   -3.3101  -24.0763 H         1 MCF372      0.0000 
     23 H          -7.7148   -4.2110  -26.0845 H         1 MCF372      0.0000 
     24 H          -7.0807   -2.6530  -25.5273 H         1 MCF372      0.0000 
     25 H          -7.7825   -1.6264  -27.4705 H         1 MCF372      0.0000 
     26 H          -8.7688   -2.8559  -29.2468 H         1 MCF372      0.0000 
     27 H         -10.5359   -4.2894  -28.9259 H         1 MCF372      0.0000 
     28 H         -12.0673   -6.4781  -25.1169 H         1 MCF372      0.0000 
     29 H         -11.6899   -5.8934  -28.8098 H         1 MCF372      0.0000 
     30 H         -11.1251   -7.8906  -26.7002 H         1 MCF372      0.0000 
     31 H         -13.7910   -7.9267  -29.1531 H         1 MCF372      0.0000 
     32 H         -11.8117   -9.5409  -28.0649 H         1 MCF372      0.0000 
     33 H         -14.2906   -9.7706  -27.7159 H         1 MCF372      0.0000 
     34 H         -15.1454   -8.2886  -27.2545 H         1 MCF372      0.0000 
     35 H         -14.4684  -11.1369  -25.5424 H         1 MCF372      0.0000 
     36 H         -14.2993  -10.4561  -24.0952 H         1 MCF372      0.0000 
     37 H         -15.5628  -10.0820  -25.0171 H         1 MCF372      0.0000 
     38 H          -9.2371   -1.3074  -24.1214 H         1 MCF372      0.0000 
     39 H          -9.3333   -8.3101  -27.7951 H         1 MCF372      0.0000 
     40 H         -10.8186   -8.1209  -29.8760 H         1 MCF372      0.0000 
@<TRIPOS>BOND
     1    2    1 1    
     2   38    1 1    
     3    3    2 1    
     4    8    2 1    
     5   22    2 1    
     6    4    3 1    
     7   23    3 1    
     8   24    3 1    
     9    5    4 2    
    10   25    4 1    
    11    6    5 1    
    12   26    5 1    
    13    7    6 1    
    14   27    6 1    
    15    8    7 2    
    16   11    7 1    
    17    9    8 1    
    18   10    9 2    
    19   11   10 1    
    20   28   10 1    
    21   12   11 1    
    22   13   12 1    
    23   15   12 1    
    24   29   12 1    
    25   14   13 1    
    26   17   13 1    
    27   30   13 1    
    28   39   14 1    
    29   16   15 1    
    30   17   16 1    
    31   19   16 1    
    32   31   16 1    
    33   18   17 1    
    34   32   17 1    
    35   40   18 1    
    36   20   19 1    
    37   33   19 1    
    38   34   19 1    
    39   21   20 1    
    40   35   21 1    
    41   36   21 1    
    42   37   21 1    
@<TRIPOS>SUBSTRUCTURE
     1 MCF372      1 GROUP   
@<TRIPOS>SET

