#    Name: 3rhn_5GP_1_INTS_M
#    Modification time : Tue Mar 25 11:28:55 2014

@<TRIPOS>MOLECULE
3rhn_5GP_1_INTS_M
   40     0     9     0     0
SMALL
NO_CHARGES


@<TRIPOS>ATOM
      1 N          22.2170   25.3650   18.0305 N.am      2 SEC2        0.0000 
      2 N          23.2680   25.9630   17.3160 N.am      8 SEL2        0.0000 
      3 N          21.1660   24.7670   18.7450 N.am      5 SEP2        0.0000 
      4 N          23.8370   24.1640   19.4490 N.am      2 SEC2        0.0000 
      5 N          24.3950   23.8790   18.1740 N.am      8 SEL2        0.0000 
      6 N          23.2790   24.4490   20.7240 N.am      5 SEP2        0.0000 
      7 N          23.4555   22.8960   19.1195 N.am      2 SEC2        0.0000 
      8 N          22.5160   21.9130   20.0650 N.am      5 SEP2        0.0000 
      9 N          26.5335   26.5920   17.0560 N.am      2 SEC2        0.0000 
     10 N          25.7020   25.5640   16.9800 N.am      8 SEL2        0.0000 
     11 N          27.3650   27.6200   17.1320 N.am      5 SEP2        0.0000 
     12 N          26.0735   25.4265   15.5295 N.am      2 SEC2        0.0000 
     13 N          26.4450   25.2890   14.0790 N.am      5 SEP2        0.0000 
     14 N          25.2780   24.7565   14.9195 N.am      2 SEC2        0.0000 
     15 N          24.1110   24.2240   15.7600 N.am      8 SEL2        0.0000 
     16 CA         22.1900   22.0535   16.5770 C.3       3 GLC5        0.0000 
     17 CA         23.1520   23.2160   15.4540 C.3       9 GLL5        0.0000 
     18 CA         21.2280   20.8910   17.7000 C.3       6 GLP5        0.0000 
     19 CA         23.1040   22.2895   12.5380 C.3       3 GLC5        0.0000 
     20 CA         22.5420   23.5190   14.0750 C.3       9 GLL5        0.0000 
     21 CA         23.6660   21.0600   11.0010 C.3       6 GLP5        0.0000 
     22 O          21.5670   25.4925   11.4790 O.2       1 ALC1        0.0000 
     23 O          22.2380   25.6510   12.9940 O.2       7 ALL1        0.0000 
     24 O          20.8960   25.3340    9.9640 O.2       4 ALP1        0.0000 
     25 O          22.4645   24.9850   11.7915 O.2       1 ALC1        0.0000 
     26 O          22.6910   24.3190   10.5890 O.2       4 ALP1        0.0000 
     27 O          20.2810   25.2410   11.2675 O.2       1 ALC1        0.0000 
     28 O          19.6660   25.1480   12.5710 O.2       7 ALL1        0.0000 
     29 CA         22.1465   22.0130   11.9655 C.3       3 GLC5        0.0000 
     30 CA         20.6270   22.9660   12.9300 C.3       9 GLL5        0.0000 
     31 O          20.1185   20.2375    7.7160 O.2       1 ALC1        0.0000 
     32 O          19.4010   19.7260    8.8910 O.2       7 ALL1        0.0000 
     33 O          20.8360   20.7490    6.5410 O.2       4 ALP1        0.0000 
     34 CA         22.8665   21.2873   14.5942 C.3       3 GLC5        0.0000 
     35 CA         22.8860   19.2070   14.4240 C.3       6 GLP5        0.0000 
     36 CA         24.6290   22.5902   14.9923 C.3       3 GLC5        0.0000 
     37 CA         26.4110   21.8130   15.2200 C.3       6 GLP5        0.0000 
     38 CA         17.7063   22.2010   11.3543 C.3       3 GLC5        0.0000 
     39 CA         19.0640   21.1390   12.0620 C.3       9 GLL5        0.0000 
     40 CA         16.8770   23.5950   10.3680 C.3       6 GLP5        0.0000 
@<TRIPOS>BOND
@<TRIPOS>SUBSTRUCTURE
     1 ALC1       22 GROUP        1 X    ALC  0     ROOT ALC X 1
     2 SEC2        1 GROUP        1 X    SEC  0     **** SEC X 2
     3 GLC5       16 GROUP        1 X    GLC  0     **** GLC X 6
     4 ALP1       24 GROUP        1 Y    ALP  0     ROOT ALP Y 8
     5 SEP2        3 GROUP        1 Y    SEP  0     **** SEP Y 9
     6 GLP5       18 GROUP        1 Y    GLP  0     **** GLP Y 13
     7 ALL1       23 GROUP        1 Z    ALL  0     ROOT ALL Z 15
     8 SEL2        2 GROUP        1 Z    SEL  0     **** SEL Z 16
     9 GLL5       17 GROUP        1 Z    GLL  0     **** GLL Z 20
@<TRIPOS>SET

