#    Name: 3rhn_5GP_1_ligand
#    Modification time : Tue Mar 25 11:28:55 2014

@<TRIPOS>MOLECULE
3rhn_5GP_1_ligand
   36    38     1     0     0
SMALL
NO_CHARGES


@<TRIPOS>ATOM
      1 P          24.2670   24.9080   17.1770 P.3       1 5GP201      0.0000 
      2 O1P        23.2680   25.9630   17.3160 O.co2     1 5GP201      0.0000 
      3 O2P        24.3950   23.8790   18.1740 O.co2     1 5GP201      0.0000 
      4 O3P        25.7020   25.5640   16.9800 O.co2     1 5GP201      0.0000 
      5 O5'        24.1110   24.2240   15.7600 O.3       1 5GP201      0.0000 
      6 C5'        23.1520   23.2160   15.4540 C.3       1 5GP201      0.0000 
      7 C4'        22.5420   23.5190   14.0750 C.3       1 5GP201      0.0000 
      8 O4'        21.6850   22.4710   13.7430 O.3       1 5GP201      0.0000 
      9 C3'        21.6800   24.7840   13.9460 C.3       1 5GP201      0.0000 
     10 O3'        22.2380   25.6510   12.9940 O.3       1 5GP201      0.0000 
     11 C2'        20.3180   24.3100   13.4930 C.3       1 5GP201      0.0000 
     12 O2'        19.6660   25.1480   12.5710 O.3       1 5GP201      0.0000 
     13 C1'        20.6270   22.9660   12.9300 C.3       1 5GP201      0.0000 
     14 N9         19.5400   21.9830   13.0530 N.pl3     1 5GP201      0.0000 
     15 C8         18.7630   21.7070   14.1440 C.2       1 5GP201      0.0000 
     16 N7         17.8400   20.8300   13.9600 N.2       1 5GP201      0.0000 
     17 C5         18.0070   20.4750   12.6190 C.2       1 5GP201      0.0000 
     18 C6         17.2610   19.5670   11.8140 C.2       1 5GP201      0.0000 
     19 O6         16.2280   18.9750   12.1320 O.2       1 5GP201      0.0000 
     20 N1         17.8260   19.3750   10.5450 N.am      1 5GP201      0.0000 
     21 C2         18.9310   20.0490   10.0790 C.2       1 5GP201      0.0000 
     22 N2         19.4010   19.7260    8.8910 N.pl3     1 5GP201      0.0000 
     23 N3         19.5540   21.0090   10.7710 N.2       1 5GP201      0.0000 
     24 C4         19.0640   21.1390   12.0620 C.2       1 5GP201      0.0000 
     25 H          22.3351   23.1923   16.1772 H         1 5GP201      0.0000 
     26 H          23.6010   22.2227   15.4042 H         1 5GP201      0.0000 
     27 H          23.3437   23.5844   13.3452 H         1 5GP201      0.0000 
     28 H          21.5869   25.2157   14.9148 H         1 5GP201      0.0000 
     29 H          19.7316   24.1392   14.4004 H         1 5GP201      0.0000 
     30 H          20.9529   23.0547   11.9232 H         1 5GP201      0.0000 
     31 H          18.9367   22.1871   15.0278 H         1 5GP201      0.0000 
     32 H          17.3641   18.6624    9.9121 H         1 5GP201      0.0000 
     33 H          19.2822   18.7721    8.6153 H         1 5GP201      0.0000 
     34 H          19.8336   20.4641    8.3734 H         1 5GP201      0.0000 
     35 H          22.3777   25.0865   12.1805 H         1 5GP201      0.0000 
     36 H          20.2380   25.1250   11.7511 H         1 5GP201      0.0000 
@<TRIPOS>BOND
     1    2    1 ar   
     2    3    1 ar   
     3    4    1 ar   
     4    5    1 1    
     5    6    5 1    
     6    7    6 1    
     7   25    6 1    
     8   26    6 1    
     9    8    7 1    
    10    9    7 1    
    11   27    7 1    
    12   13    8 1    
    13   10    9 1    
    14   11    9 1    
    15   28    9 1    
    16   35   10 1    
    17   12   11 1    
    18   13   11 1    
    19   29   11 1    
    20   36   12 1    
    21   14   13 1    
    22   30   13 1    
    23   15   14 1    
    24   24   14 1    
    25   16   15 2    
    26   31   15 1    
    27   17   16 1    
    28   18   17 1    
    29   24   17 2    
    30   19   18 2    
    31   20   18 am   
    32   21   20 1    
    33   32   20 1    
    34   22   21 1    
    35   23   21 2    
    36   33   22 1    
    37   34   22 1    
    38   24   23 1    
@<TRIPOS>SUBSTRUCTURE
     1 5GP201      1 GROUP   
@<TRIPOS>SET

