#    Name: 4e5h_0N8_1_INTS_M
#    Modification time : Mon Apr  7 23:18:51 2014

@<TRIPOS>MOLECULE
4e5h_0N8_1_INTS_M
   32     0    12     0     0
SMALL
NO_CHARGES


@<TRIPOS>ATOM
      1 CA        -48.6835   -9.7465   29.9305 C.3       4 GLC5        0.0000 
      2 CA        -49.3350   -9.9390   27.9780 C.3      12 GLL5        0.0000 
      3 CA        -48.0320   -9.5540   31.8830 C.3       8 GLP5        0.0000 
      4 CA        -47.7285   -9.1975   27.5955 C.3       4 GLC5        0.0000 
      5 CA        -46.1220   -8.4560   27.2130 C.3       8 GLP5        0.0000 
      6 Zn        -49.5200  -16.4200   22.3755 Zn        3 ZIC7        0.0000 
      7 Zn        -49.7960  -15.7750   23.0370 Zn       11 ZIL7        0.0000 
      8 Zn        -49.2440  -17.0650   21.7140 Zn        7 ZIP7        0.0000 
      9 Zn        -47.3080  -18.0150   23.7180 Zn        3 ZIC7        0.0000 
     10 Zn        -48.0340  -17.0940   23.7170 Zn       11 ZIL7        0.0000 
     11 Zn        -46.5820  -18.9360   23.7190 Zn        7 ZIP7        0.0000 
     12 Zn        -48.6390  -17.0795   22.7155 Zn        3 ZIC7        0.0000 
     13 NZ        -46.7885  -19.8915   26.3955 N.4       2 LYC4        0.0000 
     14 NZ        -46.5580  -18.3810   25.5820 N.4      10 LYL4        0.0000 
     15 NZ        -47.0190  -21.4020   27.2090 N.4       6 LYP4        0.0000 
     16 Zn        -46.5700  -18.6585   24.6505 Zn        3 ZIC7        0.0000 
     17 Zn        -46.5580  -18.3810   25.5820 Zn       11 ZIL7        0.0000 
     18 N         -46.7885  -19.8915   26.3955 N.am      1 SEC2        0.0000 
     19 N         -46.5580  -18.3810   25.5820 N.am      9 SEL2        0.0000 
     20 N         -47.0190  -21.4020   27.2090 N.am      5 SEP2        0.0000 
     21 CA        -54.7190  -18.3440   24.0550 C.3       4 GLC5        0.0000 
     22 CA        -53.7620  -16.5720   24.1870 C.3      12 GLL5        0.0000 
     23 CA        -55.6760  -20.1160   23.9230 C.3       8 GLP5        0.0000 
     24 CA        -55.5880  -17.6960   21.2385 C.3       4 GLC5        0.0000 
     25 CA        -56.9350  -16.9980   22.4360 C.3      12 GLL5        0.0000 
     26 CA        -54.2410  -18.3940   20.0410 C.3       8 GLP5        0.0000 
     27 CA        -54.9380  -16.5560   21.4525 C.3       4 GLC5        0.0000 
     28 CA        -55.9240  -16.2110   22.9650 C.3      12 GLL5        0.0000 
     29 CA        -53.9520  -16.9010   19.9400 C.3       8 GLP5        0.0000 
     30 CA        -53.5198  -16.6615   21.9073 C.3       4 GLC5        0.0000 
     31 CA        -56.6204  -18.3051   22.7258 C.3       4 GLC5        0.0000 
     32 CA        -56.4890  -20.0240   22.6220 C.3       8 GLP5        0.0000 
@<TRIPOS>BOND
@<TRIPOS>SUBSTRUCTURE
     1 SEC2       18 GROUP        1 X    SEC  0     ROOT SEC X 2
     2 LYC4       13 GROUP        1 X    LYC  0     **** LYC X 4
     3 ZIC7        6 GROUP        1 X    ZIC  0     **** ZIC X 5
     4 GLC5        1 GROUP        1 X    GLC  0     **** GLC X 6
     5 SEP2       20 GROUP        1 Y    SEP  0     ROOT SEP Y 9
     6 LYP4       15 GROUP        1 Y    LYP  0     **** LYP Y 11
     7 ZIP7        8 GROUP        1 Y    ZIP  0     **** ZIP Y 12
     8 GLP5        3 GROUP        1 Y    GLP  0     **** GLP Y 13
     9 SEL2       19 GROUP        1 Z    SEL  0     ROOT SEL Z 16
    10 LYL4       14 GROUP        1 Z    LYL  0     **** LYL Z 18
    11 ZIL7        7 GROUP        1 Z    ZIL  0     **** ZIL Z 19
    12 GLL5        2 GROUP        1 Z    GLL  0     **** GLL Z 20
@<TRIPOS>SET

