#    Name: 4e5h_0N8_1_ligand
#    Modification time : Mon Apr  7 23:18:52 2014

@<TRIPOS>MOLECULE
4e5h_0N8_1_ligand
   52    54     1     0     0
SMALL
NO_CHARGES


@<TRIPOS>ATOM
      1 CL2       -49.3350   -9.9390   27.9780 Cl        1 0N8305      0.0000 
      2 C19       -50.0660  -11.1180   26.8350 C.ar      1 0N8305      0.0000 
      3 C18       -49.2650  -11.8530   25.9700 C.ar      1 0N8305      0.0000 
      4 C17       -49.8410  -12.7630   25.0890 C.ar      1 0N8305      0.0000 
      5 C20       -51.4430  -11.2970   26.8140 C.ar      1 0N8305      0.0000 
      6 C21       -52.0180  -12.2060   25.9330 C.ar      1 0N8305      0.0000 
      7 C16       -51.2190  -12.9450   25.0730 C.ar      1 0N8305      0.0000 
      8 C15       -51.8590  -13.9210   24.1110 C.3       1 0N8305      0.0000 
      9 C11       -51.5860  -15.3760   24.4710 C.3       1 0N8305      0.0000 
     10 C10       -51.9140  -15.6400   25.9310 C.3       1 0N8305      0.0000 
     11 C9        -53.3250  -15.1620   26.2270 C.3       1 0N8305      0.0000 
     12 C14       -50.1490  -15.7170   24.2040 C.2       1 0N8305      0.0000 
     13 O27       -49.7960  -15.7750   23.0370 O.2       1 0N8305      0.0000 
     14 C22       -49.2020  -15.9960   25.3580 C.2       1 0N8305      0.0000 
     15 C23       -48.2510  -16.8710   24.9990 C.2       1 0N8305      0.0000 
     16 O28       -48.0340  -17.0940   23.7170 O.3       1 0N8305      0.0000 
     17 C24       -47.4350  -17.5820   25.9830 C.2       1 0N8305      0.0000 
     18 O26       -47.6260  -17.3760   27.1970 O.co2     1 0N8305      0.0000 
     19 O25       -46.5580  -18.3810   25.5820 O.co2     1 0N8305      0.0000 
     20 C12       -52.4130  -16.2720   23.5620 C.3       1 0N8305      0.0000 
     21 C13       -53.7620  -16.5720   24.1870 C.3       1 0N8305      0.0000 
     22 N8        -54.0600  -15.4050   24.9960 N.4       1 0N8305      0.0000 
     23 C7        -55.1090  -14.4960   24.5790 C.3       1 0N8305      0.0000 
     24 C2        -56.2120  -15.3470   24.0080 C.ar      1 0N8305      0.0000 
     25 C3        -57.4970  -15.2710   24.5300 C.ar      1 0N8305      0.0000 
     26 C4        -58.5090  -16.0610   23.9990 C.ar      1 0N8305      0.0000 
     27 C5        -58.2240  -16.9250   22.9520 C.ar      1 0N8305      0.0000 
     28 C6        -56.9350  -16.9980   22.4360 C.ar      1 0N8305      0.0000 
     29 C1        -55.9240  -16.2110   22.9650 C.ar      1 0N8305      0.0000 
     30 H         -48.2440  -11.7249   25.9801 H         1 0N8305      0.0000 
     31 H         -49.2440  -13.3031   24.4470 H         1 0N8305      0.0000 
     32 H         -52.0416  -10.7543   27.4536 H         1 0N8305      0.0000 
     33 H         -53.0407  -12.3300   25.9200 H         1 0N8305      0.0000 
     34 H         -51.4841  -13.7293   23.0947 H         1 0N8305      0.0000 
     35 H         -52.9466  -13.7562   24.0949 H         1 0N8305      0.0000 
     36 H         -51.2113  -15.1056   26.5615 H         1 0N8305      0.0000 
     37 H         -51.8432  -16.7040   26.1306 H         1 0N8305      0.0000 
     38 H         -53.2936  -14.1164   26.4663 H         1 0N8305      0.0000 
     39 H         -53.7218  -15.7367   27.0418 H         1 0N8305      0.0000 
     40 H         -49.3459  -15.5571   26.1945 H         1 0N8305      0.0000 
     41 H         -51.8763  -17.2057   23.3923 H         1 0N8305      0.0000 
     42 H         -52.5602  -15.7740   22.6033 H         1 0N8305      0.0000 
     43 H         -53.6762  -17.4575   24.7888 H         1 0N8305      0.0000 
     44 H         -54.4853  -16.7041   23.4040 H         1 0N8305      0.0000 
     45 H         -53.0908  -14.6371   24.2559 H         1 0N8305      0.0000 
     46 H         -54.7574  -13.8161   23.8132 H         1 0N8305      0.0000 
     47 H         -55.4977  -13.9339   25.4188 H         1 0N8305      0.0000 
     48 H         -57.6992  -14.6306   25.3088 H         1 0N8305      0.0000 
     49 H         -59.4601  -16.0050   24.3793 H         1 0N8305      0.0000 
     50 H         -58.9690  -17.5154   22.5543 H         1 0N8305      0.0000 
     51 H         -56.7320  -17.6413   21.6560 H         1 0N8305      0.0000 
     52 H         -54.9724  -16.2686   22.5872 H         1 0N8305      0.0000 
@<TRIPOS>BOND
     1    2    1 1    
     2    3    2 ar   
     3    5    2 ar   
     4    4    3 ar   
     5   30    3 1    
     6    7    4 ar   
     7   31    4 1    
     8    6    5 ar   
     9   32    5 1    
    10    7    6 ar   
    11   33    6 1    
    12    8    7 1    
    13    9    8 1    
    14   34    8 1    
    15   35    8 1    
    16   10    9 1    
    17   12    9 1    
    18   20    9 1    
    19   11   10 1    
    20   36   10 1    
    21   37   10 1    
    22   22   11 1    
    23   38   11 1    
    24   39   11 1    
    25   13   12 2    
    26   14   12 1    
    27   15   14 2    
    28   40   14 1    
    29   16   15 1    
    30   17   15 1    
    31   18   17 ar   
    32   19   17 ar   
    33   21   20 1    
    34   41   20 1    
    35   42   20 1    
    36   22   21 1    
    37   43   21 1    
    38   44   21 1    
    39   23   22 1    
    40   45   22 1    
    41   24   23 1    
    42   46   23 1    
    43   47   23 1    
    44   25   24 ar   
    45   29   24 ar   
    46   26   25 ar   
    47   48   25 1    
    48   27   26 ar   
    49   49   26 1    
    50   28   27 ar   
    51   50   27 1    
    52   29   28 ar   
    53   51   28 1    
    54   52   29 1    
@<TRIPOS>SUBSTRUCTURE
     1 0N8305      1 GROUP   
@<TRIPOS>SET

