#    Name: 2cgj_ADP_1_INTS_M
#    Modification time : Mon Mar 24 23:45:56 2014

@<TRIPOS>MOLECULE
2cgj_ADP_1_INTS_M
   40     0     6     0     0
SMALL
NO_CHARGES


@<TRIPOS>ATOM
      1 N          65.6235   66.4925   16.3870 N.am      1 SEC2        0.0000 
      2 N          66.7250   67.5120   16.4870 N.am      5 SEL2        0.0000 
      3 N          64.5220   65.4730   16.2870 N.am      3 SEP2        0.0000 
      4 N          66.8030   66.3335   17.1800 N.am      1 SEC2        0.0000 
      5 N          66.8810   65.1550   17.8730 N.am      3 SEP2        0.0000 
      6 N          69.1405   69.2540   11.8325 N.am      1 SEC2        0.0000 
      7 N          68.3350   67.7400   12.1270 N.am      5 SEL2        0.0000 
      8 N          69.9460   70.7680   11.5380 N.am      3 SEP2        0.0000 
      9 N          65.2200   68.2345   10.8890 N.am      1 SEC2        0.0000 
     10 N          65.8440   68.4770   12.1670 N.am      5 SEL2        0.0000 
     11 N          64.5960   67.9920    9.6110 N.am      3 SEP2        0.0000 
     12 N          66.8860   62.0605   14.6000 N.am      1 SEC2        0.0000 
     13 N          66.4240   61.6800   13.2280 N.am      5 SEL2        0.0000 
     14 N          67.3480   62.4410   15.9720 N.am      3 SEP2        0.0000 
     15 CA         63.7770   62.2915   11.0585 C.3       2 GLC5        0.0000 
     16 CA         65.6440   62.5160    9.8910 C.3       6 GLL5        0.0000 
     17 CA         61.9100   62.0670   12.2260 C.3       4 GLP5        0.0000 
     18 CA         65.4260   64.6660    9.4410 C.3       2 GLC5        0.0000 
     19 CA         65.2080   66.8160    8.9910 C.3       4 GLP5        0.0000 
     20 CA         63.9015   63.5795    9.7465 C.3       2 GLC5        0.0000 
     21 CA         62.1590   64.6430    9.6020 C.3       4 GLP5        0.0000 
     22 CA         65.7855   59.5535    7.3445 C.3       2 GLC5        0.0000 
     23 CA         64.5660   60.6000    5.9740 C.3       6 GLL5        0.0000 
     24 CA         67.0050   58.5070    8.7150 C.3       4 GLP5        0.0000 
     25 CA         63.9765   58.9235    6.0395 C.3       2 GLC5        0.0000 
     26 CA         63.3870   57.2470    6.1050 C.3       4 GLP5        0.0000 
     27 CA         64.4130   62.3715    5.2030 C.3       2 GLC5        0.0000 
     28 CA         64.2600   64.1430    4.4320 C.3       4 GLP5        0.0000 
     29 CA         62.7465   60.8215    5.7500 C.3       2 GLC5        0.0000 
     30 CA         60.9270   61.0430    5.5260 C.3       4 GLP5        0.0000 
     31 CA         65.1165   65.2918   13.1505 C.3       2 GLC5        0.0000 
     32 CA         66.1810   63.6710   11.8490 C.3       6 GLL5        0.0000 
     33 CA         63.5960   66.3420   14.2340 C.3       4 GLP5        0.0000 
     34 CA         65.9225   65.5288   10.5290 C.3       2 GLC5        0.0000 
     35 CA         67.0930   64.8120   12.2850 C.3       6 GLL5        0.0000 
     36 CA         66.4652   60.2548    9.5448 C.3       2 GLC5        0.0000 
     37 CA         66.7140   60.1727    7.8593 C.3       2 GLC5        0.0000 
     38 CA         65.8970   61.7750    7.5150 C.3       6 GLL5        0.0000 
     39 CA         65.3070   62.9159    5.5522 C.3       2 GLC5        0.0000 
     40 CA         66.9490   61.9020    6.4920 C.3       6 GLL5        0.0000 
@<TRIPOS>BOND
@<TRIPOS>SUBSTRUCTURE
     1 SEC2        1 GROUP        1 X    SEC  0     ROOT SEC X 2
     2 GLC5       15 GROUP        1 X    GLC  0     **** GLC X 6
     3 SEP2        3 GROUP        1 Y    SEP  0     ROOT SEP Y 9
     4 GLP5       17 GROUP        1 Y    GLP  0     **** GLP Y 13
     5 SEL2        2 GROUP        1 Z    SEL  0     ROOT SEL Z 16
     6 GLL5       16 GROUP        1 Z    GLL  0     **** GLL Z 20
@<TRIPOS>SET

