#    Name: 2cgj_ADP_1_ligand
#    Modification time : Mon Mar 24 23:45:56 2014

@<TRIPOS>MOLECULE
2cgj_ADP_1_ligand
   39    41     1     0     0
SMALL
NO_CHARGES


@<TRIPOS>ATOM
      1 PB         67.5650   67.9140   15.3010 P.3       1 ADP1482     0.0000 
      2 O1B        66.7250   67.5120   16.4870 O.co2     1 ADP1482     0.0000 
      3 O2B        68.9580   67.3190   15.2650 O.co2     1 ADP1482     0.0000 
      4 O3B        67.5740   69.3960   15.0090 O.co2     1 ADP1482     0.0000 
      5 PA         66.9070   67.4570   12.5270 P.3       1 ADP1482     0.0000 
      6 O1A        68.3350   67.7400   12.1270 O.co2     1 ADP1482     0.0000 
      7 O2A        65.8440   68.4770   12.1670 O.co2     1 ADP1482     0.0000 
      8 O3A        66.7970   67.1520   14.1070 O.3       1 ADP1482     0.0000 
      9 O5'        66.4700   66.0370   11.9040 O.3       1 ADP1482     0.0000 
     10 C5'        67.0930   64.8120   12.2850 C.3       1 ADP1482     0.0000 
     11 C4'        66.1810   63.6710   11.8490 C.3       1 ADP1482     0.0000 
     12 O4'        65.8790   63.8000   10.4600 O.3       1 ADP1482     0.0000 
     13 C3'        66.8000   62.2880   11.9960 C.3       1 ADP1482     0.0000 
     14 O3'        66.4240   61.6800   13.2280 O.3       1 ADP1482     0.0000 
     15 C2'        66.2070   61.4890   10.8580 C.3       1 ADP1482     0.0000 
     16 O2'        65.1450   60.6560   11.3260 O.3       1 ADP1482     0.0000 
     17 C1'        65.6440   62.5160    9.8910 C.3       1 ADP1482     0.0000 
     18 N9         66.3610   62.3970    8.6020 N.pl3     1 ADP1482     0.0000 
     19 C8         67.5910   62.8810    8.3320 C.2       1 ADP1482     0.0000 
     20 N7         67.9600   62.5940    7.0550 N.2       1 ADP1482     0.0000 
     21 C5         66.9490   61.9020    6.4920 C.ar      1 ADP1482     0.0000 
     22 C6         66.6730   61.3030    5.1680 C.ar      1 ADP1482     0.0000 
     23 N6         67.5800   61.3750    4.1650 N.pl3     1 ADP1482     0.0000 
     24 N1         65.4870   60.6810    4.9920 N.ar      1 ADP1482     0.0000 
     25 C2         64.5660   60.6000    5.9740 C.ar      1 ADP1482     0.0000 
     26 N3         64.7500   61.1230    7.2000 N.ar      1 ADP1482     0.0000 
     27 C4         65.8970   61.7750    7.5150 C.ar      1 ADP1482     0.0000 
     28 H          67.2281   64.7414   13.3629 H         1 ADP1482     0.0000 
     29 H          68.0574   64.6765   11.7983 H         1 ADP1482     0.0000 
     30 H          65.2721   63.6976   12.4286 H         1 ADP1482     0.0000 
     31 H          67.8417   62.3587   11.8553 H         1 ADP1482     0.0000 
     32 H          66.9759   60.9508   10.3705 H         1 ADP1482     0.0000 
     33 H          64.6075   62.3227    9.7599 H         1 ADP1482     0.0000 
     34 H          68.1500   63.3753    8.9686 H         1 ADP1482     0.0000 
     35 H          68.4358   61.8461    4.3786 H         1 ADP1482     0.0000 
     36 H          67.3136   60.9507    3.2996 H         1 ADP1482     0.0000 
     37 H          63.6504   60.0982    5.7680 H         1 ADP1482     0.0000 
     38 H          67.1625   61.0388   13.4360 H         1 ADP1482     0.0000 
     39 H          65.1402   60.7763   12.3187 H         1 ADP1482     0.0000 
@<TRIPOS>BOND
     1    2    1 ar   
     2    3    1 ar   
     3    4    1 ar   
     4    8    1 1    
     5    6    5 ar   
     6    7    5 ar   
     7    8    5 1    
     8    9    5 1    
     9   10    9 1    
    10   11   10 1    
    11   28   10 1    
    12   29   10 1    
    13   12   11 1    
    14   13   11 1    
    15   30   11 1    
    16   17   12 1    
    17   14   13 1    
    18   15   13 1    
    19   31   13 1    
    20   38   14 1    
    21   16   15 1    
    22   17   15 1    
    23   32   15 1    
    24   39   16 1    
    25   18   17 1    
    26   33   17 1    
    27   19   18 1    
    28   27   18 1    
    29   20   19 2    
    30   34   19 1    
    31   21   20 1    
    32   22   21 ar   
    33   27   21 ar   
    34   23   22 1    
    35   24   22 ar   
    36   35   23 1    
    37   36   23 1    
    38   25   24 ar   
    39   26   25 ar   
    40   37   25 1    
    41   27   26 ar   
@<TRIPOS>SUBSTRUCTURE
     1 ADP1482     1 GROUP   
@<TRIPOS>SET

