#    Name: 3qj5_022_2_INTS_M
#    Modification time : Tue Mar 25 09:48:07 2014

@<TRIPOS>MOLECULE
3qj5_022_2_INTS_M
   60     0    12     0     0
SMALL
NO_CHARGES


@<TRIPOS>ATOM
      1 CA         49.2870   27.4845   39.3580 C.3       4 GLC5        0.0000 
      2 CA         50.5050   27.9920   38.0380 C.3      12 GLL5        0.0000 
      3 CA         48.0690   26.9770   40.6780 C.3       8 GLP5        0.0000 
      4 CA         50.4470   27.2375   36.2555 C.3       4 GLC5        0.0000 
      5 CA         50.3890   26.4830   34.4730 C.3       8 GLP5        0.0000 
      6 CA         49.4155   30.2795   39.9595 C.3       4 GLC5        0.0000 
      7 CA         50.0430   29.0690   38.7770 C.3      12 GLL5        0.0000 
      8 CA         48.7880   31.4900   41.1420 C.3       8 GLP5        0.0000 
      9 CA         49.6335   28.1890   40.1945 C.3       4 GLC5        0.0000 
     10 CA         49.2240   27.3090   41.6120 C.3       8 GLP5        0.0000 
     11 CA         51.5240   30.5355   39.5790 C.3       4 GLC5        0.0000 
     12 CA         53.0050   32.0020   40.3810 C.3       8 GLP5        0.0000 
     13 Zn         51.0705   30.2020   40.3785 Zn        3 ZIC7        0.0000 
     14 Zn         51.0190   29.4400   39.6550 Zn       11 ZIL7        0.0000 
     15 Zn         51.1220   30.9640   41.1020 Zn        7 ZIP7        0.0000 
     16 CA         56.2995   26.4495   35.5620 C.3       4 GLC5        0.0000 
     17 CA         54.6680   26.1990   37.0220 C.3      12 GLL5        0.0000 
     18 CA         57.9310   26.7000   34.1020 C.3       8 GLP5        0.0000 
     19 CA         55.0320   24.5260   33.7530 C.3       4 GLC5        0.0000 
     20 CA         55.9520   23.7860   35.4200 C.3      12 GLL5        0.0000 
     21 CA         54.1120   25.2660   32.0860 C.3       8 GLP5        0.0000 
     22 CA         56.0400   19.2440   35.0135 C.3       4 GLC5        0.0000 
     23 CA         57.6000   19.7860   36.0680 C.3      12 GLL5        0.0000 
     24 CA         54.4800   18.7020   33.9590 C.3       8 GLP5        0.0000 
     25 CA         57.0380   20.3745   34.2205 C.3       4 GLC5        0.0000 
     26 CA         56.4760   20.9630   32.3730 C.3       8 GLP5        0.0000 
     27 NZ         60.1075   17.5905   35.3360 N.4       2 LYC4        0.0000 
     28 NZ         59.1900   18.0470   35.9950 N.4      10 LYL4        0.0000 
     29 NZ         61.0250   17.1340   34.6770 N.4       6 LYP4        0.0000 
     30 NZ         59.4460   16.7480   36.9485 N.4       2 LYC4        0.0000 
     31 NZ         59.7020   15.4490   37.9020 N.4       6 LYP4        0.0000 
     32 N          60.1075   17.5905   35.3360 N.am      1 SEC2        0.0000 
     33 N          59.1900   18.0470   35.9950 N.am      9 SEL2        0.0000 
     34 N          61.0250   17.1340   34.6770 N.am      5 SEP2        0.0000 
     35 NZ         60.4325   18.5465   35.7705 N.4       2 LYC4        0.0000 
     36 NZ         59.8400   19.9590   36.8640 N.4      10 LYL4        0.0000 
     37 N          61.3750   19.6450   36.6950 N.am      1 SEC2        0.0000 
     38 N          59.8400   19.9590   36.8640 N.am      9 SEL2        0.0000 
     39 N          62.9100   19.3310   36.5260 N.am      5 SEP2        0.0000 
     40 N          56.9020   22.0935   43.8450 N.am      1 SEC2        0.0000 
     41 N          55.5780   21.4560   43.4920 N.am      9 SEL2        0.0000 
     42 N          58.2260   22.7310   44.1980 N.am      5 SEP2        0.0000 
     43 CA         56.7760   25.7015   40.3795 C.3       4 GLC5        0.0000 
     44 CA         57.0330   24.1460   39.4820 C.3      12 GLL5        0.0000 
     45 CA         56.5190   27.2570   41.2770 C.3       8 GLP5        0.0000 
     46 CA         48.9775   29.5243   37.2833 C.3       4 GLC5        0.0000 
     47 CA         47.6810   30.5180   36.1590 C.3       8 GLP5        0.0000 
     48 CA         52.8265   26.1725   40.2160 C.3       4 GLC5        0.0000 
     49 CA         52.5510   26.8330   38.0850 C.3      12 GLL5        0.0000 
     50 CA         53.2440   26.1950   42.2920 C.3       8 GLP5        0.0000 
     51 CA         51.3990   26.3165   36.3065 C.3       4 GLC5        0.0000 
     52 CA         52.2670   25.4670   38.1950 C.3      12 GLL5        0.0000 
     53 CA         58.3960   23.6640   35.2950 C.3       4 GLC5        0.0000 
     54 CA         56.7700   22.6660   35.4260 C.3      12 GLL5        0.0000 
     55 CA         60.4310   24.1020   35.1670 C.3       8 GLP5        0.0000 
     56 CA         57.1460   24.9630   34.7625 C.3       4 GLC5        0.0000 
     57 CA         56.4838   21.7975   34.2062 C.3       4 GLC5        0.0000 
     58 CA         57.8775   24.6908   39.1818 C.3       4 GLC5        0.0000 
     59 CA         56.0450   23.0450   39.6950 C.3      12 GLL5        0.0000 
     60 CA         59.2160   25.7860   38.7750 C.3       8 GLP5        0.0000 
@<TRIPOS>BOND
@<TRIPOS>SUBSTRUCTURE
     1 SEC2       32 GROUP        1 X    SEC  0     ROOT SEC X 2
     2 LYC4       27 GROUP        1 X    LYC  0     **** LYC X 4
     3 ZIC7       13 GROUP        1 X    ZIC  0     **** ZIC X 5
     4 GLC5        1 GROUP        1 X    GLC  0     **** GLC X 6
     5 SEP2       34 GROUP        1 Y    SEP  0     ROOT SEP Y 9
     6 LYP4       29 GROUP        1 Y    LYP  0     **** LYP Y 11
     7 ZIP7       15 GROUP        1 Y    ZIP  0     **** ZIP Y 12
     8 GLP5        3 GROUP        1 Y    GLP  0     **** GLP Y 13
     9 SEL2       33 GROUP        1 Z    SEL  0     ROOT SEL Z 16
    10 LYL4       28 GROUP        1 Z    LYL  0     **** LYL Z 18
    11 ZIL7       14 GROUP        1 Z    ZIL  0     **** ZIL Z 19
    12 GLL5        2 GROUP        1 Z    GLL  0     **** GLL Z 20
@<TRIPOS>SET

