#    Name: 3qj5_022_2_ligand
#    Modification time : Tue Mar 25 09:48:07 2014

@<TRIPOS>MOLECULE
3qj5_022_2_ligand
   52    55     1     0     0
SMALL
NO_CHARGES


@<TRIPOS>ATOM
      1 C1         52.0870   28.6190   39.4990 C.2       1 022377      0.0000 
      2 N2         51.7250   27.7920   38.5260 N.pl3     1 022377      0.0000 
      3 C3         50.5050   27.9920   38.0380 C.2       1 022377      0.0000 
      4 C4         50.0430   29.0690   38.7770 C.2       1 022377      0.0000 
      5 N5         51.0190   29.4400   39.6550 N.2       1 022377      0.0000 
      6 C11        52.5510   26.8330   38.0850 C.ar      1 022377      0.0000 
      7 C13        53.7730   27.1600   37.4820 C.ar      1 022377      0.0000 
      8 C14        54.6680   26.1990   37.0220 C.ar      1 022377      0.0000 
      9 C15        54.3460   24.8560   37.1400 C.ar      1 022377      0.0000 
     10 C16        53.1410   24.4780   37.7350 C.ar      1 022377      0.0000 
     11 C17        52.2670   25.4670   38.1950 C.ar      1 022377      0.0000 
     12 C24        55.3090   23.8360   36.6540 C.2       1 022377      0.0000 
     13 C26        55.9520   23.7860   35.4200 C.2       1 022377      0.0000 
     14 C27        56.7700   22.6660   35.4260 C.2       1 022377      0.0000 
     15 C28        56.6220   22.0380   36.6560 C.2       1 022377      0.0000 
     16 N29        55.7320   22.7720   37.3320 N.pl3     1 022377      0.0000 
     17 C35        57.2980   20.7850   37.1700 C.3       1 022377      0.0000 
     18 C37        57.6000   19.7860   36.0680 C.3       1 022377      0.0000 
     19 C38        58.9750   19.2270   36.3300 C.2       1 022377      0.0000 
     20 O41        59.1900   18.0470   35.9950 O.co2     1 022377      0.0000 
     21 O43        59.8400   19.9590   36.8640 O.co2     1 022377      0.0000 
     22 C45        55.4400   22.4260   38.6020 C.ar      1 022377      0.0000 
     23 C47        56.0450   23.0450   39.6950 C.ar      1 022377      0.0000 
     24 C48        55.7790   22.6950   41.0050 C.ar      1 022377      0.0000 
     25 C49        54.8740   21.6870   41.2790 C.ar      1 022377      0.0000 
     26 C50        54.2460   21.0310   40.2180 C.ar      1 022377      0.0000 
     27 C51        54.5270   21.4050   38.8980 C.ar      1 022377      0.0000 
     28 C58        54.6350   21.3430   42.7230 C.2       1 022377      0.0000 
     29 O59        55.5780   21.4560   43.4920 O.2       1 022377      0.0000 
     30 N62        53.4350   20.9340   43.1350 N.am      1 022377      0.0000 
     31 C64        57.0330   24.1460   39.4820 C.3       1 022377      0.0000 
     32 H          52.8964   28.6448   39.9822 H         1 022377      0.0000 
     33 H          50.0435   27.5417   37.3681 H         1 022377      0.0000 
     34 H          49.1831   29.4749   38.6789 H         1 022377      0.0000 
     35 H          54.0192   28.1713   37.3750 H         1 022377      0.0000 
     36 H          55.5574   26.4843   36.5998 H         1 022377      0.0000 
     37 H          52.9003   23.4909   37.8333 H         1 022377      0.0000 
     38 H          51.3677   25.1764   38.6377 H         1 022377      0.0000 
     39 H          55.8483   24.4012   34.7132 H         1 022377      0.0000 
     40 H          57.3300   22.3795   34.7184 H         1 022377      0.0000 
     41 H          56.6521   20.3071   37.9209 H         1 022377      0.0000 
     42 H          58.2368   21.0601   37.6726 H         1 022377      0.0000 
     43 H          57.5830   20.2871   35.1137 H         1 022377      0.0000 
     44 H          56.8704   18.9927   36.0918 H         1 022377      0.0000 
     45 H          56.2548   23.1849   41.7768 H         1 022377      0.0000 
     46 H          53.5784   20.2747   40.4038 H         1 022377      0.0000 
     47 H          54.0480   20.9147   38.1206 H         1 022377      0.0000 
     48 H          53.3432   20.7562   44.1148 H         1 022377      0.0000 
     49 H          52.7346   20.8418   42.4272 H         1 022377      0.0000 
     50 H          57.3895   24.4977   40.3476 H         1 022377      0.0000 
     51 H          57.8186   23.8410   38.9437 H         1 022377      0.0000 
     52 H          56.6274   24.9201   38.9959 H         1 022377      0.0000 
@<TRIPOS>BOND
     1    2    1 1    
     2    5    1 2    
     3   32    1 1    
     4    3    2 1    
     5    6    2 1    
     6    4    3 2    
     7   33    3 1    
     8    5    4 1    
     9   34    4 1    
    10    7    6 ar   
    11   11    6 ar   
    12    8    7 ar   
    13   35    7 1    
    14    9    8 ar   
    15   36    8 1    
    16   10    9 ar   
    17   12    9 1    
    18   11   10 ar   
    19   37   10 1    
    20   38   11 1    
    21   13   12 2    
    22   16   12 1    
    23   14   13 1    
    24   39   13 1    
    25   15   14 2    
    26   40   14 1    
    27   16   15 1    
    28   17   15 1    
    29   22   16 1    
    30   18   17 1    
    31   41   17 1    
    32   42   17 1    
    33   19   18 1    
    34   43   18 1    
    35   44   18 1    
    36   20   19 ar   
    37   21   19 ar   
    38   23   22 ar   
    39   27   22 ar   
    40   24   23 ar   
    41   31   23 1    
    42   25   24 ar   
    43   45   24 1    
    44   26   25 ar   
    45   28   25 1    
    46   27   26 ar   
    47   46   26 1    
    48   47   27 1    
    49   29   28 2    
    50   30   28 am   
    51   48   30 1    
    52   49   30 1    
    53   50   31 1    
    54   51   31 1    
    55   52   31 1    
@<TRIPOS>SUBSTRUCTURE
     1 022377      1 GROUP   
@<TRIPOS>SET

