#    Name: 3tbg_RTZ_7_INTS_M
#    Modification time : Mon Mar 24 19:29:39 2014

@<TRIPOS>MOLECULE
3tbg_RTZ_7_INTS_M
   67     0     9     0     0
SMALL
NO_CHARGES


@<TRIPOS>ATOM
      1 CA         12.9730  -32.8665   -9.4245 C.3       3 GLC5        0.0000 
      2 CA         13.8890  -31.4090   -8.5640 C.3       9 GLL5        0.0000 
      3 CA         12.0570  -34.3240  -10.2850 C.3       6 GLP5        0.0000 
      4 CA         12.7145  -30.3010   -9.1955 C.3       3 GLC5        0.0000 
      5 CA         11.5400  -29.1930   -9.8270 C.3       6 GLP5        0.0000 
      6 CA         23.9195  -28.7385   -7.4085 C.3       3 GLC5        0.0000 
      7 CA         22.1890  -29.2720   -7.6660 C.3       9 GLL5        0.0000 
      8 CA         25.6500  -28.2050   -7.1510 C.3       6 GLP5        0.0000 
      9 CA         22.5700  -31.0530   -7.8385 C.3       3 GLC5        0.0000 
     10 CA         22.9510  -32.8340   -8.0110 C.3       6 GLP5        0.0000 
     11 CA         20.6545  -29.3190   -6.1445 C.3       3 GLC5        0.0000 
     12 CA         19.1200  -29.3660   -4.6230 C.3       6 GLP5        0.0000 
     13 CA         12.2960  -23.4155   -4.8045 C.3       3 GLC5        0.0000 
     14 CA         13.7960  -23.5420   -6.3430 C.3       9 GLL5        0.0000 
     15 CA         10.7960  -23.2890   -3.2660 C.3       6 GLP5        0.0000 
     16 CA         18.3655  -30.3020   -6.2690 C.3       3 GLC5        0.0000 
     17 CA         17.6110  -31.2380   -7.9150 C.3       9 GLL5        0.0000 
     18 CA         17.5160  -29.5385   -5.7920 C.3       3 GLC5        0.0000 
     19 CA         15.9120  -29.7110   -6.9610 C.3       9 GLL5        0.0000 
     20 CA         14.3085  -33.9335  -10.1215 C.3       3 GLC5        0.0000 
     21 CA         15.6200  -32.8840   -9.1630 C.3       9 GLL5        0.0000 
     22 CA         12.9970  -34.9830  -11.0800 C.3       6 GLP5        0.0000 
     23 OD1        15.1075  -32.2655   -6.9850 O.co2     2 ASC3        0.0000 
     24 OD1        15.2440  -31.8100   -8.1550 O.co2     8 ASL3        0.0000 
     25 OD1        14.9710  -32.7210   -5.8150 O.co2     5 ASP3        0.0000 
     26 O          15.1075  -32.2655   -6.9850 O.2       1 ALC1        0.0000 
     27 O          15.2440  -31.8100   -8.1550 O.2       7 ALL1        0.0000 
     28 O          14.9710  -32.7210   -5.8150 O.2       4 ALP1        0.0000 
     29 CA         21.0985  -26.1675   -8.8430 C.3       3 GLC5        0.0000 
     30 CA         21.0110  -28.3350   -8.7010 C.3       9 GLL5        0.0000 
     31 CA         21.1860  -24.0000   -8.9850 C.3       6 GLP5        0.0000 
     32 CA         20.6555  -28.8160  -10.3045 C.3       3 GLC5        0.0000 
     33 CA         20.3000  -29.2970  -11.9080 C.3       6 GLP5        0.0000 
     34 CA         14.9480  -25.8005   -4.1020 C.3       3 GLC5        0.0000 
     35 CA         17.0670  -25.3720   -4.6090 C.3       9 GLL5        0.0000 
     36 CA         12.8290  -26.2290   -3.5950 C.3       6 GLP5        0.0000 
     37 CA         18.2930  -23.9905   -5.7310 C.3       3 GLC5        0.0000 
     38 CA         19.5190  -22.6090   -6.8530 C.3       6 GLP5        0.0000 
     39 CA         18.0935  -27.3690   -4.6160 C.3       3 GLC5        0.0000 
     40 CA         17.1590  -26.5780   -2.8090 C.3       3 GLC5        0.0000 
     41 CA         17.2510  -27.7840   -1.0090 C.3       6 GLP5        0.0000 
     42 CA         22.2640  -27.7453   -9.6052 C.3       3 GLC5        0.0000 
     43 CA         22.9280  -26.6870  -11.0270 C.3       6 GLP5        0.0000 
     44 CA         15.2363  -34.7743   -8.4202 C.3       3 GLC5        0.0000 
     45 CA         16.9910  -33.4190   -8.8940 C.3       9 GLL5        0.0000 
     46 CA         14.1670  -36.3970   -7.8120 C.3       6 GLP5        0.0000 
     47 CA         18.4883  -33.5451   -7.4156 C.3       3 GLC5        0.0000 
     48 CA         19.4360  -35.0330   -6.4010 C.3       6 GLP5        0.0000 
     49 CA         20.6837  -25.5555   -8.0057 C.3       3 GLC5        0.0000 
     50 CA         19.9130  -27.4940   -7.5610 C.3       9 GLL5        0.0000 
     51 CA         19.5633  -27.8863   -5.3353 C.3       3 GLC5        0.0000 
     52 CA         20.4500  -26.7280   -6.4920 C.3       9 GLL5        0.0000 
     53 CA         19.1900  -24.3750   -6.2695 C.3       3 GLC5        0.0000 
     54 CA         19.5630  -26.0850   -5.6030 C.3       9 GLL5        0.0000 
     55 CA         13.9685  -28.5032   -6.1928 C.3       3 GLC5        0.0000 
     56 CA         15.5340  -28.3220   -7.5440 C.3       9 GLL5        0.0000 
     57 CA         12.2140  -27.9900   -5.1330 C.3       6 GLP5        0.0000 
     58 CA         16.5930  -32.8981  -11.0176 C.3       3 GLC5        0.0000 
     59 CA         16.6410  -32.9160  -12.9810 C.3       6 GLP5        0.0000 
     60 CA         17.5132  -25.9648   -8.6630 C.3       3 GLC5        0.0000 
     61 CA         18.5100  -27.6130   -7.7490 C.3       9 GLL5        0.0000 
     62 CA         16.9690  -24.6400  -10.0250 C.3       6 GLP5        0.0000 
     63 CA         19.1658  -28.4597   -6.1390 C.3       3 GLC5        0.0000 
     64 CA         15.7911  -25.0421   -8.6044 C.3       3 GLC5        0.0000 
     65 CA         15.3620  -25.9000   -6.8200 C.3       9 GLL5        0.0000 
     66 CA         18.5010  -27.9738   -5.4670 C.3       3 GLC5        0.0000 
     67 CA         17.6050  -26.9660   -6.8530 C.3       9 GLL5        0.0000 
@<TRIPOS>BOND
@<TRIPOS>SUBSTRUCTURE
     1 ALC1       26 GROUP        1 X    ALC  0     ROOT ALC X 1
     2 ASC3       23 GROUP        1 X    ASC  0     **** ASC X 3
     3 GLC5        1 GROUP        1 X    GLC  0     **** GLC X 6
     4 ALP1       28 GROUP        1 Y    ALP  0     ROOT ALP Y 8
     5 ASP3       25 GROUP        1 Y    ASP  0     **** ASP Y 10
     6 GLP5        3 GROUP        1 Y    GLP  0     **** GLP Y 13
     7 ALL1       27 GROUP        1 Z    ALL  0     ROOT ALL Z 15
     8 ASL3       24 GROUP        1 Z    ASL  0     **** ASL Z 17
     9 GLL5        2 GROUP        1 Z    GLL  0     **** GLL Z 20
@<TRIPOS>SET

