#    Name: 3tbg_RTZ_7_ligand
#    Modification time : Mon Mar 24 19:29:39 2014

@<TRIPOS>MOLECULE
3tbg_RTZ_7_ligand
   52    55     1     0     0
SMALL
NO_CHARGES


@<TRIPOS>ATOM
      1 CAA        13.8890  -31.4090   -8.5640 C.3       1 RTZ1        0.0000 
      2 CAB        22.1890  -29.2720   -7.6660 C.3       1 RTZ1        0.0000 
      3 CAC        13.4790  -24.3990   -7.4220 C.ar      1 RTZ1        0.0000 
      4 CAD        13.7960  -23.5420   -6.3430 C.ar      1 RTZ1        0.0000 
      5 CAE        17.9490  -32.3340   -8.9970 C.3       1 RTZ1        0.0000 
      6 CAF        16.9910  -33.4190   -8.8940 C.3       1 RTZ1        0.0000 
      7 CAG        17.6110  -31.2380   -7.9150 C.3       1 RTZ1        0.0000 
      8 CAH        14.2500  -25.5780   -7.6730 C.ar      1 RTZ1        0.0000 
      9 CAI        14.8960  -23.8530   -5.4960 C.ar      1 RTZ1        0.0000 
     10 CAJ        20.4500  -26.7280   -6.4920 C.ar      1 RTZ1        0.0000 
     11 CAK        19.5630  -26.0850   -5.6030 C.ar      1 RTZ1        0.0000 
     12 CAL        15.9120  -29.7110   -6.9610 C.3       1 RTZ1        0.0000 
     13 CAM        15.6200  -32.8840   -9.1630 C.3       1 RTZ1        0.0000 
     14 CAN        15.5340  -28.3220   -7.5440 C.3       1 RTZ1        0.0000 
     15 CAO        18.5100  -27.6130   -7.7490 C.ar      1 RTZ1        0.0000 
     16 CAP        16.2060  -30.6900   -8.1130 C.3       1 RTZ1        0.0000 
     17 CAQ        19.9130  -27.4940   -7.5610 C.ar      1 RTZ1        0.0000 
     18 CAR        15.3620  -25.9000   -6.8200 C.ar      1 RTZ1        0.0000 
     19 CAS        17.6050  -26.9660   -6.8530 C.ar      1 RTZ1        0.0000 
     20 CAT        15.6750  -25.0180   -5.7260 C.ar      1 RTZ1        0.0000 
     21 CAU        18.1590  -26.1970   -5.7690 C.ar      1 RTZ1        0.0000 
     22 NAV        15.2440  -31.8100   -8.1550 N.4       1 RTZ1        0.0000 
     23 NAW        16.1730  -27.0780   -7.0220 N.pl3     1 RTZ1        0.0000 
     24 SAX        21.0110  -28.3350   -8.7010 S.3       1 RTZ1        0.0000 
     25 SAY        17.0670  -25.3720   -4.6090 S.3       1 RTZ1        0.0000 
     26 H          12.6895  -24.1797   -8.0355 H         1 RTZ1        0.0000 
     27 H          13.2429  -22.7066   -6.1699 H         1 RTZ1        0.0000 
     28 H          17.9094  -31.8456   -9.9667 H         1 RTZ1        0.0000 
     29 H          18.9650  -32.6674   -8.8046 H         1 RTZ1        0.0000 
     30 H          17.0105  -33.8606   -7.8941 H         1 RTZ1        0.0000 
     31 H          17.2148  -34.2049   -9.6203 H         1 RTZ1        0.0000 
     32 H          18.3407  -30.4400   -8.0077 H         1 RTZ1        0.0000 
     33 H          17.6995  -31.6964   -6.9353 H         1 RTZ1        0.0000 
     34 H          14.0159  -26.1857   -8.4480 H         1 RTZ1        0.0000 
     35 H          15.1262  -23.2334   -4.7174 H         1 RTZ1        0.0000 
     36 H          21.4515  -26.6477   -6.3740 H         1 RTZ1        0.0000 
     37 H          19.9353  -25.5284   -4.8253 H         1 RTZ1        0.0000 
     38 H          15.0854  -30.0823   -6.3751 H         1 RTZ1        0.0000 
     39 H          16.7917  -29.6053   -6.3450 H         1 RTZ1        0.0000 
     40 H          14.8869  -33.6946   -9.1075 H         1 RTZ1        0.0000 
     41 H          15.5786  -32.4559  -10.1693 H         1 RTZ1        0.0000 
     42 H          14.4067  -28.2253   -7.4591 H         1 RTZ1        0.0000 
     43 H          15.6953  -28.3809   -8.6655 H         1 RTZ1        0.0000 
     44 H          18.1439  -28.1619   -8.5259 H         1 RTZ1        0.0000 
     45 H          16.1894  -30.1385   -9.0372 H         1 RTZ1        0.0000 
     46 H          15.1778  -32.2998   -7.1848 H         1 RTZ1        0.0000 
     47 H          13.8913  -30.9392   -9.4468 H         1 RTZ1        0.0000 
     48 H          13.2795  -32.1968   -8.6528 H         1 RTZ1        0.0000 
     49 H          13.4700  -30.7873   -7.9022 H         1 RTZ1        0.0000 
     50 H          22.8466  -29.7819   -8.2206 H         1 RTZ1        0.0000 
     51 H          22.7160  -28.6704   -7.0657 H         1 RTZ1        0.0000 
     52 H          21.7229  -29.9352   -7.0804 H         1 RTZ1        0.0000 
@<TRIPOS>BOND
     1   22    1 1    
     2   47    1 1    
     3   48    1 1    
     4   49    1 1    
     5   24    2 1    
     6   50    2 1    
     7   51    2 1    
     8   52    2 1    
     9    4    3 ar   
    10    8    3 ar   
    11   26    3 1    
    12    9    4 ar   
    13   27    4 1    
    14    6    5 1    
    15    7    5 1    
    16   28    5 1    
    17   29    5 1    
    18   13    6 1    
    19   30    6 1    
    20   31    6 1    
    21   16    7 1    
    22   32    7 1    
    23   33    7 1    
    24   18    8 ar   
    25   34    8 1    
    26   20    9 ar   
    27   35    9 1    
    28   11   10 ar   
    29   17   10 ar   
    30   36   10 1    
    31   21   11 ar   
    32   37   11 1    
    33   14   12 1    
    34   16   12 1    
    35   38   12 1    
    36   39   12 1    
    37   22   13 1    
    38   40   13 1    
    39   41   13 1    
    40   23   14 1    
    41   42   14 1    
    42   43   14 1    
    43   17   15 ar   
    44   19   15 ar   
    45   44   15 1    
    46   22   16 1    
    47   45   16 1    
    48   24   17 1    
    49   20   18 ar   
    50   23   18 1    
    51   21   19 ar   
    52   23   19 1    
    53   25   20 1    
    54   25   21 1    
    55   46   22 1    
@<TRIPOS>SUBSTRUCTURE
     1 RTZ1        1 GROUP   
@<TRIPOS>SET

