#    Name: 2pob_GW4_1_INTS_M
#    Modification time : Mon Mar 24 19:17:13 2014

@<TRIPOS>MOLECULE
2pob_GW4_1_INTS_M
   99     0     3     0     0
SMALL
NO_CHARGES


@<TRIPOS>ATOM
      1 CA         65.8690   32.5830   10.4710 C.3       1 GLC5        0.0000 
      2 CA         65.8030   31.5800    9.0360 C.3       3 GLL5        0.0000 
      3 CA         65.9350   33.5860   11.9060 C.3       2 GLP5        0.0000 
      4 CA         65.3495   30.1795    7.6465 C.3       1 GLC5        0.0000 
      5 CA         64.8960   28.7790    6.2570 C.3       2 GLP5        0.0000 
      6 CA         67.1840   30.6375    7.7335 C.3       1 GLC5        0.0000 
      7 CA         68.5650   29.6950    6.4310 C.3       2 GLP5        0.0000 
      8 CA         66.3455   29.8555    9.9780 C.3       1 GLC5        0.0000 
      9 CA         66.8880   28.1310   10.9200 C.3       2 GLP5        0.0000 
     10 CA         62.8915   34.0265    7.0320 C.3       1 GLC5        0.0000 
     11 CA         63.4750   35.6320    8.0980 C.3       3 GLL5        0.0000 
     12 CA         62.3080   32.4210    5.9660 C.3       2 GLP5        0.0000 
     13 CA         63.6540   32.2525   17.8835 C.3       1 GLC5        0.0000 
     14 CA         65.5190   31.0280   17.6130 C.3       3 GLL5        0.0000 
     15 CA         61.7890   33.4770   18.1540 C.3       2 GLP5        0.0000 
     16 CA         67.7825   30.5210   19.4350 C.3       1 GLC5        0.0000 
     17 CA         66.0550   30.7110   18.9980 C.3       3 GLL5        0.0000 
     18 CA         69.5100   30.3310   19.8720 C.3       2 GLP5        0.0000 
     19 CA         66.7220   31.1100   20.9845 C.3       1 GLC5        0.0000 
     20 CA         67.3890   31.5090   22.9710 C.3       2 GLP5        0.0000 
     21 CA         65.7085   27.9410   17.0765 C.3       1 GLC5        0.0000 
     22 CA         65.2290   29.7230   16.9180 C.3       3 GLL5        0.0000 
     23 CA         66.1880   26.1590   17.2350 C.3       2 GLP5        0.0000 
     24 CA         65.5960   36.2400   16.6820 C.3       1 GLC5        0.0000 
     25 CA         67.6330   35.3310   16.8320 C.3       3 GLL5        0.0000 
     26 CA         63.5590   37.1490   16.5320 C.3       2 GLP5        0.0000 
     27 CA         65.5385   37.1665   17.3715 C.3       1 GLC5        0.0000 
     28 CA         66.8070   35.9010   17.7610 C.3       3 GLL5        0.0000 
     29 CA         64.2700   38.4320   16.9820 C.3       2 GLP5        0.0000 
     30 CA         67.2115   36.8770   19.6420 C.3       1 GLC5        0.0000 
     31 CA         67.6160   37.8530   21.5230 C.3       2 GLP5        0.0000 
     32 CA         70.1310   35.3635   11.1825 C.3       1 GLC5        0.0000 
     33 CA         70.8780   35.1240   13.2590 C.3       3 GLL5        0.0000 
     34 CA         69.3840   35.6030    9.1060 C.3       2 GLP5        0.0000 
     35 CA         64.3295   32.3400   11.5875 C.3       1 GLC5        0.0000 
     36 CA         62.7240   31.0940   11.2690 C.3       3 GLL5        0.0000 
     37 CA         60.9010   31.8815   12.0280 C.3       1 GLC5        0.0000 
     38 CA         59.0780   32.6690   12.7870 C.3       2 GLP5        0.0000 
     39 CA         62.8255   29.3070    8.6165 C.3       1 GLC5        0.0000 
     40 CA         62.5730   31.1410    9.7660 C.3       3 GLL5        0.0000 
     41 CA         63.0780   27.4730    7.4670 C.3       2 GLP5        0.0000 
     42 CA         63.8765   28.8635   22.8120 C.3       1 GLC5        0.0000 
     43 CA         63.3250   30.3410   21.5350 C.3       3 GLL5        0.0000 
     44 CA         64.4280   27.3860   24.0890 C.3       2 GLP5        0.0000 
     45 CA         61.9235   29.8745   20.4795 C.3       1 GLC5        0.0000 
     46 CA         60.5220   29.4080   19.4240 C.3       2 GLP5        0.0000 
     47 CA         65.0150   31.5185   22.3610 C.3       1 GLC5        0.0000 
     48 CA         66.7050   32.6960   23.1870 C.3       2 GLP5        0.0000 
     49 CA         64.9415   32.9840   10.5040 C.3       1 GLC5        0.0000 
     50 CA         63.2810   32.3070    9.2450 C.3       3 GLL5        0.0000 
     51 CA         63.1913   37.1137    9.6357 C.3       1 GLC5        0.0000 
     52 CA         63.5210   38.2930   11.2500 C.3       2 GLP5        0.0000 
     53 CA         62.1215   35.9582    5.9698 C.3       1 GLC5        0.0000 
     54 CA         62.2480   36.2370    7.9450 C.3       3 GLL5        0.0000 
     55 CA         62.0390   35.0320    4.2220 C.3       2 GLP5        0.0000 
     56 CA         63.1282   38.0840    9.2913 C.3       1 GLC5        0.0000 
     57 CA         62.1600   37.5320    7.4900 C.3       3 GLL5        0.0000 
     58 CA         66.4140   37.4220    8.4070 C.3       1 GLC5        0.0000 
     59 CA         64.5400   37.6170    7.3230 C.3       3 GLL5        0.0000 
     60 CA         68.2480   37.8730    9.2590 C.3       2 GLP5        0.0000 
     61 CA         64.0505   37.6320    9.4025 C.3       1 GLC5        0.0000 
     62 CA         65.0914   35.8859    6.0419 C.3       1 GLC5        0.0000 
     63 CA         65.8890   34.9740    4.4510 C.3       2 GLP5        0.0000 
     64 CA         65.8347   31.8265   12.8933 C.3       1 GLC5        0.0000 
     65 CA         65.8870   29.9460   14.5410 C.3       3 GLL5        0.0000 
     66 CA         64.9972   28.1400   13.3178 C.3       1 GLC5        0.0000 
     67 CA         65.5820   30.1880   13.2200 C.3       3 GLL5        0.0000 
     68 CA         64.2600   26.2130   12.7550 C.3       2 GLP5        0.0000 
     69 CA         63.0546   28.8762   16.4255 C.3       1 GLC5        0.0000 
     70 CA         64.8980   29.9870   15.4980 C.3       3 GLL5        0.0000 
     71 CA         61.7780   27.6910   17.1760 C.3       2 GLP5        0.0000 
     72 CA         64.8593   32.0378   12.6263 C.3       1 GLC5        0.0000 
     73 CA         63.2850   30.5090   13.8250 C.3       3 GLL5        0.0000 
     74 CA         63.0652   28.7853   12.3283 C.3       1 GLC5        0.0000 
     75 CA         64.2820   30.4700   12.8680 C.3       3 GLL5        0.0000 
     76 CA         62.3470   27.0810   11.3100 C.3       2 GLP5        0.0000 
     77 CA         65.9481   29.1998   12.1471 C.3       1 GLC5        0.0000 
     78 CA         66.4768   34.4514   15.1378 C.3       1 GLC5        0.0000 
     79 CA         66.6220   33.1600   17.1570 C.3       3 GLL5        0.0000 
     80 CA         65.5950   34.4510   13.4360 C.3       2 GLP5        0.0000 
     81 CA         64.7005   35.7938   17.3837 C.3       1 GLC5        0.0000 
     82 CA         65.7980   33.7690   18.0840 C.3       3 GLL5        0.0000 
     83 CA         63.8155   33.9577   18.1947 C.3       1 GLC5        0.0000 
     84 CA         65.8860   35.1080   18.3870 C.3       3 GLL5        0.0000 
     85 CA         64.5960   35.2583   19.4663 C.3       1 GLC5        0.0000 
     86 CA         63.3500   36.0780   20.6970 C.3       2 GLP5        0.0000 
     87 CA         67.6535   34.3840   13.9165 C.3       1 GLC5        0.0000 
     88 CA         69.8340   34.3550   13.7200 C.3       3 GLL5        0.0000 
     89 CA         69.4905   36.3867   13.4585 C.3       1 GLC5        0.0000 
     90 CA         69.5900   34.2790   15.0740 C.3       3 GLL5        0.0000 
     91 CA         68.6860   38.0530   13.0890 C.3       2 GLP5        0.0000 
     92 CA         70.6377   37.3323   14.3458 C.3       1 GLC5        0.0000 
     93 CA         71.6630   35.8140   14.1590 C.3       3 GLL5        0.0000 
     94 CA         69.7370   38.8900   13.8560 C.3       2 GLP5        0.0000 
     95 CA         72.3570   33.9772   16.6133 C.3       1 GLC5        0.0000 
     96 CA         71.4140   35.7350   15.5120 C.3       3 GLL5        0.0000 
     97 CA         73.8190   32.6050   17.4810 C.3       2 GLP5        0.0000 
     98 CA         62.4977   29.0992   10.9138 C.3       1 GLC5        0.0000 
     99 CA         62.7843   32.0913    7.7000 C.3       1 GLC5        0.0000 
@<TRIPOS>BOND
@<TRIPOS>SUBSTRUCTURE
     1 GLC5        1 GROUP        1 X    GLC  0     ROOT GLC X 6
     2 GLP5        3 GROUP        1 Y    GLP  0     ROOT GLP Y 13
     3 GLL5        2 GROUP        1 Z    GLL  0     ROOT GLL Z 20
@<TRIPOS>SET

