#    Name: 2pob_GW4_1_ligand
#    Modification time : Mon Mar 24 19:17:13 2014

@<TRIPOS>MOLECULE
2pob_GW4_1_ligand
   78    82     1     0     0
SMALL
NO_CHARGES


@<TRIPOS>ATOM
      1 O          64.8020   33.7220    8.5050 O.3       1 GW4478      0.0000 
      2 C          63.5570   34.2710    8.5500 C.2       1 GW4478      0.0000 
      3 N          62.6060   33.4690    8.9810 N.2       1 GW4478      0.0000 
      4 C1         63.2810   32.3070    9.2450 C.2       1 GW4478      0.0000 
      5 C2         64.6150   32.4570    8.9590 C.2       1 GW4478      0.0000 
      6 C3         65.8030   31.5800    9.0360 C.3       1 GW4478      0.0000 
      7 C4         63.4750   35.6320    8.0980 C.ar      1 GW4478      0.0000 
      8 C5         62.2480   36.2370    7.9450 C.ar      1 GW4478      0.0000 
      9 C6         62.1600   37.5320    7.4900 C.ar      1 GW4478      0.0000 
     10 C7         63.3110   38.2180    7.1750 C.ar      1 GW4478      0.0000 
     11 C8         64.5400   37.6170    7.3230 C.ar      1 GW4478      0.0000 
     12 C9         64.6200   36.3250    7.7870 C.ar      1 GW4478      0.0000 
     13 N1         66.5200   31.7730   16.8500 N.pl3     1 GW4478      0.0000 
     14 C10        65.5190   31.0280   17.6130 C.3       1 GW4478      0.0000 
     15 C11        66.0550   30.7110   18.9980 C.3       1 GW4478      0.0000 
     16 N2         65.0120   30.2220   19.8610 N.am      1 GW4478      0.0000 
     17 C12        65.2290   29.7230   16.9180 C.3       1 GW4478      0.0000 
     18 C13        64.8980   29.9870   15.4980 C.ar      1 GW4478      0.0000 
     19 C14        65.8870   29.9460   14.5410 C.ar      1 GW4478      0.0000 
     20 C15        63.5990   30.2680   15.1420 C.ar      1 GW4478      0.0000 
     21 C16        65.5820   30.1880   13.2200 C.ar      1 GW4478      0.0000 
     22 C17        63.2850   30.5090   13.8250 C.ar      1 GW4478      0.0000 
     23 C18        64.2820   30.4700   12.8680 C.ar      1 GW4478      0.0000 
     24 O1         64.0680   30.7030   11.5260 O.3       1 GW4478      0.0000 
     25 C19        66.6220   33.1600   17.1570 C.ar      1 GW4478      0.0000 
     26 C20        67.5460   33.9850   16.5370 C.ar      1 GW4478      0.0000 
     27 C21        67.6330   35.3310   16.8320 C.ar      1 GW4478      0.0000 
     28 C22        66.8070   35.9010   17.7610 C.ar      1 GW4478      0.0000 
     29 C23        65.8860   35.1080   18.3870 C.ar      1 GW4478      0.0000 
     30 C24        65.7980   33.7690   18.0840 C.ar      1 GW4478      0.0000 
     31 C25        69.5900   34.2790   15.0740 C.ar      1 GW4478      0.0000 
     32 C26        69.8340   34.3550   13.7200 C.ar      1 GW4478      0.0000 
     33 C27        70.8780   35.1240   13.2590 C.ar      1 GW4478      0.0000 
     34 C28        71.6630   35.8140   14.1590 C.ar      1 GW4478      0.0000 
     35 C29        71.4140   35.7350   15.5120 C.ar      1 GW4478      0.0000 
     36 C30        70.3760   34.9640   15.9790 C.ar      1 GW4478      0.0000 
     37 C31        68.4710   33.4470   15.5320 C.2       1 GW4478      0.0000 
     38 O2         68.3240   32.3230   15.0720 O.2       1 GW4478      0.0000 
     39 C32        62.7240   31.0940   11.2690 C.3       1 GW4478      0.0000 
     40 C33        62.5730   31.1410    9.7660 C.3       1 GW4478      0.0000 
     41 C34        64.2870   31.0760   20.6630 C.2       1 GW4478      0.0000 
     42 C35        63.3250   30.3410   21.5350 C.3       1 GW4478      0.0000 
     43 O3         64.3780   32.2950   20.7010 O.2       1 GW4478      0.0000 
     44 H          61.3840   35.7122    8.1746 H         1 GW4478      0.0000 
     45 H          61.2415   37.9847    7.3858 H         1 GW4478      0.0000 
     46 H          63.2516   39.1904    6.8252 H         1 GW4478      0.0000 
     47 H          65.4008   38.1358    7.0858 H         1 GW4478      0.0000 
     48 H          65.5440   35.8745    7.9019 H         1 GW4478      0.0000 
     49 H          67.0750   31.3298   16.1756 H         1 GW4478      0.0000 
     50 H          64.6145   31.5831   17.7096 H         1 GW4478      0.0000 
     51 H          66.5111   31.6277   19.4048 H         1 GW4478      0.0000 
     52 H          66.8622   29.9691   18.8893 H         1 GW4478      0.0000 
     53 H          64.8238   29.2073   19.8599 H         1 GW4478      0.0000 
     54 H          64.3924   29.2312   17.4141 H         1 GW4478      0.0000 
     55 H          66.1052   29.0784   16.9864 H         1 GW4478      0.0000 
     56 H          66.8610   29.7330   14.8146 H         1 GW4478      0.0000 
     57 H          62.8605   30.2978   15.8635 H         1 GW4478      0.0000 
     58 H          66.3195   30.1581   12.5035 H         1 GW4478      0.0000 
     59 H          62.3154   30.7173   13.5502 H         1 GW4478      0.0000 
     60 H          68.3381   35.9144   16.3379 H         1 GW4478      0.0000 
     61 H          66.8770   36.8996   17.9827 H         1 GW4478      0.0000 
     62 H          65.2471   35.5153   19.0962 H         1 GW4478      0.0000 
     63 H          65.0768   33.1844   18.5753 H         1 GW4478      0.0000 
     64 H          69.2378   33.8388   13.0571 H         1 GW4478      0.0000 
     65 H          71.0728   35.1847   12.2502 H         1 GW4478      0.0000 
     66 H          72.4473   36.3972   13.8139 H         1 GW4478      0.0000 
     67 H          72.0099   36.2573   16.1763 H         1 GW4478      0.0000 
     68 H          70.1860   34.8969   16.9850 H         1 GW4478      0.0000 
     69 H          62.5045   32.0796   11.6660 H         1 GW4478      0.0000 
     70 H          62.0102   30.3779   11.6625 H         1 GW4478      0.0000 
     71 H          62.9803   30.2198    9.3439 H         1 GW4478      0.0000 
     72 H          61.5097   31.1923    9.5220 H         1 GW4478      0.0000 
     73 H          66.2328   31.4575    8.1414 H         1 GW4478      0.0000 
     74 H          66.5007   31.9527    9.6478 H         1 GW4478      0.0000 
     75 H          65.5707   30.6690    9.3768 H         1 GW4478      0.0000 
     76 H          63.7909   29.6961   22.1408 H         1 GW4478      0.0000 
     77 H          62.8008   30.9631   22.1165 H         1 GW4478      0.0000 
     78 H          62.6649   29.8149   20.9988 H         1 GW4478      0.0000 
@<TRIPOS>BOND
     1    2    1 1    
     2    5    1 1    
     3    3    2 2    
     4    7    2 1    
     5    4    3 1    
     6    5    4 2    
     7   40    4 1    
     8    6    5 1    
     9   73    6 1    
    10   74    6 1    
    11   75    6 1    
    12    8    7 ar   
    13   12    7 ar   
    14    9    8 ar   
    15   44    8 1    
    16   10    9 ar   
    17   45    9 1    
    18   11   10 ar   
    19   46   10 1    
    20   12   11 ar   
    21   47   11 1    
    22   48   12 1    
    23   14   13 1    
    24   25   13 1    
    25   49   13 1    
    26   15   14 1    
    27   17   14 1    
    28   50   14 1    
    29   16   15 1    
    30   51   15 1    
    31   52   15 1    
    32   41   16 am   
    33   53   16 1    
    34   18   17 1    
    35   54   17 1    
    36   55   17 1    
    37   19   18 ar   
    38   20   18 ar   
    39   21   19 ar   
    40   56   19 1    
    41   22   20 ar   
    42   57   20 1    
    43   23   21 ar   
    44   58   21 1    
    45   23   22 ar   
    46   59   22 1    
    47   24   23 1    
    48   39   24 1    
    49   26   25 ar   
    50   30   25 ar   
    51   27   26 ar   
    52   37   26 1    
    53   28   27 ar   
    54   60   27 1    
    55   29   28 ar   
    56   61   28 1    
    57   30   29 ar   
    58   62   29 1    
    59   63   30 1    
    60   32   31 ar   
    61   36   31 ar   
    62   37   31 1    
    63   33   32 ar   
    64   64   32 1    
    65   34   33 ar   
    66   65   33 1    
    67   35   34 ar   
    68   66   34 1    
    69   36   35 ar   
    70   67   35 1    
    71   68   36 1    
    72   38   37 2    
    73   40   39 1    
    74   69   39 1    
    75   70   39 1    
    76   71   40 1    
    77   72   40 1    
    78   42   41 1    
    79   43   41 2    
    80   76   42 1    
    81   77   42 1    
    82   78   42 1    
@<TRIPOS>SUBSTRUCTURE
     1 GW4478      1 GROUP   
@<TRIPOS>SET

