#    Name: 1d0l_BLG_1_INTS_M
#    Modification time : Mon Mar 24 21:10:27 2014

@<TRIPOS>MOLECULE
1d0l_BLG_1_INTS_M
   57     0     9     0     0
SMALL
NO_CHARGES


@<TRIPOS>ATOM
      1 O           8.7025   22.2095   15.0480 O.2       1 ALC1        0.0000 
      2 O           9.6960   22.7840   14.0940 O.2       7 ALL1        0.0000 
      3 O           7.7090   21.6350   16.0020 O.2       4 ALP1        0.0000 
      4 N          11.3350   22.8560   10.8260 N.am      2 SEC2        0.0000 
      5 N          11.0740   22.8220   12.3140 N.am      8 SEL2        0.0000 
      6 N          11.5960   22.8900    9.3380 N.am      5 SEP2        0.0000 
      7 CA         12.4645   19.9120   12.6735 C.3       3 GLC5        0.0000 
      8 CA         11.2530   20.9350   13.7170 C.3       9 GLL5        0.0000 
      9 CA         13.6760   18.8890   11.6300 C.3       6 GLP5        0.0000 
     10 CA         12.7320   22.3260   12.9285 C.3       3 GLC5        0.0000 
     11 CA         14.2110   23.7170   12.1400 C.3       6 GLP5        0.0000 
     12 CA         12.3460   21.7785   14.8815 C.3       3 GLC5        0.0000 
     13 CA         13.4390   22.6220   16.0460 C.3       6 GLP5        0.0000 
     14 CA         11.1040   19.2915   14.1770 C.3       3 GLC5        0.0000 
     15 CA         10.9550   17.6480   14.6370 C.3       6 GLP5        0.0000 
     16 N          11.0180   24.5245   16.0925 N.am      2 SEC2        0.0000 
     17 N          10.5510   25.4850   15.1350 N.am      8 SEL2        0.0000 
     18 N          11.4850   23.5640   17.0500 N.am      5 SEP2        0.0000 
     19 N           5.2615   28.9245   12.4115 N.am      2 SEC2        0.0000 
     20 N           6.1490   27.6020   12.7690 N.am      8 SEL2        0.0000 
     21 N           4.3740   30.2470   12.0540 N.am      5 SEP2        0.0000 
     22 O           7.4905   28.1280   11.9605 O.2       1 ALC1        0.0000 
     23 O           6.1490   27.6020   12.7690 O.2       7 ALL1        0.0000 
     24 O           8.8320   28.6540   11.1520 O.2       4 ALP1        0.0000 
     25 CA          7.0710   21.0920    9.4040 C.3       3 GLC5        0.0000 
     26 CA          6.5230   21.0780   11.4190 C.3       9 GLL5        0.0000 
     27 CA          7.6190   21.1060    7.3890 C.3       6 GLP5        0.0000 
     28 CA          6.8470   24.0550    9.7435 C.3       3 GLC5        0.0000 
     29 CA          5.4000   23.0840   11.0370 C.3       9 GLL5        0.0000 
     30 CA          8.2940   25.0260    8.4500 C.3       6 GLP5        0.0000 
     31 CA          8.3070   18.9475   13.4915 C.3       3 GLC5        0.0000 
     32 CA          7.0250   19.9890   12.3610 C.3       9 GLL5        0.0000 
     33 CA          9.5890   17.9060   14.6220 C.3       6 GLP5        0.0000 
     34 N           4.7050   20.0835   13.9165 N.am      2 SEC2        0.0000 
     35 N           6.0220   19.6590   13.3090 N.am      8 SEL2        0.0000 
     36 N           3.3880   20.5080   14.5240 N.am      5 SEP2        0.0000 
     37 O           5.9240   18.1965   12.4285 O.2       1 ALC1        0.0000 
     38 O           6.0220   19.6590   13.3090 O.2       7 ALL1        0.0000 
     39 O           5.8260   16.7340   11.5480 O.2       4 ALP1        0.0000 
     40 O           6.1340   18.3585   13.4855 O.2       1 ALC1        0.0000 
     41 O           6.2460   17.0580   13.6620 O.2       4 ALP1        0.0000 
     42 N           4.6570   21.6980    7.0360 N.am      2 SEC2        0.0000 
     43 N           4.4220   21.7950    8.3520 N.am      8 SEL2        0.0000 
     44 N           4.8920   21.6010    5.7200 N.am      5 SEP2        0.0000 
     45 CA          3.0310   21.5015    6.6670 C.3       3 GLC5        0.0000 
     46 CA          1.7320   22.6240    8.0540 C.3       9 GLL5        0.0000 
     47 CA          4.3300   20.3790    5.2800 C.3       6 GLP5        0.0000 
     48 CA          2.8760   23.9050    7.4950 C.3       3 GLC5        0.0000 
     49 CA          4.0200   25.1860    6.9360 C.3       6 GLP5        0.0000 
     50 CA         -1.2370   22.6450    6.9630 C.3       3 GLC5        0.0000 
     51 CA          0.3050   22.1230    8.1660 C.3       9 GLL5        0.0000 
     52 CA         -2.7790   23.1670    5.7600 C.3       6 GLP5        0.0000 
     53 CA          8.8448   24.4745   11.7605 C.3       3 GLC5        0.0000 
     54 CA          7.5730   23.7940   13.4880 C.3       9 GLL5        0.0000 
     55 CA          9.3710   25.0270    9.8900 C.3       6 GLP5        0.0000 
     56 CA          7.4090   19.1268   10.5335 C.3       3 GLC5        0.0000 
     57 CA          8.0440   17.7200    9.1770 C.3       6 GLP5        0.0000 
@<TRIPOS>BOND
@<TRIPOS>SUBSTRUCTURE
     1 ALC1        1 GROUP        1 X    ALC  0     ROOT ALC X 1
     2 SEC2        4 GROUP        1 X    SEC  0     **** SEC X 2
     3 GLC5        7 GROUP        1 X    GLC  0     **** GLC X 6
     4 ALP1        3 GROUP        1 Y    ALP  0     ROOT ALP Y 8
     5 SEP2        6 GROUP        1 Y    SEP  0     **** SEP Y 9
     6 GLP5        9 GROUP        1 Y    GLP  0     **** GLP Y 13
     7 ALL1        2 GROUP        1 Z    ALL  0     ROOT ALL Z 15
     8 SEL2        5 GROUP        1 Z    SEL  0     **** SEL Z 16
     9 GLL5        8 GROUP        1 Z    GLL  0     **** GLL Z 20
@<TRIPOS>SET

