#    Name: 1d0l_BLG_1_ligand
#    Modification time : Mon Mar 24 21:10:27 2014

@<TRIPOS>MOLECULE
1d0l_BLG_1_ligand
   61    62     1     0     0
SMALL
NO_CHARGES


@<TRIPOS>ATOM
      1 C1          7.5730   23.7940   13.4880 C.3       1 BLG401      0.0000 
      2 C2          9.0640   24.0500   13.7740 C.3       1 BLG401      0.0000 
      3 C3          9.2150   25.0660   14.9270 C.3       1 BLG401      0.0000 
      4 C4          8.3440   26.3100   14.6710 C.3       1 BLG401      0.0000 
      5 C5          6.8720   25.9170   14.3800 C.3       1 BLG401      0.0000 
      6 O5          6.8570   25.0120   13.2780 O.3       1 BLG401      0.0000 
      7 O1          7.4870   22.9790   12.3230 O.3       1 BLG401      0.0000 
      8 N2          9.6960   22.7840   14.0940 N.am      1 BLG401      0.0000 
      9 C7         10.6460   22.2620   13.3250 C.2       1 BLG401      0.0000 
     10 O7         11.0740   22.8220   12.3140 O.2       1 BLG401      0.0000 
     11 C8         11.2530   20.9350   13.7170 C.3       1 BLG401      0.0000 
     12 O3         10.5510   25.4850   15.1350 O.3       1 BLG401      0.0000 
     13 O4          8.4100   27.1340   15.8230 O.3       1 BLG401      0.0000 
     14 S4          8.8950   28.6370   15.6410 S.o2      1 BLG401      0.0000 
     15 O41        10.2760   28.6670   15.2100 O.co2     1 BLG401      0.0000 
     16 O42         8.7130   29.3040   16.9220 O.co2     1 BLG401      0.0000 
     17 O43         8.0780   29.2880   14.6160 O.co2     1 BLG401      0.0000 
     18 C6          5.8750   27.0530   14.0520 C.3       1 BLG401      0.0000 
     19 O6          6.1490   27.6020   12.7690 O.3       1 BLG401      0.0000 
     20 CA          6.5230   21.0780   11.4190 C.3       1 BLG401      0.0000 
     21 CB          6.2340   22.3890   12.0940 C.3       1 BLG401      0.0000 
     22 CG          5.4000   23.0840   11.0370 C.3       1 BLG401      0.0000 
     23 CD          4.3980   21.9760   10.7490 C.3       1 BLG401      0.0000 
     24 N           5.2280   20.7050   10.8650 N.4       1 BLG401      0.0000 
     25 C9          7.0250   19.9890   12.3610 C.3       1 BLG401      0.0000 
     26 O9          6.0220   19.6590   13.3090 O.3       1 BLG401      0.0000 
     27 C10         3.7550   22.0640    9.3550 C.2       1 BLG401      0.0000 
     28 O10         4.4220   21.7950    8.3520 O.2       1 BLG401      0.0000 
     29 N3          2.4870   22.4670    9.2960 N.am      1 BLG401      0.0000 
     30 C11         1.7320   22.6240    8.0540 C.3       1 BLG401      0.0000 
     31 C12         0.3050   22.1230    8.1660 C.3       1 BLG401      0.0000 
     32 S           0.1890   20.3060    8.2400 S.o2      1 BLG401      0.0000 
     33 OS1        -0.7720   19.8250    7.2480 O.co2     1 BLG401      0.0000 
     34 OS2         1.4680   19.6720    7.9210 O.co2     1 BLG401      0.0000 
     35 OS3        -0.2250   19.8830    9.5790 O.co2     1 BLG401      0.0000 
     36 H           7.1771   23.2557   14.3449 H         1 BLG401      0.0000 
     37 H           9.4977   24.4814   12.8842 H         1 BLG401      0.0000 
     38 H           8.8116   24.5918   15.8331 H         1 BLG401      0.0000 
     39 H           8.7341   26.8143   13.8026 H         1 BLG401      0.0000 
     40 H           6.4879   25.3897   15.2683 H         1 BLG401      0.0000 
     41 H           9.3600   22.3119   14.9605 H         1 BLG401      0.0000 
     42 H           5.9643   27.8022   14.8502 H         1 BLG401      0.0000 
     43 H           4.8654   26.6246   14.1116 H         1 BLG401      0.0000 
     44 H           7.2187   21.2368   10.6265 H         1 BLG401      0.0000 
     45 H           5.6596   22.2025   12.9410 H         1 BLG401      0.0000 
     46 H           5.9780   23.2731   10.1865 H         1 BLG401      0.0000 
     47 H           4.9101   23.9109   11.4485 H         1 BLG401      0.0000 
     48 H           3.6565   21.9628   11.5080 H         1 BLG401      0.0000 
     49 H           7.9392   20.3625   12.8447 H         1 BLG401      0.0000 
     50 H           7.3095   19.1224   11.7467 H         1 BLG401      0.0000 
     51 H           1.9461   22.7010   10.1740 H         1 BLG401      0.0000 
     52 H           2.2272   22.0775    7.2298 H         1 BLG401      0.0000 
     53 H           1.7029   23.6876    7.7520 H         1 BLG401      0.0000 
     54 H          -0.3046   22.3502    7.3092 H         1 BLG401      0.0000 
     55 H          -0.1886   22.4147    9.0762 H         1 BLG401      0.0000 
     56 H          11.9564   20.6425   13.0692 H         1 BLG401      0.0000 
     57 H          11.6835   20.9754   14.6187 H         1 BLG401      0.0000 
     58 H          10.5667   20.2086   13.7522 H         1 BLG401      0.0000 
     59 H          10.5405   26.4720   14.9747 H         1 BLG401      0.0000 
     60 H           6.9307   28.2098   12.9092 H         1 BLG401      0.0000 
     61 H           5.7549   18.7212   13.0872 H         1 BLG401      0.0000 
@<TRIPOS>BOND
     1    2    1 1    
     2    6    1 1    
     3    7    1 1    
     4   36    1 1    
     5    3    2 1    
     6    8    2 1    
     7   37    2 1    
     8    4    3 1    
     9   12    3 1    
    10   38    3 1    
    11    5    4 1    
    12   13    4 1    
    13   39    4 1    
    14    6    5 1    
    15   18    5 1    
    16   40    5 1    
    17   21    7 1    
    18    9    8 am   
    19   41    8 1    
    20   10    9 2    
    21   11    9 1    
    22   56   11 1    
    23   57   11 1    
    24   58   11 1    
    25   59   12 1    
    26   14   13 1    
    27   15   14 ar   
    28   16   14 ar   
    29   17   14 ar   
    30   19   18 1    
    31   42   18 1    
    32   43   18 1    
    33   60   19 1    
    34   21   20 1    
    35   24   20 1    
    36   25   20 1    
    37   44   20 1    
    38   22   21 1    
    39   45   21 1    
    40   23   22 1    
    41   46   22 1    
    42   47   22 1    
    43   24   23 1    
    44   27   23 1    
    45   48   23 1    
    46   26   25 1    
    47   49   25 1    
    48   50   25 1    
    49   61   26 1    
    50   28   27 2    
    51   29   27 am   
    52   30   29 1    
    53   51   29 1    
    54   31   30 1    
    55   52   30 1    
    56   53   30 1    
    57   32   31 1    
    58   54   31 1    
    59   55   31 1    
    60   33   32 ar   
    61   34   32 ar   
    62   35   32 ar   
@<TRIPOS>SUBSTRUCTURE
     1 BLG401      1 GROUP   
@<TRIPOS>SET

