#    Name: 1uu3_LY4_1_INTS_M
#    Modification time : Tue Mar 25 07:05:42 2014

@<TRIPOS>MOLECULE
1uu3_LY4_1_INTS_M
   68     0     9     0     0
SMALL
NO_CHARGES


@<TRIPOS>ATOM
      1 CA         24.2120   83.4960   26.3240 C.3       3 GLC5        0.0000 
      2 CA         23.0590   81.7310   26.8680 C.3       9 GLL5        0.0000 
      3 CA         25.3650   85.2610   25.7800 C.3       6 GLP5        0.0000 
      4 CA         24.1850   79.2170   24.9070 C.3       3 GLC5        0.0000 
      5 CA         23.0500   80.4080   26.1420 C.3       9 GLL5        0.0000 
      6 CA         25.3200   78.0260   23.6720 C.3       6 GLP5        0.0000 
      7 CA         21.8485   77.0230   24.5520 C.3       3 GLC5        0.0000 
      8 CA         22.3960   77.3450   26.2970 C.3       9 GLL5        0.0000 
      9 CA         21.3010   76.7010   22.8070 C.3       6 GLP5        0.0000 
     10 N          26.7005   75.9280   25.3515 N.am      2 SEC2        0.0000 
     11 N          27.6000   76.1180   26.5140 N.am      8 SEL2        0.0000 
     12 N          25.8010   75.7380   24.1890 N.am      5 SEP2        0.0000 
     13 O          30.4615   76.5585   27.8005 O.2       1 ALC1        0.0000 
     14 O          29.1960   77.2020   27.7290 O.2       7 ALL1        0.0000 
     15 O          31.7270   75.9150   27.8720 O.2       4 ALP1        0.0000 
     16 N          31.6275   78.9565   28.3670 N.am      2 SEC2        0.0000 
     17 N          30.2550   78.7090   29.0070 N.am      8 SEL2        0.0000 
     18 N          33.0000   79.2040   27.7270 N.am      5 SEP2        0.0000 
     19 CA         29.0355   77.5305   29.9600 C.3       3 GLC5        0.0000 
     20 CA         27.9200   78.8530   28.6560 C.3       9 GLL5        0.0000 
     21 CA         30.1510   76.2080   31.2640 C.3       6 GLP5        0.0000 
     22 CA         26.8450   80.5830   31.8425 C.3       3 GLC5        0.0000 
     23 CA         26.2840   80.2240   29.8570 C.3       9 GLL5        0.0000 
     24 CA         27.4060   80.9420   33.8280 C.3       6 GLP5        0.0000 
     25 CA         26.1400   81.4470   32.3850 C.3       3 GLC5        0.0000 
     26 CA         24.8740   81.9520   30.9420 C.3       9 GLL5        0.0000 
     27 CA         23.9095   81.8615   32.5450 C.3       3 GLC5        0.0000 
     28 CA         22.9450   81.7710   34.1480 C.3       6 GLP5        0.0000 
     29 CA         18.1975   79.3015   30.9440 C.3       3 GLC5        0.0000 
     30 CA         19.4060   79.6900   29.4820 C.3       9 GLL5        0.0000 
     31 CA         16.9890   78.9130   32.4060 C.3       6 GLP5        0.0000 
     32 CA         22.1515   80.7155   32.4490 C.3       3 GLC5        0.0000 
     33 CA         21.3580   79.6600   30.7500 C.3       9 GLL5        0.0000 
     34 CA         22.7265   78.1575   31.2830 C.3       3 GLC5        0.0000 
     35 CA         24.0950   76.6550   31.8160 C.3       6 GLP5        0.0000 
     36 CA         26.9145   79.3023   26.2560 C.3       3 GLC5        0.0000 
     37 CA         25.1760   79.4250   27.0870 C.3       9 GLL5        0.0000 
     38 CA         28.4060   79.7840   25.2330 C.3       6 GLP5        0.0000 
     39 CA         25.3715   78.4232   25.4755 C.3       3 GLC5        0.0000 
     40 CA         24.1512   77.8547   25.0820 C.3       3 GLC5        0.0000 
     41 CA         23.5690   78.0220   26.6870 C.3       9 GLL5        0.0000 
     42 CA         22.4252   75.4495   24.7297 C.3       3 GLC5        0.0000 
     43 CA         22.3460   75.9380   26.4140 C.3       9 GLL5        0.0000 
     44 CA         21.9720   75.3350   22.7910 C.3       6 GLP5        0.0000 
     45 CA         23.2300   74.2258   28.4977 C.3       3 GLC5        0.0000 
     46 CA         23.4110   75.1900   26.9230 C.3       9 GLL5        0.0000 
     47 CA         22.4560   72.9230   29.8840 C.3       6 GLP5        0.0000 
     48 CA         25.5230   74.3742   27.8293 C.3       3 GLC5        0.0000 
     49 CA         27.0420   73.2200   28.5470 C.3       6 GLP5        0.0000 
     50 CA         24.9765   77.3035   25.4528 C.3       3 GLC5        0.0000 
     51 CA         24.5970   75.8670   27.3000 C.3       9 GLL5        0.0000 
     52 CA         27.9597   79.5150   27.0196 C.3       3 GLC5        0.0000 
     53 CA         27.5390   80.0400   29.3640 C.3       9 GLL5        0.0000 
     54 CA         26.7684   78.4321   30.9358 C.3       3 GLC5        0.0000 
     55 CA         26.5300   77.0290   32.4380 C.3       6 GLP5        0.0000 
     56 CA         29.0712   80.3836   31.2509 C.3       3 GLC5        0.0000 
     57 CA         29.4150   79.5970   33.0650 C.3       6 GLP5        0.0000 
     58 CA         29.5815   82.6532   32.0902 C.3       3 GLC5        0.0000 
     59 CA         29.9130   82.9930   29.7780 C.3       9 GLL5        0.0000 
     60 CA         29.7080   81.8870   34.0840 C.3       6 GLP5        0.0000 
     61 CA         29.7624   84.0884   28.4709 C.3       3 GLC5        0.0000 
     62 CA         28.9970   83.8460   30.4150 C.3       9 GLL5        0.0000 
     63 CA         30.1560   85.0810   26.9460 C.3       6 GLP5        0.0000 
     64 CA         27.4582   81.8485   32.1423 C.3       3 GLC5        0.0000 
     65 CA         27.6940   83.4060   30.6560 C.3       9 GLL5        0.0000 
     66 CA         21.8206   82.6216   26.0090 C.3       3 GLC5        0.0000 
     67 CA         22.3860   81.6410   28.2390 C.3       9 GLL5        0.0000 
     68 CA         20.9210   83.8880   24.6460 C.3       6 GLP5        0.0000 
@<TRIPOS>BOND
@<TRIPOS>SUBSTRUCTURE
     1 ALC1       13 GROUP        1 X    ALC  0     ROOT ALC X 1
     2 SEC2       10 GROUP        1 X    SEC  0     **** SEC X 2
     3 GLC5        1 GROUP        1 X    GLC  0     **** GLC X 6
     4 ALP1       15 GROUP        1 Y    ALP  0     ROOT ALP Y 8
     5 SEP2       12 GROUP        1 Y    SEP  0     **** SEP Y 9
     6 GLP5        3 GROUP        1 Y    GLP  0     **** GLP Y 13
     7 ALL1       14 GROUP        1 Z    ALL  0     ROOT ALL Z 15
     8 SEL2       11 GROUP        1 Z    SEL  0     **** SEL Z 16
     9 GLL5        2 GROUP        1 Z    GLL  0     **** GLL Z 20
@<TRIPOS>SET

