#    Name: 1uu3_LY4_1_ligand
#    Modification time : Tue Mar 25 07:05:42 2014

@<TRIPOS>MOLECULE
1uu3_LY4_1_ligand
   64    69     1     0     0
SMALL
NO_CHARGES


@<TRIPOS>ATOM
      1 CBD        23.0590   81.7310   26.8680 C.3       1 LY41374     0.0000 
      2 CBB        23.0500   80.4080   26.1420 C.3       1 LY41374     0.0000 
      3 NAW        23.8550   79.3070   26.6980 N.pl3     1 LY41374     0.0000 
      4 CAV        25.1760   79.4250   27.0870 C.2       1 LY41374     0.0000 
      5 CAX        23.5690   78.0220   26.6870 C.ar      1 LY41374     0.0000 
      6 CAY        22.3960   77.3450   26.2970 C.ar      1 LY41374     0.0000 
      7 CAZ        22.3460   75.9380   26.4140 C.ar      1 LY41374     0.0000 
      8 CAP        23.4110   75.1900   26.9230 C.ar      1 LY41374     0.0000 
      9 CAO        24.5970   75.8670   27.3000 C.ar      1 LY41374     0.0000 
     10 CAN        24.6690   77.2950   27.1670 C.ar      1 LY41374     0.0000 
     11 CAM        25.6700   78.2160   27.4710 C.2       1 LY41374     0.0000 
     12 CAH        27.0560   78.0510   27.8410 C.2       1 LY41374     0.0000 
     13 CAE        27.9160   77.0440   27.2890 C.2       1 LY41374     0.0000 
     14 OAF        27.6000   76.1180   26.5140 O.2       1 LY41374     0.0000 
     15 NAD        29.1960   77.2020   27.7290 N.am      1 LY41374     0.0000 
     16 CAC        29.2110   78.2680   28.5030 C.2       1 LY41374     0.0000 
     17 OAB        30.2550   78.7090   29.0070 O.2       1 LY41374     0.0000 
     18 CAG        27.9200   78.8530   28.6560 C.2       1 LY41374     0.0000 
     19 CAL        27.5390   80.0400   29.3640 C.2       1 LY41374     0.0000 
     20 CAU        26.2840   80.2240   29.8570 C.2       1 LY41374     0.0000 
     21 CAK        28.2350   81.2450   29.6330 C.ar      1 LY41374     0.0000 
     22 CAJ        29.5680   81.6980   29.3750 C.ar      1 LY41374     0.0000 
     23 CAI        29.9130   82.9930   29.7780 C.ar      1 LY41374     0.0000 
     24 CAQ        28.9970   83.8460   30.4150 C.ar      1 LY41374     0.0000 
     25 CAR        27.6940   83.4060   30.6560 C.ar      1 LY41374     0.0000 
     26 CAS        27.3270   82.1040   30.2570 C.ar      1 LY41374     0.0000 
     27 NAT        26.1650   81.4600   30.3850 N.pl3     1 LY41374     0.0000 
     28 CBA        24.8740   81.9520   30.9420 C.3       1 LY41374     0.0000 
     29 CBC        24.0910   82.5240   29.7510 C.3       1 LY41374     0.0000 
     30 OBE        23.3960   81.3680   29.2220 O.3       1 LY41374     0.0000 
     31 CBF        22.3860   81.6410   28.2390 C.3       1 LY41374     0.0000 
     32 CBG        21.4570   80.4140   28.4010 C.3       1 LY41374     0.0000 
     33 NBH        20.6680   80.4240   29.6780 N.4       1 LY41374     0.0000 
     34 CBI        19.4060   79.6900   29.4820 C.3       1 LY41374     0.0000 
     35 CBJ        21.3580   79.6600   30.7500 C.3       1 LY41374     0.0000 
     36 H          22.5359   82.4839   26.2670 H         1 LY41374     0.0000 
     37 H          24.0930   82.0688   27.0040 H         1 LY41374     0.0000 
     38 H          23.3630   80.5964   25.0738 H         1 LY41374     0.0000 
     39 H          21.9763   80.0730   26.0450 H         1 LY41374     0.0000 
     40 H          25.6723   80.2592   27.0828 H         1 LY41374     0.0000 
     41 H          21.5987   77.8589   25.9375 H         1 LY41374     0.0000 
     42 H          21.4812   75.4463   26.1081 H         1 LY41374     0.0000 
     43 H          23.3451   74.1840   27.0238 H         1 LY41374     0.0000 
     44 H          25.3929   75.3554   27.6616 H         1 LY41374     0.0000 
     45 H          29.9323   76.6274   27.5013 H         1 LY41374     0.0000 
     46 H          25.5757   79.5537   29.8295 H         1 LY41374     0.0000 
     47 H          30.2272   81.0916   28.9162 H         1 LY41374     0.0000 
     48 H          30.8781   83.3367   29.6011 H         1 LY41374     0.0000 
     49 H          29.2867   84.7848   30.6997 H         1 LY41374     0.0000 
     50 H          27.0149   84.0104   31.1120 H         1 LY41374     0.0000 
     51 H          25.0416   82.7350   31.6552 H         1 LY41374     0.0000 
     52 H          24.3129   81.1450   31.3707 H         1 LY41374     0.0000 
     53 H          24.7889   82.9257   29.0505 H         1 LY41374     0.0000 
     54 H          23.4145   83.2641   30.1166 H         1 LY41374     0.0000 
     55 H          21.8540   82.5095   28.4690 H         1 LY41374     0.0000 
     56 H          22.0783   79.5060   28.3511 H         1 LY41374     0.0000 
     57 H          20.7733   80.3867   27.5379 H         1 LY41374     0.0000 
     58 H          20.4700   81.4072   30.0000 H         1 LY41374     0.0000 
     59 H          19.5667   78.7390   29.2177 H         1 LY41374     0.0000 
     60 H          18.8529   79.6733   30.3149 H         1 LY41374     0.0000 
     61 H          18.8439   80.1025   28.7651 H         1 LY41374     0.0000 
     62 H          22.2601   80.0397   30.9548 H         1 LY41374     0.0000 
     63 H          20.8372   79.6649   31.6037 H         1 LY41374     0.0000 
     64 H          21.4939   78.7026   30.4951 H         1 LY41374     0.0000 
@<TRIPOS>BOND
     1    2    1 1    
     2   31    1 1    
     3   36    1 1    
     4   37    1 1    
     5    3    2 1    
     6   38    2 1    
     7   39    2 1    
     8    4    3 1    
     9    5    3 1    
    10   11    4 2    
    11   40    4 1    
    12    6    5 ar   
    13   10    5 ar   
    14    7    6 ar   
    15   41    6 1    
    16    8    7 ar   
    17   42    7 1    
    18    9    8 ar   
    19   43    8 1    
    20   10    9 ar   
    21   44    9 1    
    22   11   10 1    
    23   12   11 1    
    24   13   12 1    
    25   18   12 2    
    26   14   13 2    
    27   15   13 am   
    28   16   15 am   
    29   45   15 1    
    30   17   16 2    
    31   18   16 1    
    32   19   18 1    
    33   20   19 2    
    34   21   19 1    
    35   27   20 1    
    36   46   20 1    
    37   22   21 ar   
    38   26   21 ar   
    39   23   22 ar   
    40   47   22 1    
    41   24   23 ar   
    42   48   23 1    
    43   25   24 ar   
    44   49   24 1    
    45   26   25 ar   
    46   50   25 1    
    47   27   26 1    
    48   28   27 1    
    49   29   28 1    
    50   51   28 1    
    51   52   28 1    
    52   30   29 1    
    53   53   29 1    
    54   54   29 1    
    55   31   30 1    
    56   32   31 1    
    57   55   31 1    
    58   33   32 1    
    59   56   32 1    
    60   57   32 1    
    61   34   33 1    
    62   35   33 1    
    63   58   33 1    
    64   59   34 1    
    65   60   34 1    
    66   61   34 1    
    67   62   35 1    
    68   63   35 1    
    69   64   35 1    
@<TRIPOS>SUBSTRUCTURE
     1 LY41374     1 GROUP   
@<TRIPOS>SET

