#    Name: 2wtd_ZZK_1_INTS_M
#    Modification time : Tue Mar 25 04:38:14 2014

@<TRIPOS>MOLECULE
2wtd_ZZK_1_INTS_M
   67     0     9     0     0
SMALL
NO_CHARGES


@<TRIPOS>ATOM
      1 N          34.4225  -34.7045   14.9105 N.am      2 SEC2        0.0000 
      2 N          34.1590  -34.2680   13.4260 N.am      8 SEL2        0.0000 
      3 N          34.6860  -35.1410   16.3950 N.am      5 SEP2        0.0000 
      4 CA         36.0355  -31.5940    7.2080 C.3       3 GLC5        0.0000 
      5 CA         37.9900  -32.6180    7.2970 C.3       9 GLL5        0.0000 
      6 CA         34.0810  -30.5700    7.1190 C.3       6 GLP5        0.0000 
      7 CA         42.4835  -32.6630    3.6590 C.3       3 GLC5        0.0000 
      8 CA         40.9790  -32.0580    2.3890 C.3       9 GLL5        0.0000 
      9 CA         43.9880  -33.2680    4.9290 C.3       6 GLP5        0.0000 
     10 CA         39.5605  -32.6455    1.0975 C.3       3 GLC5        0.0000 
     11 CA         38.1420  -33.2330   -0.1940 C.3       6 GLP5        0.0000 
     12 CA         39.1460  -35.0855    4.4655 C.3       3 GLC5        0.0000 
     13 CA         38.2510  -33.6440    5.1490 C.3       9 GLL5        0.0000 
     14 CA         40.0410  -36.5270    3.7820 C.3       6 GLP5        0.0000 
     15 CA         37.0045  -34.1835    3.7500 C.3       3 GLC5        0.0000 
     16 CA         35.7580  -34.7230    2.3510 C.3       6 GLP5        0.0000 
     17 N          36.8960  -35.2075    4.3110 N.am      2 SEC2        0.0000 
     18 N          37.3750  -34.6300    5.5200 N.am      8 SEL2        0.0000 
     19 N          36.4170  -35.7850    3.1020 N.am      5 SEP2        0.0000 
     20 CA         38.0155  -36.2200    7.0365 C.3       3 GLC5        0.0000 
     21 CA         36.7980  -34.6250    6.7620 C.3       9 GLL5        0.0000 
     22 CA         39.2330  -37.8150    7.3110 C.3       6 GLP5        0.0000 
     23 CA         35.8130  -34.2760    5.0140 C.3       3 GLC5        0.0000 
     24 CA         34.8280  -33.9270    3.2660 C.3       6 GLP5        0.0000 
     25 O          35.6555  -37.0085    6.3225 O.2       1 ALC1        0.0000 
     26 O          35.8640  -35.6770    7.1120 O.2       7 ALL1        0.0000 
     27 O          35.4470  -38.3400    5.5330 O.2       4 ALP1        0.0000 
     28 CA         34.9685  -33.8740    8.4630 C.3       3 GLC5        0.0000 
     29 CA         36.3890  -34.7400    9.7150 C.3       9 GLL5        0.0000 
     30 CA         33.5480  -33.0080    7.2110 C.3       6 GLP5        0.0000 
     31 CA         37.6343  -33.9475   11.4662 C.3       3 GLC5        0.0000 
     32 CA         35.8010  -34.6870   10.9880 C.3       9 GLL5        0.0000 
     33 CA         39.6970  -33.8190   11.6870 C.3       6 GLP5        0.0000 
     34 CA         36.1253  -34.8260   13.0953 C.3       3 GLC5        0.0000 
     35 CA         36.6790  -35.5760   14.9450 C.3       6 GLP5        0.0000 
     36 CA         34.6610  -32.6658    8.6547 C.3       3 GLC5        0.0000 
     37 CA         35.4800  -32.2950   10.7350 C.3       9 GLL5        0.0000 
     38 CA         33.8777  -32.3310   10.4742 C.3       3 GLC5        0.0000 
     39 CA         36.0680  -32.3520    9.4620 C.3       9 GLL5        0.0000 
     40 CA         32.0160  -32.0460   10.6580 C.3       6 GLP5        0.0000 
     41 CA         38.0773  -33.9883   10.5077 C.3       3 GLC5        0.0000 
     42 CA         36.5260  -33.5750    8.9420 C.3       9 GLL5        0.0000 
     43 CA         39.1935  -33.8413    8.5440 C.3       3 GLC5        0.0000 
     44 CA         37.1160  -33.6110    7.6770 C.3       9 GLL5        0.0000 
     45 CA         40.8340  -34.5680    9.6010 C.3       6 GLP5        0.0000 
     46 CA         40.3132  -33.8835    5.8163 C.3       3 GLC5        0.0000 
     47 CA         38.5700  -32.6180    6.0460 C.3       9 GLL5        0.0000 
     48 CA         42.2160  -34.6360    6.0350 C.3       6 GLP5        0.0000 
     49 CA         41.1475  -31.6968    6.5315 C.3       3 GLC5        0.0000 
     50 CA         39.4010  -31.5680    5.6530 C.3       9 GLL5        0.0000 
     51 CA         42.8850  -32.4120    7.0230 C.3       6 GLP5        0.0000 
     52 CA         38.2980  -30.0907    4.5900 C.3       3 GLC5        0.0000 
     53 CA         37.1860  -29.2000    3.1400 C.3       6 GLP5        0.0000 
     54 CA         38.1360  -28.6490    6.9458 C.3       3 GLC5        0.0000 
     55 CA         39.4190  -30.3950    6.4270 C.3       9 GLL5        0.0000 
     56 CA         36.4590  -27.4520    7.6520 C.3       6 GLP5        0.0000 
     57 CA         41.7310  -30.8682    6.2408 C.3       3 GLC5        0.0000 
     58 CA         40.2070  -29.2970    6.0520 C.3       9 GLL5        0.0000 
     59 CA         38.8815  -29.2623    4.2993 C.3       3 GLC5        0.0000 
     60 CA         40.9470  -29.3520    4.8650 C.3       9 GLL5        0.0000 
     61 CA         41.6970  -31.7312    5.6360 C.3       3 GLC5        0.0000 
     62 CA         40.9030  -30.4980    4.0580 C.3       9 GLL5        0.0000 
     63 CA         38.8475  -30.1253    3.6945 C.3       3 GLC5        0.0000 
     64 CA         40.1150  -31.6030    4.4400 C.3       9 GLL5        0.0000 
     65 CA         35.1788  -33.5585    7.3734 C.3       3 GLC5        0.0000 
     66 CA         35.8120  -36.4672   10.7263 C.3       3 GLC5        0.0000 
     67 CA         35.5290  -38.2210   11.1010 C.3       6 GLP5        0.0000 
@<TRIPOS>BOND
@<TRIPOS>SUBSTRUCTURE
     1 ALC1       25 GROUP        1 X    ALC  0     ROOT ALC X 1
     2 SEC2        1 GROUP        1 X    SEC  0     **** SEC X 2
     3 GLC5        4 GROUP        1 X    GLC  0     **** GLC X 6
     4 ALP1       27 GROUP        1 Y    ALP  0     ROOT ALP Y 8
     5 SEP2        3 GROUP        1 Y    SEP  0     **** SEP Y 9
     6 GLP5        6 GROUP        1 Y    GLP  0     **** GLP Y 13
     7 ALL1       26 GROUP        1 Z    ALL  0     ROOT ALL Z 15
     8 SEL2        2 GROUP        1 Z    SEL  0     **** SEL Z 16
     9 GLL5        5 GROUP        1 Z    GLL  0     **** GLL Z 20
@<TRIPOS>SET

