#    Name: 2wtd_ZZK_1_ligand
#    Modification time : Tue Mar 25 04:38:14 2014

@<TRIPOS>MOLECULE
2wtd_ZZK_1_ligand
   40    43     1     0     0
SMALL
NO_CHARGES


@<TRIPOS>ATOM
      1 N01        35.0780  -32.2010   13.7160 N.am      1 ZZK1513     0.0000 
      2 C02        34.7610  -33.3720   12.9210 C.2       1 ZZK1513     0.0000 
      3 O03        34.1590  -34.2680   13.4260 O.2       1 ZZK1513     0.0000 
      4 C04        35.3420  -33.4650   11.5030 C.ar      1 ZZK1513     0.0000 
      5 C05        35.4800  -32.2950   10.7350 C.ar      1 ZZK1513     0.0000 
      6 C06        36.0680  -32.3520    9.4620 C.ar      1 ZZK1513     0.0000 
      7 C07        36.5260  -33.5750    8.9420 C.ar      1 ZZK1513     0.0000 
      8 C08        37.1160  -33.6110    7.6770 C.ar      1 ZZK1513     0.0000 
      9 C09        37.9900  -32.6180    7.2970 C.ar      1 ZZK1513     0.0000 
     10 C10        38.5700  -32.6180    6.0460 C.ar      1 ZZK1513     0.0000 
     11 C11        39.4010  -31.5680    5.6530 C.ar      1 ZZK1513     0.0000 
     12 C12        39.4190  -30.3950    6.4270 C.ar      1 ZZK1513     0.0000 
     13 C13        40.2070  -29.2970    6.0520 C.ar      1 ZZK1513     0.0000 
     14 C14        40.9470  -29.3520    4.8650 C.ar      1 ZZK1513     0.0000 
     15 C15        40.9030  -30.4980    4.0580 C.ar      1 ZZK1513     0.0000 
     16 O16        41.5400  -30.8100    2.8090 O.3       1 ZZK1513     0.0000 
     17 C17        40.9790  -32.0580    2.3890 C.3       1 ZZK1513     0.0000 
     18 O18        40.2450  -32.5520    3.5190 O.3       1 ZZK1513     0.0000 
     19 C19        40.1150  -31.6030    4.4400 C.ar      1 ZZK1513     0.0000 
     20 C20        38.2510  -33.6440    5.1490 C.ar      1 ZZK1513     0.0000 
     21 N21        37.3750  -34.6300    5.5200 N.ar      1 ZZK1513     0.0000 
     22 C22        36.7980  -34.6250    6.7620 C.ar      1 ZZK1513     0.0000 
     23 N23        35.8640  -35.6770    7.1120 N.pl3     1 ZZK1513     0.0000 
     24 C24        36.3890  -34.7400    9.7150 C.ar      1 ZZK1513     0.0000 
     25 C25        35.8010  -34.6870   10.9880 C.ar      1 ZZK1513     0.0000 
     26 H          34.7288  -32.1976   14.6530 H         1 ZZK1513     0.0000 
     27 H          35.6196  -31.4939   13.2613 H         1 ZZK1513     0.0000 
     28 H          35.1499  -31.3990   11.1071 H         1 ZZK1513     0.0000 
     29 H          36.1649  -31.4943    8.9053 H         1 ZZK1513     0.0000 
     30 H          38.2179  -31.8531    7.9649 H         1 ZZK1513     0.0000 
     31 H          38.8453  -30.3422    7.2809 H         1 ZZK1513     0.0000 
     32 H          40.2399  -28.4636    6.6417 H         1 ZZK1513     0.0000 
     33 H          41.5241  -28.5513    4.5834 H         1 ZZK1513     0.0000 
     34 H          41.7652  -32.7580    2.1093 H         1 ZZK1513     0.0000 
     35 H          40.3160  -31.9139    1.5369 H         1 ZZK1513     0.0000 
     36 H          38.6817  -33.6460    4.2132 H         1 ZZK1513     0.0000 
     37 H          35.1748  -35.4433    7.7978 H         1 ZZK1513     0.0000 
     38 H          35.9862  -36.5493    6.6386 H         1 ZZK1513     0.0000 
     39 H          36.7226  -35.6388    9.3443 H         1 ZZK1513     0.0000 
     40 H          35.7065  -35.5437   11.5435 H         1 ZZK1513     0.0000 
@<TRIPOS>BOND
     1    2    1 am   
     2   26    1 1    
     3   27    1 1    
     4    3    2 2    
     5    4    2 1    
     6    5    4 ar   
     7   25    4 ar   
     8    6    5 ar   
     9   28    5 1    
    10    7    6 ar   
    11   29    6 1    
    12    8    7 1    
    13   24    7 ar   
    14    9    8 ar   
    15   22    8 ar   
    16   10    9 ar   
    17   30    9 1    
    18   11   10 1    
    19   20   10 ar   
    20   12   11 ar   
    21   19   11 ar   
    22   13   12 ar   
    23   31   12 1    
    24   14   13 ar   
    25   32   13 1    
    26   15   14 ar   
    27   33   14 1    
    28   16   15 1    
    29   19   15 ar   
    30   17   16 1    
    31   18   17 1    
    32   34   17 1    
    33   35   17 1    
    34   19   18 1    
    35   21   20 ar   
    36   36   20 1    
    37   22   21 ar   
    38   23   22 1    
    39   37   23 1    
    40   38   23 1    
    41   25   24 ar   
    42   39   24 1    
    43   40   25 1    
@<TRIPOS>SUBSTRUCTURE
     1 ZZK1513     1 GROUP   
@<TRIPOS>SET

