#    Name: 3l73_JZZ_2_INTS_M
#    Modification time : Mon Mar 24 21:06:27 2014

@<TRIPOS>MOLECULE
3l73_JZZ_2_INTS_M
   74     0     6     0     0
SMALL
NO_CHARGES


@<TRIPOS>ATOM
      1 N          48.0885  145.8565   96.3315 N.am      1 SEC2        0.0000 
      2 N          47.3660  145.7170   95.1690 N.am      5 SEL2        0.0000 
      3 N          48.8110  145.9960   97.4940 N.am      3 SEP2        0.0000 
      4 CA         44.6935  143.0730   92.6085 C.3       2 GLC5        0.0000 
      5 CA         45.2620  143.8000   94.5940 C.3       6 GLL5        0.0000 
      6 CA         44.1250  142.3460   90.6230 C.3       4 GLP5        0.0000 
      7 CA         43.6635  144.5235   94.1765 C.3       2 GLC5        0.0000 
      8 CA         42.0650  145.2470   93.7590 C.3       4 GLP5        0.0000 
      9 CA         45.6305  144.4285   96.3280 C.3       2 GLC5        0.0000 
     10 CA         45.9990  145.0570   98.0620 C.3       4 GLP5        0.0000 
     11 CA         45.9830  142.3515   95.5730 C.3       2 GLC5        0.0000 
     12 CA         46.7040  140.9030   96.5520 C.3       4 GLP5        0.0000 
     13 CA         46.6690  142.8600   93.7285 C.3       2 GLC5        0.0000 
     14 CA         48.0760  141.9200   92.8630 C.3       4 GLP5        0.0000 
     15 CA         45.5890  146.1835   89.9155 C.3       2 GLC5        0.0000 
     16 CA         44.2230  146.9770   90.8480 C.3       6 GLL5        0.0000 
     17 CA         46.9550  145.3900   88.9830 C.3       4 GLP5        0.0000 
     18 CA         43.8535  147.1345   92.5710 C.3       2 GLC5        0.0000 
     19 CA         43.4840  147.2920   94.2940 C.3       4 GLP5        0.0000 
     20 CA         42.8885  147.1520   89.9550 C.3       2 GLC5        0.0000 
     21 CA         41.5540  147.3270   89.0620 C.3       4 GLP5        0.0000 
     22 CA         44.6065  148.3000   89.1660 C.3       2 GLC5        0.0000 
     23 CA         44.9900  149.6230   87.4840 C.3       4 GLP5        0.0000 
     24 CA         48.2300  142.8600   89.5580 C.3       2 GLC5        0.0000 
     25 CA         49.8960  141.5450   89.5950 C.3       6 GLL5        0.0000 
     26 CA         46.5640  144.1750   89.5210 C.3       4 GLP5        0.0000 
     27 CA         48.9860  141.7325   91.2290 C.3       2 GLC5        0.0000 
     28 CA         50.7415  150.3045   94.7885 C.3       2 GLC5        0.0000 
     29 CA         49.6180  149.6880   93.0660 C.3       6 GLL5        0.0000 
     30 CA         51.8650  150.9210   96.5110 C.3       4 GLP5        0.0000 
     31 CA         50.8990  141.6260   92.7120 C.3       2 GLC5        0.0000 
     32 CA         51.7090  141.2120   91.2820 C.3       6 GLL5        0.0000 
     33 CA         50.0890  142.0400   94.1420 C.3       4 GLP5        0.0000 
     34 CA         53.6815  141.1735   91.8475 C.3       2 GLC5        0.0000 
     35 CA         55.6540  141.1350   92.4130 C.3       4 GLP5        0.0000 
     36 CA         48.8675  144.9875   90.0220 C.3       2 GLC5        0.0000 
     37 CA         50.7800  144.5850   91.0610 C.3       6 GLL5        0.0000 
     38 CA         51.2810  145.9730   89.7790 C.3       2 GLC5        0.0000 
     39 CA         51.7820  147.3610   88.4970 C.3       4 GLP5        0.0000 
     40 CA         50.8305  144.3730   93.1685 C.3       2 GLC5        0.0000 
     41 CA         50.5000  145.8950   91.5630 C.3       6 GLL5        0.0000 
     42 CA         51.1610  142.8510   94.7740 C.3       4 GLP5        0.0000 
     43 CA         53.8190  142.5855   88.1630 C.3       2 GLC5        0.0000 
     44 CA         52.2640  142.1540   89.0180 C.3       6 GLL5        0.0000 
     45 CA         55.3740  143.0170   87.3080 C.3       4 GLP5        0.0000 
     46 CA         51.5487  147.4470   90.1353 C.3       2 GLC5        0.0000 
     47 CA         51.4640  146.8990   91.5280 C.3       6 GLL5        0.0000 
     48 CA         51.0628  147.0095   93.5387 C.3       2 GLC5        0.0000 
     49 CA         50.8100  146.4860   95.3040 C.3       4 GLP5        0.0000 
     50 CA         48.3653  149.8225   91.6885 C.3       2 GLC5        0.0000 
     51 CA         49.9130  148.4300   92.5440 C.3       6 GLL5        0.0000 
     52 CA         46.9650  150.5860   90.5720 C.3       4 GLP5        0.0000 
     53 CA         49.8525  147.6575   90.4617 C.3       2 GLC5        0.0000 
     54 CA         50.2740  147.3850   88.3610 C.3       4 GLP5        0.0000 
     55 CA         50.1205  147.2080   93.9333 C.3       2 GLC5        0.0000 
     56 CA         49.8060  151.5470   92.9205 C.3       2 GLC5        0.0000 
     57 CA         50.6200  153.2820   92.5000 C.3       4 GLP5        0.0000 
     58 CA         49.5450  148.6655   94.7525 C.3       2 GLC5        0.0000 
     59 CA         50.0980  147.5190   96.1640 C.3       4 GLP5        0.0000 
     60 CA         46.9635  150.7107   94.7943 C.3       2 GLC5        0.0000 
     61 CA         48.3660  149.9360   93.6160 C.3       6 GLL5        0.0000 
     62 CA         46.0420  151.9870   95.9560 C.3       4 GLP5        0.0000 
     63 CA         47.4250  150.0103   92.1022 C.3       2 GLC5        0.0000 
     64 CA         51.3646  139.6906   90.9740 C.3       2 GLC5        0.0000 
     65 CA         51.2190  142.0960   90.1330 C.3       6 GLL5        0.0000 
     66 CA         51.5960  137.8650   91.3750 C.3       4 GLP5        0.0000 
     67 CA         50.0081  143.1700   92.0809 C.3       2 GLC5        0.0000 
     68 CA         49.0740  142.6600   93.4390 C.3       4 GLP5        0.0000 
     69 CA         50.0725  146.7067   90.0933 C.3       2 GLC5        0.0000 
     70 CA         50.3405  146.2572   93.5648 C.3       2 GLC5        0.0000 
     71 CA         47.6442  149.0693   91.7133 C.3       2 GLC5        0.0000 
     72 CA         48.9490  147.4300   92.5810 C.3       6 GLL5        0.0000 
     73 CA         48.8245  147.9115   94.7763 C.3       2 GLC5        0.0000 
     74 CA         47.4040  148.9330   93.6490 C.3       6 GLL5        0.0000 
@<TRIPOS>BOND
@<TRIPOS>SUBSTRUCTURE
     1 SEC2        1 GROUP        1 X    SEC  0     ROOT SEC X 2
     2 GLC5        4 GROUP        1 X    GLC  0     **** GLC X 6
     3 SEP2        3 GROUP        1 Y    SEP  0     ROOT SEP Y 9
     4 GLP5        6 GROUP        1 Y    GLP  0     **** GLP Y 13
     5 SEL2        2 GROUP        1 Z    SEL  0     ROOT SEL Z 16
     6 GLL5        5 GROUP        1 Z    GLL  0     **** GLL Z 20
@<TRIPOS>SET

