#    Name: 3l73_JZZ_2_ligand
#    Modification time : Mon Mar 24 21:06:27 2014

@<TRIPOS>MOLECULE
3l73_JZZ_2_ligand
   46    48     1     0     0
SMALL
NO_CHARGES


@<TRIPOS>ATOM
      1 N2         46.8080  146.6910   93.1860 N.am      1 JZZ3001     0.0000 
      2 C3         45.8680  146.3890   92.2970 C.2       1 JZZ3001     0.0000 
      3 O3         45.6200  147.0610   91.1420 O.3       1 JZZ3001     0.0000 
      4 N4         45.2060  145.3140   92.7220 N.2       1 JZZ3001     0.0000 
      5 N5         45.6980  144.9690   93.8000 N.am      1 JZZ3001     0.0000 
      6 C6         46.6940  145.7820   94.1460 C.2       1 JZZ3001     0.0000 
      7 O6         47.3660  145.7170   95.1690 O.2       1 JZZ3001     0.0000 
      8 C7         45.2620  143.8000   94.5940 C.3       1 JZZ3001     0.0000 
      9 C27        44.2230  146.9770   90.8480 C.3       1 JZZ3001     0.0000 
     10 CAA        49.8960  141.5450   89.5950 C.3       1 JZZ3001     0.0000 
     11 CAB        51.4640  146.8990   91.5280 C.ar      1 JZZ3001     0.0000 
     12 CAC        51.1670  148.1670   92.0190 C.ar      1 JZZ3001     0.0000 
     13 CAD        49.9130  148.4300   92.5440 C.ar      1 JZZ3001     0.0000 
     14 CAE        49.6180  149.6880   93.0660 C.ar      1 JZZ3001     0.0000 
     15 CAF        48.3660  149.9360   93.6160 C.ar      1 JZZ3001     0.0000 
     16 CAG        51.7090  141.2120   91.2820 C.3       1 JZZ3001     0.0000 
     17 CAH        51.2190  142.0960   90.1330 C.3       1 JZZ3001     0.0000 
     18 CAI        50.9900  143.4540   90.6360 C.1       1 JZZ3001     0.0000 
     19 CAJ        50.7800  144.5850   91.0610 C.1       1 JZZ3001     0.0000 
     20 CAK        50.5000  145.8950   91.5630 C.ar      1 JZZ3001     0.0000 
     21 CAL        49.2420  146.1620   92.0880 C.ar      1 JZZ3001     0.0000 
     22 CAM        48.9490  147.4300   92.5810 C.ar      1 JZZ3001     0.0000 
     23 CAN        47.6980  147.6750   93.1280 C.ar      1 JZZ3001     0.0000 
     24 CAO        47.4040  148.9330   93.6490 C.ar      1 JZZ3001     0.0000 
     25 CAP        52.2640  142.1540   89.0180 C.3       1 JZZ3001     0.0000 
     26 H          52.3953  146.7034   91.1393 H         1 JZZ3001     0.0000 
     27 H          51.8816  148.9070   91.9904 H         1 JZZ3001     0.0000 
     28 H          50.3276  150.4314   93.0434 H         1 JZZ3001     0.0000 
     29 H          48.1498  150.8670   94.0009 H         1 JZZ3001     0.0000 
     30 H          48.5267  145.4238   92.1129 H         1 JZZ3001     0.0000 
     31 H          46.4798  149.1175   94.0556 H         1 JZZ3001     0.0000 
     32 H          45.3634  142.9459   94.0839 H         1 JZZ3001     0.0000 
     33 H          45.7934  143.7036   95.4356 H         1 JZZ3001     0.0000 
     34 H          44.3007  143.8698   94.8607 H         1 JZZ3001     0.0000 
     35 H          43.9911  147.4621   90.0048 H         1 JZZ3001     0.0000 
     36 H          43.9240  146.0297   90.7329 H         1 JZZ3001     0.0000 
     37 H          43.6655  147.3738   91.5772 H         1 JZZ3001     0.0000 
     38 H          49.9937  140.6092   89.2564 H         1 JZZ3001     0.0000 
     39 H          49.1864  141.5292   90.2994 H         1 JZZ3001     0.0000 
     40 H          49.5450  142.0956   88.8376 H         1 JZZ3001     0.0000 
     41 H          51.8543  140.2673   90.9879 H         1 JZZ3001     0.0000 
     42 H          52.5761  141.5386   91.6581 H         1 JZZ3001     0.0000 
     43 H          51.0533  141.1865   92.0366 H         1 JZZ3001     0.0000 
     44 H          53.1393  142.5081   89.3474 H         1 JZZ3001     0.0000 
     45 H          52.4415  141.2505   88.6280 H         1 JZZ3001     0.0000 
     46 H          51.9726  142.7456   88.2663 H         1 JZZ3001     0.0000 
@<TRIPOS>BOND
     1    2    1 1    
     2    6    1 am   
     3   23    1 1    
     4    3    2 1    
     5    4    2 2    
     6    9    3 1    
     7    5    4 1    
     8    6    5 am   
     9    8    5 1    
    10    7    6 2    
    11   32    8 1    
    12   33    8 1    
    13   34    8 1    
    14   35    9 1    
    15   36    9 1    
    16   37    9 1    
    17   17   10 1    
    18   38   10 1    
    19   39   10 1    
    20   40   10 1    
    21   12   11 ar   
    22   20   11 ar   
    23   26   11 1    
    24   13   12 ar   
    25   27   12 1    
    26   14   13 ar   
    27   22   13 ar   
    28   15   14 ar   
    29   28   14 1    
    30   24   15 ar   
    31   29   15 1    
    32   17   16 1    
    33   41   16 1    
    34   42   16 1    
    35   43   16 1    
    36   18   17 1    
    37   25   17 1    
    38   19   18 3    
    39   20   19 1    
    40   21   20 ar   
    41   22   21 ar   
    42   30   21 1    
    43   23   22 ar   
    44   24   23 ar   
    45   31   24 1    
    46   44   25 1    
    47   45   25 1    
    48   46   25 1    
@<TRIPOS>SUBSTRUCTURE
     1 JZZ3001     1 GROUP   
@<TRIPOS>SET

