#    Name: 2v5a_LZL_1_INTS_M
#    Modification time : Tue Mar 25 01:02:22 2014

@<TRIPOS>MOLECULE
2v5a_LZL_1_INTS_M
   57     0     9     0     0
SMALL
NO_CHARGES


@<TRIPOS>ATOM
      1 O           2.8315  -28.5605   23.8210 O.2       1 ALC1        0.0000 
      2 O           1.7200  -27.6580   24.5340 O.2       7 ALL1        0.0000 
      3 O           3.9430  -29.4630   23.1080 O.2       4 ALP1        0.0000 
      4 O           0.6230  -28.3265   24.9905 O.2       1 ALC1        0.0000 
      5 O          -0.4740  -28.9950   25.4470 O.2       4 ALP1        0.0000 
      6 CA          1.2850  -26.8470   23.0990 C.3       3 GLC5        0.0000 
      7 CA          2.1640  -26.3900   24.6940 C.3       9 GLL5        0.0000 
      8 CA          0.4060  -27.3040   21.5040 C.3       6 GLP5        0.0000 
      9 CA          3.1875  -26.6175   22.8000 C.3       3 GLC5        0.0000 
     10 CA          4.2110  -26.8450   20.9060 C.3       6 GLP5        0.0000 
     11 CA         -0.0190  -26.6525   24.8625 C.3       3 GLC5        0.0000 
     12 CA         -2.2020  -26.9150   25.0310 C.3       6 GLP5        0.0000 
     13 CA          3.2725  -26.1860   26.0425 C.3       3 GLC5        0.0000 
     14 CA          4.3810  -25.9820   27.3910 C.3       6 GLP5        0.0000 
     15 N           0.1300  -25.8015   26.2945 N.am      2 SEC2        0.0000 
     16 N           1.4840  -25.5340   25.5070 N.am      8 SEL2        0.0000 
     17 N          -1.2240  -26.0690   27.0820 N.am      5 SEP2        0.0000 
     18 CA          1.0075  -25.0930   27.4210 C.3       3 GLC5        0.0000 
     19 CA          1.8740  -24.2630   25.7090 C.3       9 GLL5        0.0000 
     20 CA          0.1410  -25.9230   29.1330 C.3       6 GLP5        0.0000 
     21 N           4.1505  -26.5940   23.0750 N.am      2 SEC2        0.0000 
     22 N           3.2820  -26.0060   24.0340 N.am      8 SEL2        0.0000 
     23 N           5.0190  -27.1820   22.1160 N.am      5 SEP2        0.0000 
     24 CA          3.9800  -25.7970   22.5420 C.3       3 GLC5        0.0000 
     25 CA          3.7490  -24.7490   24.1780 C.3       9 GLL5        0.0000 
     26 N           4.9405  -25.7670   22.8230 N.am      2 SEC2        0.0000 
     27 N           4.8620  -24.3520   23.5300 N.am      8 SEL2        0.0000 
     28 CA          6.9350  -16.5865   26.0605 C.3       3 GLC5        0.0000 
     29 CA          6.1410  -18.1860   25.1960 C.3       9 GLL5        0.0000 
     30 CA          7.7290  -14.9870   26.9250 C.3       6 GLP5        0.0000 
     31 CA          6.3305  -19.0540   27.5730 C.3       3 GLC5        0.0000 
     32 CA          6.8260  -19.2920   25.6930 C.3       9 GLL5        0.0000 
     33 CA          5.8350  -18.8160   29.4530 C.3       6 GLP5        0.0000 
     34 CA          6.0080  -22.2590   26.7725 C.3       3 GLC5        0.0000 
     35 CA          6.3180  -20.5700   25.4700 C.3       9 GLL5        0.0000 
     36 CA          5.6980  -23.9480   28.0750 C.3       6 GLP5        0.0000 
     37 CA          4.8827  -23.1307   26.4775 C.3       3 GLC5        0.0000 
     38 CA          3.4930  -22.5100   25.2230 C.3       9 GLL5        0.0000 
     39 CA          3.6692  -20.9563   26.2840 C.3       3 GLC5        0.0000 
     40 CA          3.2710  -19.5990   27.6880 C.3       6 GLP5        0.0000 
     41 CA          3.7391  -25.1867   26.0868 C.3       3 GLC5        0.0000 
     42 CA          3.0170  -23.8050   25.0650 C.3       9 GLL5        0.0000 
     43 CA          4.4748  -22.3105   22.2050 C.3       3 GLC5        0.0000 
     44 CA          4.6420  -22.1170   24.5370 C.3       9 GLL5        0.0000 
     45 CA          3.9490  -22.0140   20.3160 C.3       6 GLP5        0.0000 
     46 CA          7.1677  -21.1990   19.8702 C.3       3 GLC5        0.0000 
     47 CA          6.8340  -21.7940   21.9600 C.3       9 GLL5        0.0000 
     48 CA          6.8420  -20.4950   17.9560 C.3       6 GLP5        0.0000 
     49 CA          5.7212  -21.9585   21.0502 C.3       3 GLC5        0.0000 
     50 CA          8.1530  -22.0120   21.6090 C.3       9 GLL5        0.0000 
     51 CA          8.4495  -24.4357   23.9567 C.3       3 GLC5        0.0000 
     52 CA          8.2920  -23.3580   21.7350 C.3       9 GLL5        0.0000 
     53 CA          8.9210  -25.3540   25.5770 C.3       6 GLP5        0.0000 
     54 CA          4.4097  -18.9325   26.2625 C.3       3 GLC5        0.0000 
     55 CA          4.9560  -18.3460   24.4780 C.3       9 GLL5        0.0000 
     56 CA          4.4129  -19.9869   26.3359 C.3       3 GLC5        0.0000 
     57 CA          5.1360  -20.7340   24.7420 C.3       9 GLL5        0.0000 
@<TRIPOS>BOND
@<TRIPOS>SUBSTRUCTURE
     1 ALC1        1 GROUP        1 X    ALC  0     ROOT ALC X 1
     2 SEC2       15 GROUP        1 X    SEC  0     **** SEC X 2
     3 GLC5        6 GROUP        1 X    GLC  0     **** GLC X 6
     4 ALP1        3 GROUP        1 Y    ALP  0     ROOT ALP Y 8
     5 SEP2       17 GROUP        1 Y    SEP  0     **** SEP Y 9
     6 GLP5        8 GROUP        1 Y    GLP  0     **** GLP Y 13
     7 ALL1        2 GROUP        1 Z    ALL  0     ROOT ALL Z 15
     8 SEL2       16 GROUP        1 Z    SEL  0     **** SEL Z 16
     9 GLL5        7 GROUP        1 Z    GLL  0     **** GLL Z 20
@<TRIPOS>SET

