#    Name: 2v5a_LZL_1_ligand
#    Modification time : Tue Mar 25 01:02:22 2014

@<TRIPOS>MOLECULE
2v5a_LZL_1_ligand
   37    40     1     0     0
SMALL
NO_CHARGES


@<TRIPOS>ATOM
      1 N22         1.7200  -27.6580   24.5340 N.pl3     1 LZL1447     0.0000 
      2 C21         2.1640  -26.3900   24.6940 C.ar      1 LZL1447     0.0000 
      3 N20         1.4840  -25.5340   25.5070 N.ar      1 LZL1447     0.0000 
      4 C15         1.8740  -24.2630   25.7090 C.ar      1 LZL1447     0.0000 
      5 C9          3.0170  -23.8050   25.0650 C.ar      1 LZL1447     0.0000 
      6 C4          3.4930  -22.5100   25.2230 C.ar      1 LZL1447     0.0000 
      7 N18         3.2820  -26.0060   24.0340 N.ar      1 LZL1447     0.0000 
      8 C12         3.7490  -24.7490   24.1780 C.ar      1 LZL1447     0.0000 
      9 N6          4.8620  -24.3520   23.5300 N.ar      1 LZL1447     0.0000 
     10 C2          5.3590  -23.0970   23.6510 C.ar      1 LZL1447     0.0000 
     11 N5          6.5270  -22.8100   22.9040 N.3       1 LZL1447     0.0000 
     12 C11         6.8340  -21.7940   21.9600 C.3       1 LZL1447     0.0000 
     13 C17         8.1530  -22.0120   21.6090 C.2       1 LZL1447     0.0000 
     14 C16         8.2920  -23.3580   21.7350 C.2       1 LZL1447     0.0000 
     15 C10         7.6640  -23.6770   22.9380 C.3       1 LZL1447     0.0000 
     16 C1          4.6420  -22.1170   24.5370 C.ar      1 LZL1447     0.0000 
     17 C3          5.1360  -20.7340   24.7420 C.ar      1 LZL1447     0.0000 
     18 C8          4.4470  -19.6250   24.2530 C.ar      1 LZL1447     0.0000 
     19 C14         4.9560  -18.3460   24.4780 C.ar      1 LZL1447     0.0000 
     20 C19         6.1410  -18.1860   25.1960 C.ar      1 LZL1447     0.0000 
     21 C13         6.8260  -19.2920   25.6930 C.ar      1 LZL1447     0.0000 
     22 C7          6.3180  -20.5700   25.4700 C.ar      1 LZL1447     0.0000 
     23 H           2.2894  -28.2557   23.9696 H         1 LZL1447     0.0000 
     24 H           0.8618  -27.8851   24.9944 H         1 LZL1447     0.0000 
     25 H           1.3514  -23.6266   26.3235 H         1 LZL1447     0.0000 
     26 H           3.0081  -21.8494   25.8353 H         1 LZL1447     0.0000 
     27 H           6.6929  -20.8059   22.4107 H         1 LZL1447     0.0000 
     28 H           6.1669  -21.8697   21.0948 H         1 LZL1447     0.0000 
     29 H           8.7796  -21.3820   21.3519 H         1 LZL1447     0.0000 
     30 H           8.7123  -23.9572   21.1549 H         1 LZL1447     0.0000 
     31 H           7.3496  -24.7085   22.9668 H         1 LZL1447     0.0000 
     32 H           8.2856  -23.4487   23.7895 H         1 LZL1447     0.0000 
     33 H           3.5742  -19.7481   23.7328 H         1 LZL1447     0.0000 
     34 H           4.4595  -17.5243   24.1159 H         1 LZL1447     0.0000 
     35 H           6.5134  -17.2375   25.3602 H         1 LZL1447     0.0000 
     36 H           7.6960  -19.1672   26.2181 H         1 LZL1447     0.0000 
     37 H           6.8097  -21.3917   25.8391 H         1 LZL1447     0.0000 
@<TRIPOS>BOND
     1    2    1 1    
     2   23    1 1    
     3   24    1 1    
     4    3    2 ar   
     5    7    2 ar   
     6    4    3 ar   
     7    5    4 ar   
     8   25    4 1    
     9    6    5 ar   
    10    8    5 ar   
    11   16    6 ar   
    12   26    6 1    
    13    8    7 ar   
    14    9    8 ar   
    15   10    9 ar   
    16   11   10 1    
    17   16   10 ar   
    18   12   11 1    
    19   15   11 1    
    20   13   12 1    
    21   27   12 1    
    22   28   12 1    
    23   14   13 2    
    24   29   13 1    
    25   15   14 1    
    26   30   14 1    
    27   31   15 1    
    28   32   15 1    
    29   17   16 1    
    30   18   17 ar   
    31   22   17 ar   
    32   19   18 ar   
    33   33   18 1    
    34   20   19 ar   
    35   34   19 1    
    36   21   20 ar   
    37   35   20 1    
    38   22   21 ar   
    39   36   21 1    
    40   37   22 1    
@<TRIPOS>SUBSTRUCTURE
     1 LZL1447     1 GROUP   
@<TRIPOS>SET

