#    Name: 3cb2_GDP_2_INTS_M
#    Modification time : Mon Mar 24 20:37:05 2014

@<TRIPOS>MOLECULE
3cb2_GDP_2_INTS_M
   62     0     9     0     0
SMALL
NO_CHARGES


@<TRIPOS>ATOM
      1 N          40.6620   28.7740  -50.0175 N.am      2 SEC2        0.0000 
      2 N          40.5170   27.6040  -50.6690 N.am      8 SEL2        0.0000 
      3 N          40.8070   29.9440  -49.3660 N.am      5 SEP2        0.0000 
      4 N          40.3780   23.7155  -50.9290 N.am      2 SEC2        0.0000 
      5 N          40.7960   25.1270  -50.7810 N.am      8 SEL2        0.0000 
      6 N          39.9600   22.3040  -51.0770 N.am      5 SEP2        0.0000 
      7 N          41.5165   24.1655  -50.2505 N.am      2 SEC2        0.0000 
      8 N          42.2370   23.2040  -49.7200 N.am      5 SEP2        0.0000 
      9 N          42.3785   25.2330  -50.5830 N.am      2 SEC2        0.0000 
     10 N          43.9610   25.3390  -50.3850 N.am      5 SEP2        0.0000 
     11 N          40.4795   25.2180  -48.0220 N.am      2 SEC2        0.0000 
     12 N          39.5910   26.1230  -48.8980 N.am      8 SEL2        0.0000 
     13 N          41.3680   24.3130  -47.1460 N.am      5 SEP2        0.0000 
     14 N          37.8665   29.1895  -49.1820 N.am      2 SEC2        0.0000 
     15 N          37.6260   28.0240  -50.0120 N.am      8 SEL2        0.0000 
     16 N          38.1070   30.3550  -48.3520 N.am      5 SEP2        0.0000 
     17 CA         36.4110   24.3225  -51.3620 C.3       3 GLC5        0.0000 
     18 CA         35.2440   25.9710  -51.8620 C.3       9 GLL5        0.0000 
     19 CA         37.5780   22.6740  -50.8620 C.3       6 GLP5        0.0000 
     20 CA         34.8760   25.8200  -48.9590 C.3       3 GLC5        0.0000 
     21 CA         34.0280   25.8900  -50.9730 C.3       9 GLL5        0.0000 
     22 CA         35.7240   25.7500  -46.9450 C.3       6 GLP5        0.0000 
     23 N          34.5590   25.7340  -48.7270 N.am      2 SEC2        0.0000 
     24 N          34.1640   26.6320  -49.7520 N.am      8 SEL2        0.0000 
     25 N          34.9540   24.8360  -47.7020 N.am      5 SEP2        0.0000 
     26 CA         31.7855   28.9415  -51.5670 C.3       3 GLC5        0.0000 
     27 CA         32.0320   27.0580  -50.6530 C.3       9 GLL5        0.0000 
     28 CA         31.5390   30.8250  -52.4810 C.3       6 GLP5        0.0000 
     29 N          30.3680   27.0630  -49.2990 N.am      2 SEC2        0.0000 
     30 N          31.3240   25.9280  -50.1210 N.am      8 SEL2        0.0000 
     31 N          29.4120   28.1980  -48.4770 N.am      5 SEP2        0.0000 
     32 O          30.0755   26.2375  -50.5685 O.2       1 ALC1        0.0000 
     33 O          31.3240   25.9280  -50.1210 O.2       7 ALL1        0.0000 
     34 O          28.8270   26.5470  -51.0160 O.2       4 ALP1        0.0000 
     35 CA         33.9120   28.4410  -47.8920 C.3       3 GLC5        0.0000 
     36 CA         33.0280   27.4940  -49.5950 C.3       9 GLL5        0.0000 
     37 CA         34.7960   29.3880  -46.1890 C.3       6 GLP5        0.0000 
     38 CA         34.3760   26.6220  -48.2700 C.3       3 GLC5        0.0000 
     39 N          35.5000   31.0960  -51.5160 N.am      2 SEC2        0.0000 
     40 N          34.6860   30.7340  -50.1470 N.am      8 SEL2        0.0000 
     41 N          36.3140   31.4580  -52.8850 N.am      5 SEP2        0.0000 
     42 CA         34.9880   30.1780  -48.2600 C.3       3 GLC5        0.0000 
     43 CA         33.7650   31.1130  -49.2490 C.3       9 GLL5        0.0000 
     44 CA         36.2110   29.2430  -47.2710 C.3       6 GLP5        0.0000 
     45 N          34.9640   34.0905  -49.6420 N.am      2 SEC2        0.0000 
     46 N          34.0150   33.4260  -48.8020 N.am      8 SEL2        0.0000 
     47 N          35.9130   34.7550  -50.4820 N.am      5 SEP2        0.0000 
     48 N          33.6250   34.5860  -47.8995 N.am      2 SEC2        0.0000 
     49 N          33.2350   35.7460  -46.9970 N.am      5 SEP2        0.0000 
     50 O          31.9705   33.4180  -46.9530 O.2       1 ALC1        0.0000 
     51 O          32.3760   32.3600  -47.7040 O.2       7 ALL1        0.0000 
     52 O          31.5650   34.4760  -46.2020 O.2       4 ALP1        0.0000 
     53 O          29.5770   30.3375  -46.6770 O.2       1 ALC1        0.0000 
     54 O          30.6630   31.2870  -46.5500 O.2       7 ALL1        0.0000 
     55 O          28.4910   29.3880  -46.8040 O.2       4 ALP1        0.0000 
     56 O          31.1140   32.8815  -46.3760 O.2       1 ALC1        0.0000 
     57 N          30.6910   29.1195  -48.2495 N.am      2 SEC2        0.0000 
     58 N          31.9700   30.0410  -48.0220 N.am      8 SEL2        0.0000 
     59 CA         33.8885   29.6520  -47.5535 C.3       3 GLC5        0.0000 
     60 CA         32.9810   29.9160  -48.9180 C.3       9 GLL5        0.0000 
     61 CA         30.8840   26.6397  -52.2997 C.3       3 GLC5        0.0000 
     62 CA         29.2900   26.4760  -53.3990 C.3       6 GLP5        0.0000 
@<TRIPOS>BOND
@<TRIPOS>SUBSTRUCTURE
     1 ALC1       32 GROUP        1 X    ALC  0     ROOT ALC X 1
     2 SEC2        1 GROUP        1 X    SEC  0     **** SEC X 2
     3 GLC5       17 GROUP        1 X    GLC  0     **** GLC X 6
     4 ALP1       34 GROUP        1 Y    ALP  0     ROOT ALP Y 8
     5 SEP2        3 GROUP        1 Y    SEP  0     **** SEP Y 9
     6 GLP5       19 GROUP        1 Y    GLP  0     **** GLP Y 13
     7 ALL1       33 GROUP        1 Z    ALL  0     ROOT ALL Z 15
     8 SEL2        2 GROUP        1 Z    SEL  0     **** SEL Z 16
     9 GLL5       18 GROUP        1 Z    GLL  0     **** GLL Z 20
@<TRIPOS>SET

