#    Name: 3cb2_GDP_2_ligand
#    Modification time : Mon Mar 24 20:37:05 2014

@<TRIPOS>MOLECULE
3cb2_GDP_2_ligand
   40    42     1     0     0
SMALL
NO_CHARGES


@<TRIPOS>ATOM
      1 PB         39.9000   26.2660  -50.3580 P.3       1 GDP501      0.0000 
      2 O1B        40.5170   27.6040  -50.6690 O.co2     1 GDP501      0.0000 
      3 O2B        40.7960   25.1270  -50.7810 O.co2     1 GDP501      0.0000 
      4 O3B        39.5910   26.1230  -48.8980 O.co2     1 GDP501      0.0000 
      5 O3A        38.6280   26.0850  -51.2720 O.3       1 GDP501      0.0000 
      6 PA         37.4750   27.1600  -51.2500 P.3       1 GDP501      0.0000 
      7 O1A        37.6260   28.0240  -50.0120 O.co2     1 GDP501      0.0000 
      8 O2A        37.4220   27.9080  -52.5530 O.co2     1 GDP501      0.0000 
      9 O5'        36.3050   26.1250  -50.9730 O.3       1 GDP501      0.0000 
     10 C5'        35.2440   25.9710  -51.8620 C.3       1 GDP501      0.0000 
     11 C4'        34.0280   25.8900  -50.9730 C.3       1 GDP501      0.0000 
     12 O4'        34.1640   26.6320  -49.7520 O.3       1 GDP501      0.0000 
     13 C3'        32.9240   26.5490  -51.7480 C.3       1 GDP501      0.0000 
     14 O3'        32.3520   25.5260  -52.5440 O.3       1 GDP501      0.0000 
     15 C2'        32.0320   27.0580  -50.6530 C.3       1 GDP501      0.0000 
     16 O2'        31.3240   25.9280  -50.1210 O.3       1 GDP501      0.0000 
     17 C1'        33.0280   27.4940  -49.5950 C.3       1 GDP501      0.0000 
     18 N9         33.4820   28.9160  -49.6420 N.pl3     1 GDP501      0.0000 
     19 C8         34.5040   29.4090  -50.3650 C.2       1 GDP501      0.0000 
     20 N7         34.6860   30.7340  -50.1470 N.2       1 GDP501      0.0000 
     21 C5         33.7650   31.1130  -49.2490 C.2       1 GDP501      0.0000 
     22 C6         33.3940   32.3740  -48.5680 C.2       1 GDP501      0.0000 
     23 O6         34.0150   33.4260  -48.8020 O.2       1 GDP501      0.0000 
     24 N1         32.3760   32.3600  -47.7040 N.am      1 GDP501      0.0000 
     25 C2         31.6830   31.2350  -47.4390 C.2       1 GDP501      0.0000 
     26 N2         30.6630   31.2870  -46.5500 N.pl3     1 GDP501      0.0000 
     27 N3         31.9700   30.0410  -48.0220 N.2       1 GDP501      0.0000 
     28 C4         32.9810   29.9160  -48.9180 C.2       1 GDP501      0.0000 
     29 H          35.3039   25.0567  -52.4346 H         1 GDP501      0.0000 
     30 H          35.1222   26.8172  -52.5227 H         1 GDP501      0.0000 
     31 H          33.7643   24.8777  -50.8119 H         1 GDP501      0.0000 
     32 H          33.3338   27.3462  -52.2877 H         1 GDP501      0.0000 
     33 H          31.4605   27.8321  -50.9604 H         1 GDP501      0.0000 
     34 H          32.5796   27.2903  -48.6141 H         1 GDP501      0.0000 
     35 H          35.0588   28.8732  -50.9827 H         1 GDP501      0.0000 
     36 H          32.1017   33.2543  -47.2110 H         1 GDP501      0.0000 
     37 H          30.1665   30.4321  -46.3994 H         1 GDP501      0.0000 
     38 H          30.4966   32.1757  -46.1228 H         1 GDP501      0.0000 
     39 H          31.7485   25.0234  -51.9249 H         1 GDP501      0.0000 
     40 H          30.3708   26.0711  -50.3875 H         1 GDP501      0.0000 
@<TRIPOS>BOND
     1    2    1 ar   
     2    3    1 ar   
     3    4    1 ar   
     4    5    1 1    
     5    6    5 1    
     6    7    6 ar   
     7    8    6 ar   
     8    9    6 1    
     9   10    9 1    
    10   11   10 1    
    11   29   10 1    
    12   30   10 1    
    13   12   11 1    
    14   13   11 1    
    15   31   11 1    
    16   17   12 1    
    17   14   13 1    
    18   15   13 1    
    19   32   13 1    
    20   39   14 1    
    21   16   15 1    
    22   17   15 1    
    23   33   15 1    
    24   40   16 1    
    25   18   17 1    
    26   34   17 1    
    27   19   18 1    
    28   28   18 1    
    29   20   19 2    
    30   35   19 1    
    31   21   20 1    
    32   22   21 1    
    33   28   21 2    
    34   23   22 2    
    35   24   22 am   
    36   25   24 1    
    37   36   24 1    
    38   26   25 1    
    39   27   25 2    
    40   37   26 1    
    41   38   26 1    
    42   28   27 1    
@<TRIPOS>SUBSTRUCTURE
     1 GDP501      1 GROUP   
@<TRIPOS>SET

