#    Name: 4L3Q_1_CAVITY_N1_ALL.mol2
#    Modification time : Tue Mar 11 12:49:44 2014

@<TRIPOS>MOLECULE
4L3Q_1_CAVITY_N1_ALL.mol2
   62     0     6     0     0
SMALL
NO_CHARGES


@<TRIPOS>ATOM
      1 CZ         44.2548   16.8933   64.7976 C.ar      4 PHE5        0.0000 
      2 CZ         44.0749   16.3546   63.4092 C.ar      4 PHE5        0.0000 
      3 OG         48.2958   11.8539   62.9880 O.2       1 SER1        0.0000 
      4 OG         44.9953   14.8254   62.2627 O.2       1 SER1        0.0000 
      5 OG         48.1160   11.3152   61.5997 O.2       1 SER1        0.0000 
      6 OG         47.0158   12.3057   61.3579 O.2       1 SER1        0.0000 
      7 DU         47.9361   10.7765   60.2113 H         6 CUB7        0.0000 
      8 CA         46.8359   11.7671   59.9696 C.3       5 GLY6        0.0000 
      9 CA         45.7357   12.7576   59.7278 C.3       5 GLY6        0.0000 
     10 CZ         43.0713   15.3653   63.9231 C.ar      4 PHE5        0.0000 
     11 CZ         43.9917   13.8361   62.7765 C.ar      4 PHE5        0.0000 
     12 CZ         42.8915   14.8267   62.5348 C.ar      4 PHE5        0.0000 
     13 CA         41.7913   15.8172   62.2930 C.3       5 GLY6        0.0000 
     14 N          48.2125    9.3354   62.3553 N.2       2 ALA2        0.0000 
     15 N          47.1124   10.3259   62.1135 N.2       2 ALA2        0.0000 
     16 CZ         46.0122   11.3164   61.8718 C.ar      4 PHE5        0.0000 
     17 CZ         44.9120   12.3069   61.6300 C.ar      4 PHE5        0.0000 
     18 CA         43.8118   13.2975   61.3882 C.3       5 GLY6        0.0000 
     19 O          42.7116   14.2880   61.1464 O.2       2 ALA2        0.0000 
     20 N          41.6114   15.2785   60.9046 N.2       2 ALA2        0.0000 
     21 NZ         48.0327    8.7967   60.9670 N.2       3 LYS4        0.0000 
     22 O          46.9325    9.7872   60.7252 O.2       2 ALA2        0.0000 
     23 O          45.8323   10.7778   60.4834 O.2       2 ALA2        0.0000 
     24 CA         44.7321   11.7683   60.2416 C.3       5 GLY6        0.0000 
     25 O          43.6319   12.7588   59.9999 O.2       2 ALA2        0.0000 
     26 NZ         47.8528    8.2581   59.5786 N.2       3 LYS4        0.0000 
     27 O          45.6524   10.2391   59.0951 O.2       2 ALA2        0.0000 
     28 OG         44.5522   11.2296   58.8533 O.2       1 SER1        0.0000 
     29 CZ         42.0677   14.3760   64.4370 C.ar      4 PHE5        0.0000 
     30 OG         40.9675   15.3665   64.1952 O.2       1 SER1        0.0000 
     31 CZ         42.9880   12.8468   63.2904 C.ar      4 PHE5        0.0000 
     32 CZ         41.8879   13.8374   63.0486 C.ar      4 PHE5        0.0000 
     33 CA         40.7877   14.8279   62.8068 C.3       5 GLY6        0.0000 
     34 CZ         45.0086   10.3271   62.3856 C.ar      4 PHE5        0.0000 
     35 CZ         43.9084   11.3176   62.1438 C.ar      4 PHE5        0.0000 
     36 CZ         42.8082   12.3082   61.9021 C.ar      4 PHE5        0.0000 
     37 DU         41.7080   13.2987   61.6603 H         6 CUB7        0.0000 
     38 N          40.6078   14.2892   61.4185 N.2       2 ALA2        0.0000 
     39 N          39.5076   15.2797   61.1767 N.2       2 ALA2        0.0000 
     40 NZ         45.9289    8.7979   61.2391 N.2       3 LYS4        0.0000 
     41 CA         44.8287    9.7885   60.9973 C.3       5 GLY6        0.0000 
     42 CA         43.7285   10.7790   60.7555 C.3       5 GLY6        0.0000 
     43 CA         42.6283   11.7695   60.5137 C.3       5 GLY6        0.0000 
     44 CA         41.5281   12.7600   60.2719 C.3       5 GLY6        0.0000 
     45 O          44.6488    9.2498   59.6089 O.2       2 ALA2        0.0000 
     46 CA         43.5486   10.2403   59.3672 C.3       5 GLY6        0.0000 
     47 CZ         41.9844   11.8575   63.8043 C.ar      4 PHE5        0.0000 
     48 CA         40.8842   12.8481   63.5625 C.3       5 GLY6        0.0000 
     49 N          44.0050    9.3378   62.8995 N.2       2 ALA2        0.0000 
     50 CZ         42.9048   10.3284   62.6577 C.ar      4 PHE5        0.0000 
     51 CZ         41.8046   11.3189   62.4159 C.ar      4 PHE5        0.0000 
     52 CA         40.7044   12.3094   62.1741 C.3       5 GLY6        0.0000 
     53 CA         39.6042   13.2999   61.9324 C.3       5 GLY6        0.0000 
     54 CA         43.8251    8.7992   61.5112 C.3       5 GLY6        0.0000 
     55 CA         42.7249    9.7897   61.2694 C.3       5 GLY6        0.0000 
     56 CA         41.6247   10.7802   61.0276 C.3       5 GLY6        0.0000 
     57 CA         40.5245   11.7707   60.7858 C.3       5 GLY6        0.0000 
     58 CA         39.4243   12.7612   60.5440 C.3       5 GLY6        0.0000 
     59 CA         40.9808   10.8682   64.3181 C.3       5 GLY6        0.0000 
     60 N          41.9012    9.3391   63.1716 N.2       2 ALA2        0.0000 
     61 CA         40.8010   10.3296   62.9298 C.3       5 GLY6        0.0000 
     62 CA         39.7008   11.3201   62.6880 C.3       5 GLY6        0.0000 
@<TRIPOS>BOND
@<TRIPOS>SUBSTRUCTURE
     1 SER1        3 GROUP   
     2 ALA2       14 GROUP   
     3 LYS4       21 GROUP   
     4 PHE5        1 GROUP   
     5 GLY6        8 GROUP   
     6 CUB7        7 GROUP   
@<TRIPOS>SET

