#    Name: 4l3q_926_1_INTS_M
#    Modification time : Tue Mar 25 09:49:20 2014

@<TRIPOS>MOLECULE
4l3q_926_1_INTS_M
   46     0     9     0     0
SMALL
NO_CHARGES


@<TRIPOS>ATOM
      1 N          37.9380   16.3555   57.8635 N.am      2 SEC2        0.0000 
      2 N          38.1910   17.6600   58.1800 N.am      8 SEL2        0.0000 
      3 N          37.6850   15.0510   57.5470 N.am      5 SEP2        0.0000 
      4 O          39.5900   16.0680   59.2990 O.2       1 ALC1        0.0000 
      5 O          38.8700   16.8160   60.1960 O.2       7 ALL1        0.0000 
      6 O          40.3100   15.3200   58.4020 O.2       4 ALP1        0.0000 
      7 CA         40.3180   17.6065   60.2920 C.3       3 GLC5        0.0000 
      8 CA         38.8060   16.5710   61.5340 C.3       9 GLL5        0.0000 
      9 CA         41.8300   18.6420   59.0500 C.3       6 GLP5        0.0000 
     10 CA         36.1625   16.2520   59.3270 C.3       3 GLC5        0.0000 
     11 CA         36.7970   18.0670   60.1130 C.3       9 GLL5        0.0000 
     12 CA         35.5280   14.4370   58.5410 C.3       6 GLP5        0.0000 
     13 CA         41.8625   13.1355   58.8740 C.3       3 GLC5        0.0000 
     14 CA         41.2630   12.1960   60.6630 C.3       9 GLL5        0.0000 
     15 CA         42.4620   14.0750   57.0850 C.3       6 GLP5        0.0000 
     16 CA         41.1745   11.1430   59.4420 C.3       3 GLC5        0.0000 
     17 CA         41.0860   10.0900   58.2210 C.3       6 GLP5        0.0000 
     18 CA         39.8250    9.6830   62.9660 C.3       3 GLC5        0.0000 
     19 CA         41.6900   10.1370   63.1040 C.3       9 GLL5        0.0000 
     20 CA         37.9600    9.2290   62.8280 C.3       6 GLP5        0.0000 
     21 CA         43.1215   10.5370   64.1580 C.3       3 GLC5        0.0000 
     22 CA         44.5530   10.9370   65.2120 C.3       6 GLP5        0.0000 
     23 CA         41.4960    8.9655   61.4575 C.3       3 GLC5        0.0000 
     24 CA         41.3020    7.7940   59.8110 C.3       6 GLP5        0.0000 
     25 CA         38.3950   18.8610   61.7488 C.3       3 GLC5        0.0000 
     26 CA         38.5300   20.8940   61.6080 C.3       6 GLP5        0.0000 
     27 CA         37.0373   15.6483   61.2554 C.3       3 GLC5        0.0000 
     28 CA         36.7410   17.8290   61.5060 C.3       9 GLL5        0.0000 
     29 CA         36.5740   13.9680   60.8130 C.3       6 GLP5        0.0000 
     30 CA         35.1020   17.8325   60.1618 C.3       3 GLC5        0.0000 
     31 CA         33.4350   17.7170   59.5140 C.3       6 GLP5        0.0000 
     32 CA         37.6495   19.4210   61.2088 C.3       3 GLC5        0.0000 
     33 CA         35.4411   17.4025   62.1796 C.3       3 GLC5        0.0000 
     34 CA         33.8700   17.0430   63.3650 C.3       6 GLP5        0.0000 
     35 CA         38.3160   14.5527   61.2728 C.3       3 GLC5        0.0000 
     36 CA         39.9400   15.7450   62.0790 C.3       9 GLL5        0.0000 
     37 CA         39.3220   14.4288   63.3998 C.3       3 GLC5        0.0000 
     38 CA         38.2920   12.9470   64.1740 C.3       6 GLP5        0.0000 
     39 CA         40.1227   13.7605   63.6820 C.3       3 GLC5        0.0000 
     40 CA         41.8330   15.1870   63.5520 C.3       9 GLL5        0.0000 
     41 CA         39.4950   13.5152   62.8640 C.3       3 GLC5        0.0000 
     42 CA         41.2200   13.6370   61.7220 C.3       9 GLL5        0.0000 
     43 CA         44.4000    8.0075   61.5395 C.3       3 GLC5        0.0000 
     44 CA         44.0280    9.7650   62.1220 C.3       9 GLL5        0.0000 
     45 CA         44.4330    5.9960   61.5060 C.3       6 GLP5        0.0000 
     46 CA         42.8345    8.9065   60.6920 C.3       3 GLC5        0.0000 
@<TRIPOS>BOND
@<TRIPOS>SUBSTRUCTURE
     1 ALC1        4 GROUP        1 X    ALC  0     ROOT ALC X 1
     2 SEC2        1 GROUP        1 X    SEC  0     **** SEC X 2
     3 GLC5        7 GROUP        1 X    GLC  0     **** GLC X 6
     4 ALP1        6 GROUP        1 Y    ALP  0     ROOT ALP Y 8
     5 SEP2        3 GROUP        1 Y    SEP  0     **** SEP Y 9
     6 GLP5        9 GROUP        1 Y    GLP  0     **** GLP Y 13
     7 ALL1        5 GROUP        1 Z    ALL  0     ROOT ALL Z 15
     8 SEL2        2 GROUP        1 Z    SEL  0     **** SEL Z 16
     9 GLL5        8 GROUP        1 Z    GLL  0     **** GLL Z 20
@<TRIPOS>SET

