#    Name: 4l3q_926_1_ligand
#    Modification time : Tue Mar 25 09:49:20 2014

@<TRIPOS>MOLECULE
4l3q_926_1_ligand
   33    35     1     0     0
SMALL
NO_CHARGES


@<TRIPOS>ATOM
      1 O13        38.1910   17.6600   58.1800 O.2       1 926501      0.0000 
      2 C3         37.9620   17.5210   59.3980 C.2       1 926501      0.0000 
      3 N2         38.8700   16.8160   60.1960 N.am      1 926501      0.0000 
      4 C1         38.8060   16.5710   61.5340 C.2       1 926501      0.0000 
      5 C6         37.7140   17.0850   62.2450 C.2       1 926501      0.0000 
      6 C5         36.7410   17.8290   61.5060 C.2       1 926501      0.0000 
      7 C4         36.7970   18.0670   60.1130 C.2       1 926501      0.0000 
      8 C10        39.9400   15.7450   62.0790 C.ar      1 926501      0.0000 
      9 C11        40.7640   16.0760   63.1720 C.ar      1 926501      0.0000 
     10 C12        41.8330   15.1870   63.5520 C.ar      1 926501      0.0000 
     11 C7         42.0740   13.9610   62.8280 C.ar      1 926501      0.0000 
     12 C8         41.2200   13.6370   61.7220 C.ar      1 926501      0.0000 
     13 C9         40.1760   14.5300   61.3860 C.ar      1 926501      0.0000 
     14 S14        41.2630   12.1960   60.6630 S.3       1 926501      0.0000 
     15 C15        42.7030   11.2160   61.0500 C.2       1 926501      0.0000 
     16 N19        42.7890   10.3420   62.1420 N.pl3     1 926501      0.0000 
     17 C18        44.0280    9.7650   62.1220 C.2       1 926501      0.0000 
     18 C20        41.6900   10.1370   63.1040 C.3       1 926501      0.0000 
     19 N16        43.8890   11.1700   60.3540 N.2       1 926501      0.0000 
     20 C17        44.7060   10.2730   61.0240 C.2       1 926501      0.0000 
     21 H          39.7356   16.4168   59.6654 H         1 926501      0.0000 
     22 H          37.6061   16.9451   63.2303 H         1 926501      0.0000 
     23 H          35.9279   18.2249   62.0430 H         1 926501      0.0000 
     24 H          36.1053   18.5694   59.6209 H         1 926501      0.0000 
     25 H          40.6183   16.9307   63.6977 H         1 926501      0.0000 
     26 H          42.4281   15.4261   64.3430 H         1 926501      0.0000 
     27 H          42.8234   13.3522   63.0961 H         1 926501      0.0000 
     28 H          39.5483   14.2848   60.5904 H         1 926501      0.0000 
     29 H          44.3719    9.1324   62.7399 H         1 926501      0.0000 
     30 H          45.5990   10.0401   60.7690 H         1 926501      0.0000 
     31 H          41.9376    9.4803   63.8163 H         1 926501      0.0000 
     32 H          41.4363   10.9875   63.5648 H         1 926501      0.0000 
     33 H          40.8659    9.7884   62.6576 H         1 926501      0.0000 
@<TRIPOS>BOND
     1    2    1 2    
     2    3    2 am   
     3    7    2 1    
     4    4    3 1    
     5   21    3 1    
     6    5    4 2    
     7    8    4 1    
     8    6    5 1    
     9   22    5 1    
    10    7    6 2    
    11   23    6 1    
    12   24    7 1    
    13    9    8 ar   
    14   13    8 ar   
    15   10    9 ar   
    16   25    9 1    
    17   11   10 ar   
    18   26   10 1    
    19   12   11 ar   
    20   27   11 1    
    21   13   12 ar   
    22   14   12 1    
    23   28   13 1    
    24   15   14 1    
    25   16   15 1    
    26   19   15 2    
    27   17   16 1    
    28   18   16 1    
    29   20   17 2    
    30   29   17 1    
    31   31   18 1    
    32   32   18 1    
    33   33   18 1    
    34   20   19 1    
    35   30   20 1    
@<TRIPOS>SUBSTRUCTURE
     1 926501      1 GROUP   
@<TRIPOS>SET

