#    Name: 2yr5_FAD_2_INTS_M
#    Modification time : Tue Mar 25 09:40:41 2014

@<TRIPOS>MOLECULE
2yr5_FAD_2_INTS_M
  139     0    12     0     0
SMALL
NO_CHARGES


@<TRIPOS>ATOM
      1 N          71.8330   32.6800   91.7255 N.am      2 SEC2        0.0000 
      2 N          71.2470   33.4040   90.6560 N.am     10 SEL2        0.0000 
      3 N          72.4190   31.9560   92.7950 N.am      6 SEP2        0.0000 
      4 NZ         73.3930   35.3425   90.5610 N.4       3 LYC4        0.0000 
      5 NZ         73.2280   34.4230   89.4540 N.4      11 LYL4        0.0000 
      6 NZ         72.8410   37.3460   91.4990 N.4       7 LYP4        0.0000 
      7 N          73.3930   35.3425   90.5610 N.am      2 SEC2        0.0000 
      8 N          73.2280   34.4230   89.4540 N.am     10 SEL2        0.0000 
      9 N          73.5580   36.2620   91.6680 N.am      6 SEP2        0.0000 
     10 N          72.7360   35.9695   89.8960 N.am      2 SEC2        0.0000 
     11 N          72.2440   37.5160   90.3380 N.am      6 SEP2        0.0000 
     12 CA         72.5605   34.3750   85.5900 C.3       4 GLC5        0.0000 
     13 CA         72.3580   32.8690   87.0760 C.3      12 GLL5        0.0000 
     14 CA         72.7630   35.8810   84.1040 C.3       8 GLP5        0.0000 
     15 CA         73.1890   34.6490   86.8865 C.3       4 GLC5        0.0000 
     16 CA         74.0200   36.4290   86.6970 C.3       8 GLP5        0.0000 
     17 CA         71.8295   31.0405   84.9200 C.3       4 GLC5        0.0000 
     18 CA         72.5780   31.4550   86.6380 C.3      12 GLL5        0.0000 
     19 CA         71.0810   30.6260   83.2020 C.3       8 GLP5        0.0000 
     20 CA         72.9935   30.4505   89.3000 C.3       4 GLC5        0.0000 
     21 CA         73.4580   30.6170   87.5230 C.3      12 GLL5        0.0000 
     22 CA         72.5290   30.2840   91.0770 C.3       8 GLP5        0.0000 
     23 O          73.6140   28.2505   86.9805 O.2       1 ALC1        0.0000 
     24 O          72.8890   29.3600   87.8980 O.2       9 ALL1        0.0000 
     25 O          74.3390   27.1410   86.0630 O.2       5 ALP1        0.0000 
     26 O          72.5625   28.5435   86.8915 O.2       1 ALC1        0.0000 
     27 O          72.2360   27.7270   85.8850 O.2       5 ALP1        0.0000 
     28 O          74.9115   28.2185   86.5280 O.2       1 ALC1        0.0000 
     29 O          75.4840   29.2960   86.9930 O.2       9 ALL1        0.0000 
     30 CA         72.7005   30.5960   84.2525 C.3       4 GLC5        0.0000 
     31 CA         74.3200   30.5660   85.3030 C.3      12 GLL5        0.0000 
     32 CA         73.9630   32.2080   84.0635 C.3       4 GLC5        0.0000 
     33 CA         73.6060   33.8500   82.8240 C.3       8 GLP5        0.0000 
     34 CA         75.2380   31.5980   80.3065 C.3       4 GLC5        0.0000 
     35 CA         77.0530   31.2060   81.3490 C.3      12 GLL5        0.0000 
     36 CA         73.4230   31.9900   79.2640 C.3       8 GLP5        0.0000 
     37 CA         77.5730   29.2290   82.2800 C.3       4 GLC5        0.0000 
     38 CA         78.0930   27.2520   83.2110 C.3       8 GLP5        0.0000 
     39 CA         78.8110   30.3295   80.8565 C.3       4 GLC5        0.0000 
     40 CA         80.5690   29.4530   80.3640 C.3       8 GLP5        0.0000 
     41 CA         76.7160   31.1340   79.1365 C.3       4 GLC5        0.0000 
     42 CA         76.3790   31.0620   76.9240 C.3       8 GLP5        0.0000 
     43 O          78.5070   31.9925   79.3780 O.2       1 ALC1        0.0000 
     44 O          77.9080   31.9890   80.7140 O.2       9 ALL1        0.0000 
     45 O          79.1060   31.9960   78.0420 O.2       5 ALP1        0.0000 
     46 N          77.1965   29.7805   79.4050 N.am      2 SEC2        0.0000 
     47 N          76.5470   30.0930   80.7180 N.am     10 SEL2        0.0000 
     48 N          77.8460   29.4680   78.0920 N.am      6 SEP2        0.0000 
     49 CA         74.5545   30.6455   80.3140 C.3       4 GLC5        0.0000 
     50 CA         75.6860   29.3010   81.3640 C.3      12 GLL5        0.0000 
     51 CA         74.3000   28.4180   79.9840 C.3       4 GLC5        0.0000 
     52 CA         72.9140   27.5350   78.6040 C.3       8 GLP5        0.0000 
     53 CA         74.5940   27.6990   82.1670 C.3       4 GLC5        0.0000 
     54 CA         73.5020   26.0970   82.9700 C.3       8 GLP5        0.0000 
     55 CA         76.8895   28.2765   82.2875 C.3       4 GLC5        0.0000 
     56 CA         77.2850   28.5180   80.4110 C.3       4 GLC5        0.0000 
     57 CA         78.8840   27.7350   79.4580 C.3       8 GLP5        0.0000 
     58 N          75.5275   27.9285   83.0005 N.am      2 SEC2        0.0000 
     59 N          75.1910   29.4480   82.5980 N.am     10 SEL2        0.0000 
     60 N          75.8640   26.4090   83.4030 N.am      6 SEP2        0.0000 
     61 CA         76.8670   28.9120   83.1810 C.3       4 GLC5        0.0000 
     62 CA         75.6410   30.5720   83.1510 C.3      12 GLL5        0.0000 
     63 N          66.3915   37.8400   96.4890 N.am      2 SEC2        0.0000 
     64 N          67.4770   37.5340   97.7430 N.am     10 SEL2        0.0000 
     65 N          65.3060   38.1460   95.2350 N.am      6 SEP2        0.0000 
     66 N          65.2525   37.9020   96.6675 N.am      2 SEC2        0.0000 
     67 N          65.1990   37.6580   98.1000 N.am     10 SEL2        0.0000 
     68 O          65.7185   37.5150  101.0720 O.2       1 ALC1        0.0000 
     69 O          66.5280   37.3970   99.9170 O.2       9 ALL1        0.0000 
     70 O          64.9090   37.6330  102.2270 O.2       5 ALP1        0.0000 
     71 N          68.0845   35.5825  101.7560 N.am      2 SEC2        0.0000 
     72 N          67.8610   37.0190  101.7310 N.am     10 SEL2        0.0000 
     73 N          68.3080   34.1460  101.7810 N.am      6 SEP2        0.0000 
     74 N          67.0380   36.2200  102.5070 N.am      2 SEC2        0.0000 
     75 N          66.2150   35.4210  103.2830 N.am      6 SEP2        0.0000 
     76 CA         76.6100   37.9925   99.8135 C.3       4 GLC5        0.0000 
     77 CA         74.9960   36.5990   99.7560 C.3      12 GLL5        0.0000 
     78 CA         78.2240   39.3860   99.8710 C.3       8 GLP5        0.0000 
     79 CA         74.6765   35.7595  101.6135 C.3       4 GLC5        0.0000 
     80 CA         74.3570   34.9200  103.4710 C.3       8 GLP5        0.0000 
     81 CA         75.2675   37.4825  101.5395 C.3       4 GLC5        0.0000 
     82 CA         75.5390   38.3660  103.3230 C.3       8 GLP5        0.0000 
     83 CA         76.4505   35.7685   99.1190 C.3       4 GLC5        0.0000 
     84 CA         77.9050   34.9380   98.4820 C.3       8 GLP5        0.0000 
     85 CA         74.2950   38.6125   99.1595 C.3       4 GLC5        0.0000 
     86 CA         73.5940   40.6260   98.5630 C.3       8 GLP5        0.0000 
     87 CA         74.4055   35.9655   94.8775 C.3       4 GLC5        0.0000 
     88 CA         74.5050   36.0290   96.8420 C.3      12 GLL5        0.0000 
     89 CA         74.3060   35.9020   92.9130 C.3       8 GLP5        0.0000 
     90 CA         75.6660   34.6655   97.1070 C.3       4 GLC5        0.0000 
     91 CA         76.8270   33.3020   97.3720 C.3       8 GLP5        0.0000 
     92 CA         75.6200   37.4405   96.2230 C.3       4 GLC5        0.0000 
     93 CA         76.7350   38.8520   95.6040 C.3       8 GLP5        0.0000 
     94 CA         73.9860   38.2055   97.0375 C.3       4 GLC5        0.0000 
     95 CA         73.4670   40.3820   97.2330 C.3       8 GLP5        0.0000 
     96 CA         72.4575   35.4240   95.5160 C.3       4 GLC5        0.0000 
     97 CA         72.1210   36.7580   97.1640 C.3      12 GLL5        0.0000 
     98 CA         72.7940   34.0900   93.8680 C.3       8 GLP5        0.0000 
     99 CA         69.7230   39.6145   95.9950 C.3       4 GLC5        0.0000 
    100 CA         69.5470   37.6620   96.0130 C.3      12 GLL5        0.0000 
    101 CA         69.8990   41.5670   95.9770 C.3       8 GLP5        0.0000 
    102 CA         67.9710   38.9290   95.9785 C.3       4 GLC5        0.0000 
    103 CA         66.3950   40.1960   95.9440 C.3       8 GLP5        0.0000 
    104 CA         68.6785   35.2650   96.8360 C.3       4 GLC5        0.0000 
    105 CA         69.0660   36.4870   95.2150 C.3      12 GLL5        0.0000 
    106 CA         68.2910   34.0430   98.4570 C.3       8 GLP5        0.0000 
    107 O          69.3180   39.0770   93.0055 O.2       1 ALC1        0.0000 
    108 O          68.4870   38.0170   93.4220 O.2       9 ALL1        0.0000 
    109 O          70.1490   40.1370   92.5890 O.2       5 ALP1        0.0000 
    110 CA         67.1955   34.6435   91.8220 C.3       4 GLC5        0.0000 
    111 CA         68.7780   35.7460   92.7290 C.3      12 GLL5        0.0000 
    112 CA         65.6130   33.5410   90.9150 C.3       8 GLP5        0.0000 
    113 CA         67.2405   35.0960   93.6385 C.3       4 GLC5        0.0000 
    114 CA         65.7030   34.4460   94.5480 C.3       8 GLP5        0.0000 
    115 N          67.2795   34.3795   87.9140 N.am      2 SEC2        0.0000 
    116 N          68.6800   34.6520   87.9970 N.am     10 SEL2        0.0000 
    117 N          65.8790   34.1070   87.8310 N.am      6 SEP2        0.0000 
    118 N          70.0780   37.9575   87.8930 N.am      2 SEC2        0.0000 
    119 N          69.4090   37.0310   88.6270 N.am     10 SEL2        0.0000 
    120 N          70.7470   38.8840   87.1590 N.am      6 SEP2        0.0000 
    121 N          68.9090   38.4875   88.5940 N.am      2 SEC2        0.0000 
    122 N          68.4090   39.9440   88.5610 N.am      6 SEP2        0.0000 
    123 N          71.6190   36.3610   89.6080 N.am      2 SEC2        0.0000 
    124 N          70.9940   35.2060   88.8780 N.am     10 SEL2        0.0000 
    125 CA         70.5745   31.4615   87.6505 C.3       4 GLC5        0.0000 
    126 CA         68.6810   30.7610   88.4440 C.3       8 GLP5        0.0000 
    127 CA         74.8563   32.4303   82.8537 C.3       4 GLC5        0.0000 
    128 CA         73.4750   34.8530   99.4076 C.3       4 GLC5        0.0000 
    129 CA         72.5180   37.0880   99.8510 C.3      12 GLL5        0.0000 
    130 CA         72.9190   32.9440   99.2030 C.3       8 GLP5        0.0000 
    131 CA         72.9783   34.7362   98.2130 C.3       4 GLC5        0.0000 
    132 CA         73.4030   36.5690   97.7220 C.3      12 GLL5        0.0000 
    133 CA         70.3942   35.6371   99.1689 C.3       4 GLC5        0.0000 
    134 CA         71.0460   37.1490   97.9530 C.3      12 GLL5        0.0000 
    135 CA         69.3220   34.1160   99.5620 C.3       8 GLP5        0.0000 
    136 CA         67.4350   35.5537   94.5080 C.3       4 GLC5        0.0000 
    137 CA         70.9085   35.1905   93.5465 C.3       4 GLC5        0.0000 
    138 CA         67.5290   36.6360   91.0282 C.3       4 GLC5        0.0000 
    139 CA         65.9200   37.3660   89.9720 C.3       8 GLP5        0.0000 
@<TRIPOS>BOND
@<TRIPOS>SUBSTRUCTURE
     1 ALC1       23 GROUP        1 X    ALC  0     ROOT ALC X 1
     2 SEC2        1 GROUP        1 X    SEC  0     **** SEC X 2
     3 LYC4        4 GROUP        1 X    LYC  0     **** LYC X 4
     4 GLC5       12 GROUP        1 X    GLC  0     **** GLC X 6
     5 ALP1       25 GROUP        1 Y    ALP  0     ROOT ALP Y 8
     6 SEP2        3 GROUP        1 Y    SEP  0     **** SEP Y 9
     7 LYP4        6 GROUP        1 Y    LYP  0     **** LYP Y 11
     8 GLP5       14 GROUP        1 Y    GLP  0     **** GLP Y 13
     9 ALL1       24 GROUP        1 Z    ALL  0     ROOT ALL Z 15
    10 SEL2        2 GROUP        1 Z    SEL  0     **** SEL Z 16
    11 LYL4        5 GROUP        1 Z    LYL  0     **** LYL Z 18
    12 GLL5       13 GROUP        1 Z    GLL  0     **** GLL Z 20
@<TRIPOS>SET

