#    Name: 2yr5_FAD_2_ligand
#    Modification time : Tue Mar 25 09:40:41 2014

@<TRIPOS>MOLECULE
2yr5_FAD_2_ligand
   84    89     1     0     0
SMALL
NO_CHARGES


@<TRIPOS>ATOM
      1 PA         71.8520   33.9440   89.4230 P.3       1 FAD801      0.0000 
      2 O1A        71.2470   33.4040   90.6560 O.co2     1 FAD801      0.0000 
      3 O2A        73.2280   34.4230   89.4540 O.co2     1 FAD801      0.0000 
      4 O5B        71.6760   32.8220   88.3080 O.3       1 FAD801      0.0000 
      5 C5B        72.3580   32.8690   87.0760 C.3       1 FAD801      0.0000 
      6 C4B        72.5780   31.4550   86.6380 C.3       1 FAD801      0.0000 
      7 O4B        73.2130   31.5140   85.3330 O.3       1 FAD801      0.0000 
      8 C3B        73.4580   30.6170   87.5230 C.3       1 FAD801      0.0000 
      9 O3B        72.8890   29.3600   87.8980 O.3       1 FAD801      0.0000 
     10 C2B        74.7640   30.4870   86.7430 C.3       1 FAD801      0.0000 
     11 O2B        75.4840   29.2960   86.9930 O.3       1 FAD801      0.0000 
     12 C1B        74.3200   30.5660   85.3030 C.3       1 FAD801      0.0000 
     13 N9A        75.3050   31.0580   84.3830 N.pl3     1 FAD801      0.0000 
     14 C8A        76.0300   32.2210   84.5470 C.2       1 FAD801      0.0000 
     15 N7A        76.7990   32.5010   83.4900 N.2       1 FAD801      0.0000 
     16 C5A        76.5720   31.4490   82.6160 C.ar      1 FAD801      0.0000 
     17 C6A        77.0530   31.2060   81.3490 C.ar      1 FAD801      0.0000 
     18 N6A        77.9080   31.9890   80.7140 N.pl3     1 FAD801      0.0000 
     19 N1A        76.5470   30.0930   80.7180 N.ar      1 FAD801      0.0000 
     20 C2A        75.6860   29.3010   81.3640 C.ar      1 FAD801      0.0000 
     21 N3A        75.1910   29.4480   82.5980 N.ar      1 FAD801      0.0000 
     22 C4A        75.6410   30.5720   83.1510 C.ar      1 FAD801      0.0000 
     23 N1         67.4770   37.5340   97.7430 N.2       1 FAD801      0.0000 
     24 C2         66.3730   37.5400   98.5430 C.2       1 FAD801      0.0000 
     25 O2         65.1990   37.6580   98.1000 O.2       1 FAD801      0.0000 
     26 N3         66.5280   37.3970   99.9170 N.am      1 FAD801      0.0000 
     27 C4         67.7980   37.2940  100.4840 C.2       1 FAD801      0.0000 
     28 O4         67.8610   37.0190  101.7310 O.2       1 FAD801      0.0000 
     29 C4X        68.8850   37.4270   99.6440 C.2       1 FAD801      0.0000 
     30 N5         70.1660   37.4320  100.1920 N.2       1 FAD801      0.0000 
     31 C5X        71.2560   37.2470   99.3460 C.ar      1 FAD801      0.0000 
     32 C6         72.5180   37.0880   99.8510 C.ar      1 FAD801      0.0000 
     33 C7         73.6140   36.7620   99.0860 C.ar      1 FAD801      0.0000 
     34 C7M        74.9960   36.5990   99.7560 C.3       1 FAD801      0.0000 
     35 C8         73.4030   36.5690   97.7220 C.ar      1 FAD801      0.0000 
     36 C8M        74.5050   36.0290   96.8420 C.3       1 FAD801      0.0000 
     37 C9         72.1210   36.7580   97.1640 C.ar      1 FAD801      0.0000 
     38 C9A        71.0460   37.1490   97.9530 C.ar      1 FAD801      0.0000 
     39 N10        69.7490   37.4060   97.4310 N.pl3     1 FAD801      0.0000 
     40 C10        68.6870   37.4900   98.2810 C.2       1 FAD801      0.0000 
     41 C1'        69.5470   37.6620   96.0130 C.3       1 FAD801      0.0000 
     42 C2'        69.0660   36.4870   95.2150 C.3       1 FAD801      0.0000 
     43 O2'        69.9220   35.3710   95.5630 O.3       1 FAD801      0.0000 
     44 C3'        69.2680   36.8360   93.7210 C.3       1 FAD801      0.0000 
     45 O3'        68.4870   38.0170   93.4220 O.3       1 FAD801      0.0000 
     46 C4'        68.7780   35.7460   92.7290 C.3       1 FAD801      0.0000 
     47 O4'        69.0550   34.4640   93.2160 O.3       1 FAD801      0.0000 
     48 C5'        69.4980   36.0660   91.4400 C.3       1 FAD801      0.0000 
     49 O5'        68.9270   35.2710   90.3380 O.3       1 FAD801      0.0000 
     50 P          69.4030   35.5770   88.8750 P.3       1 FAD801      0.0000 
     51 O1P        68.6800   34.6520   87.9970 O.co2     1 FAD801      0.0000 
     52 O2P        69.4090   37.0310   88.6270 O.co2     1 FAD801      0.0000 
     53 O3P        70.9940   35.2060   88.8780 O.3       1 FAD801      0.0000 
     54 H          73.3294   33.3585   87.1642 H         1 FAD801      0.0000 
     55 H          71.7789   33.3828   86.3068 H         1 FAD801      0.0000 
     56 H          71.6157   30.9623   86.5248 H         1 FAD801      0.0000 
     57 H          73.6957   31.2323   88.4050 H         1 FAD801      0.0000 
     58 H          75.3432   31.3824   86.9411 H         1 FAD801      0.0000 
     59 H          73.9342   29.6060   85.0116 H         1 FAD801      0.0000 
     60 H          75.9708   32.7718   85.3671 H         1 FAD801      0.0000 
     61 H          78.1926   32.8153   81.2001 H         1 FAD801      0.0000 
     62 H          78.1926   31.6840   79.8052 H         1 FAD801      0.0000 
     63 H          75.3391   28.4130   80.8096 H         1 FAD801      0.0000 
     64 H          65.6947   37.3665  100.5264 H         1 FAD801      0.0000 
     65 H          72.6627   37.2235  100.8936 H         1 FAD801      0.0000 
     66 H          71.9889   36.6009   96.1520 H         1 FAD801      0.0000 
     67 H          70.4968   38.0326   95.5523 H         1 FAD801      0.0000 
     68 H          68.8185   38.5000   95.8758 H         1 FAD801      0.0000 
     69 H          68.0594   36.3030   95.4010 H         1 FAD801      0.0000 
     70 H          70.3043   37.0237   93.5360 H         1 FAD801      0.0000 
     71 H          67.7257   35.9330   92.5763 H         1 FAD801      0.0000 
     72 H          70.5598   35.8398   91.5620 H         1 FAD801      0.0000 
     73 H          69.3947   37.1336   91.2324 H         1 FAD801      0.0000 
     74 H          75.7050   36.3615   99.0920 H         1 FAD801      0.0000 
     75 H          75.2899   37.4399  100.2105 H         1 FAD801      0.0000 
     76 H          74.9901   35.8780  100.4489 H         1 FAD801      0.0000 
     77 H          75.3102   36.6220   96.8491 H         1 FAD801      0.0000 
     78 H          74.8060   35.1224   97.1379 H         1 FAD801      0.0000 
     79 H          74.2119   35.9442   95.8897 H         1 FAD801      0.0000 
     80 H          72.7124   28.8880   87.0343 H         1 FAD801      0.0000 
     81 H          75.2470   28.6868   86.2363 H         1 FAD801      0.0000 
     82 H          70.8231   35.6145   95.2044 H         1 FAD801      0.0000 
     83 H          69.0982   38.7858   93.6102 H         1 FAD801      0.0000 
     84 H          69.2787   34.5968   94.1816 H         1 FAD801      0.0000 
@<TRIPOS>BOND
     1    2    1 ar   
     2    3    1 ar   
     3    4    1 1    
     4   53    1 1    
     5    5    4 1    
     6    6    5 1    
     7   54    5 1    
     8   55    5 1    
     9    7    6 1    
    10    8    6 1    
    11   56    6 1    
    12   12    7 1    
    13    9    8 1    
    14   10    8 1    
    15   57    8 1    
    16   80    9 1    
    17   11   10 1    
    18   12   10 1    
    19   58   10 1    
    20   81   11 1    
    21   13   12 1    
    22   59   12 1    
    23   14   13 1    
    24   22   13 1    
    25   15   14 2    
    26   60   14 1    
    27   16   15 1    
    28   17   16 ar   
    29   22   16 ar   
    30   18   17 1    
    31   19   17 ar   
    32   61   18 1    
    33   62   18 1    
    34   20   19 ar   
    35   21   20 ar   
    36   63   20 1    
    37   22   21 ar   
    38   24   23 1    
    39   40   23 2    
    40   25   24 2    
    41   26   24 am   
    42   27   26 am   
    43   64   26 1    
    44   28   27 2    
    45   29   27 1    
    46   30   29 2    
    47   40   29 1    
    48   31   30 1    
    49   32   31 ar   
    50   38   31 ar   
    51   33   32 ar   
    52   65   32 1    
    53   34   33 1    
    54   35   33 ar   
    55   74   34 1    
    56   75   34 1    
    57   76   34 1    
    58   36   35 1    
    59   37   35 ar   
    60   77   36 1    
    61   78   36 1    
    62   79   36 1    
    63   38   37 ar   
    64   66   37 1    
    65   39   38 1    
    66   40   39 1    
    67   41   39 1    
    68   42   41 1    
    69   67   41 1    
    70   68   41 1    
    71   43   42 1    
    72   44   42 1    
    73   69   42 1    
    74   82   43 1    
    75   45   44 1    
    76   46   44 1    
    77   70   44 1    
    78   83   45 1    
    79   47   46 1    
    80   48   46 1    
    81   71   46 1    
    82   84   47 1    
    83   49   48 1    
    84   72   48 1    
    85   73   48 1    
    86   50   49 1    
    87   51   50 ar   
    88   52   50 ar   
    89   53   50 1    
@<TRIPOS>SUBSTRUCTURE
     1 FAD801      1 GROUP   
@<TRIPOS>SET

