#    Name: 1RMZ_1_CAVITY_N1_ALL.mol2
#    Modification time : Tue Mar 11 06:11:42 2014

@<TRIPOS>MOLECULE
1RMZ_1_CAVITY_N1_ALL.mol2
   79     0     6     0     0
SMALL
NO_CHARGES


@<TRIPOS>ATOM
      1 CA          7.3915   28.6373    8.6972 C.3       5 GLY6        0.0000 
      2 N           7.5981   28.6989    6.5868 N.2       1 ALA2        0.0000 
      3 O           6.4399   28.6316    7.5376 O.2       1 ALA2        0.0000 
      4 CA          8.9630   28.8277    3.5257 C.3       5 GLY6        0.0000 
      5 N           7.8048   28.7604    4.4765 N.2       1 ALA2        0.0000 
      6 N           6.6466   28.6932    5.4273 N.2       1 ALA2        0.0000 
      7 O           5.4884   28.6259    6.3781 O.2       1 ALA2        0.0000 
      8 N           6.8532   28.7547    3.3170 N.2       1 ALA2        0.0000 
      9 CA          8.8120   27.2677    5.5977 C.3       5 GLY6        0.0000 
     10 CA          7.6538   27.2004    6.5486 C.3       5 GLY6        0.0000 
     11 CA          6.4956   27.1331    7.4994 C.3       5 GLY6        0.0000 
     12 CA          9.0186   27.3292    3.4874 C.3       5 GLY6        0.0000 
     13 DU          7.8604   27.2620    4.4382 H         6 CUB7        0.0000 
     14 O           6.7022   27.1947    5.3890 O.2       1 ALA2        0.0000 
     15 CA          9.2253   27.3908    1.3771 C.3       5 GLY6        0.0000 
     16 CA          8.0670   27.3235    2.3279 C.3       5 GLY6        0.0000 
     17 N           6.9088   27.2562    3.2787 N.2       1 ALA2        0.0000 
     18 N           5.7506   27.1890    4.2295 N.2       1 ALA2        0.0000 
     19 OD1         7.1155   27.3178    1.1684 O.3       2 ASP3        0.0000 
     20 N           5.9573   27.2505    2.1192 N.2       1 ALA2        0.0000 
     21 CA          8.8676   25.7692    5.5595 C.3       5 GLY6        0.0000 
     22 N           9.0742   25.8308    3.4491 N.2       1 ALA2        0.0000 
     23 DU          7.9160   25.7635    4.4000 H         6 CUB7        0.0000 
     24 CA          6.7578   25.6962    5.3508 C.3       5 GLY6        0.0000 
     25 O           5.5996   25.6289    6.3016 O.2       1 ALA2        0.0000 
     26 N           9.2809   25.8923    1.3388 N.2       1 ALA2        0.0000 
     27 N           8.1227   25.8250    2.2896 N.2       1 ALA2        0.0000 
     28 DU          6.9645   25.7578    3.2404 H         6 CUB7        0.0000 
     29 N           5.8063   25.6905    4.1912 N.2       1 ALA2        0.0000 
     30 O           4.6481   25.6232    5.1420 O.2       1 ALA2        0.0000 
     31 OD1         8.3293   25.8866    0.1793 O.3       2 ASP3        0.0000 
     32 OD1         7.1711   25.8193    1.1301 O.3       2 ASP3        0.0000 
     33 OD1         6.0129   25.7520    2.0809 O.3       2 ASP3        0.0000 
     34 CA          4.8547   25.6848    3.0317 C.3       5 GLY6        0.0000 
     35 O           3.6965   25.6175    3.9825 O.2       1 ALA2        0.0000 
     36 N          -0.9363   25.3484    7.7857 N.2       1 ALA2        0.0000 
     37 NZ          7.9717   24.2650    4.3617 N.2       3 LYS4        0.0000 
     38 CA          6.8135   24.1977    5.3125 C.3       5 GLY6        0.0000 
     39 CA          5.6553   24.1304    6.2633 C.3       5 GLY6        0.0000 
     40 N           8.1783   24.3266    2.2514 N.2       1 ALA2        0.0000 
     41 NZ          7.0201   24.2593    3.2022 N.2       3 LYS4        0.0000 
     42 N           5.8619   24.1920    4.1530 N.2       1 ALA2        0.0000 
     43 N           3.5455   24.0574    6.0546 N.2       1 ALA2        0.0000 
     44 N           1.2291   23.9229    7.9562 N.2       1 ALA2        0.0000 
     45 O           0.0709   23.8556    8.9070 O.2       1 ALA2        0.0000 
     46 O           3.7521   24.1190    3.9443 O.2       1 ALA2        0.0000 
     47 N           2.5939   24.0517    4.8951 N.2       1 ALA2        0.0000 
     48 N           0.2775   23.9172    6.7967 N.2       1 ALA2        0.0000 
     49 N          -0.8807   23.8499    7.7475 N.2       1 ALA2        0.0000 
     50 CA         -2.0389   23.7826    8.6983 C.3       5 GLY6        0.0000 
     51 N          -1.8322   23.8442    6.5880 N.2       1 ALA2        0.0000 
     52 N          -2.9904   23.7769    7.5388 N.2       1 ALA2        0.0000 
     53 CA          6.8691   22.6992    5.2742 C.3       5 GLY6        0.0000 
     54 CA          5.7109   22.6320    6.2250 C.3       5 GLY6        0.0000 
     55 CZ          4.5527   22.5647    7.1758 C.ar      4 PHE5        0.0000 
     56 CZ          3.3945   22.4974    8.1267 C.ar      4 PHE5        0.0000 
     57 CZ          2.2363   22.4301    9.0775 C.ar      4 PHE5        0.0000 
     58 CA          4.7593   22.6262    5.0655 C.3       5 GLY6        0.0000 
     59 CA          3.6011   22.5590    6.0163 C.3       5 GLY6        0.0000 
     60 N           2.4429   22.4917    6.9671 N.2       1 ALA2        0.0000 
     61 O           1.2847   22.4244    7.9179 O.2       1 ALA2        0.0000 
     62 N           0.1265   22.3571    8.8687 N.2       1 ALA2        0.0000 
     63 N           1.4914   22.4860    5.8076 N.2       1 ALA2        0.0000 
     64 N           0.3332   22.4187    6.7584 N.2       1 ALA2        0.0000 
     65 N          -0.8250   22.3514    7.7092 N.2       1 ALA2        0.0000 
     66 N          -1.9832   22.2841    8.6600 N.2       1 ALA2        0.0000 
     67 N          -1.7766   22.3457    6.5497 N.2       1 ALA2        0.0000 
     68 N          -2.9348   22.2784    7.5005 N.2       1 ALA2        0.0000 
     69 N           3.4501   20.9989    8.0884 N.2       1 ALA2        0.0000 
     70 CA          3.6568   21.0605    5.9781 C.3       5 GLY6        0.0000 
     71 N           2.4986   20.9932    6.9289 N.2       1 ALA2        0.0000 
     72 CA          1.3404   20.9259    7.8797 C.3       5 GLY6        0.0000 
     73 N           0.1822   20.8586    8.8305 N.2       1 ALA2        0.0000 
     74 N           1.5470   20.9875    5.7693 N.2       1 ALA2        0.0000 
     75 CA          0.3888   20.9202    6.7201 C.3       5 GLY6        0.0000 
     76 CA         -0.7694   20.8529    7.6710 C.3       5 GLY6        0.0000 
     77 CZ         -1.9276   20.7856    8.6218 C.ar      4 PHE5        0.0000 
     78 CA         -1.7210   20.8472    6.5114 C.3       5 GLY6        0.0000 
     79 CZ         -2.8792   20.7799    7.4622 C.ar      4 PHE5        0.0000 
@<TRIPOS>BOND
@<TRIPOS>SUBSTRUCTURE
     1 ALA2        2 GROUP   
     2 ASP3       19 GROUP   
     3 LYS4       37 GROUP   
     4 PHE5       55 GROUP   
     5 GLY6        1 GROUP   
     6 CUB7       13 GROUP   
@<TRIPOS>SET

