#    Name: 1rmz_NGH_1_INTS_M
#    Modification time : Tue Mar 25 00:58:36 2014

@<TRIPOS>MOLECULE
1rmz_NGH_1_INTS_M
   56     0    12     0     0
SMALL
NO_CHARGES


@<TRIPOS>ATOM
      1 CA          5.3195   25.6450    7.1315 C.3       4 GLC5        0.0000 
      2 CA          5.6860   25.7730    5.1030 C.3      12 GLL5        0.0000 
      3 CA          4.9530   25.5170    9.1600 C.3       8 GLP5        0.0000 
      4 CA          4.1745   25.1890    7.0590 C.3       4 GLC5        0.0000 
      5 CA          4.8190   24.5880    5.4310 C.3      12 GLL5        0.0000 
      6 CA          3.5300   25.7900    8.6870 C.3       8 GLP5        0.0000 
      7 CA          9.0285   24.3525    5.8275 C.3       4 GLC5        0.0000 
      8 CA          7.5880   24.1570    4.3210 C.3      12 GLL5        0.0000 
      9 CA         10.4690   24.5480    7.3340 C.3       8 GLP5        0.0000 
     10 CA          4.8000   20.6140    6.6995 C.3       4 GLC5        0.0000 
     11 CA          3.4810   22.1230    6.1270 C.3      12 GLL5        0.0000 
     12 CA          6.1190   19.1050    7.2720 C.3       8 GLP5        0.0000 
     13 CA          3.6375   21.1050    4.8060 C.3       4 GLC5        0.0000 
     14 CA          3.7940   20.0870    3.4850 C.3       8 GLP5        0.0000 
     15 CA          4.1450   22.6855    8.1490 C.3       4 GLC5        0.0000 
     16 CA          4.8090   23.2480   10.1710 C.3       8 GLP5        0.0000 
     17 N          10.5765   26.1790    5.0250 N.am      2 SEC2        0.0000 
     18 N           9.4750   26.2970    4.2240 N.am     10 SEL2        0.0000 
     19 N          11.6780   26.0610    5.8260 N.am      6 SEP2        0.0000 
     20 Zn          6.8640   25.4915    1.2725 Zn        3 ZIC7        0.0000 
     21 Zn          7.8730   27.1890    2.6870 Zn       11 ZIL7        0.0000 
     22 Zn          5.8550   23.7940   -0.1420 Zn        7 ZIP7        0.0000 
     23 CA          4.8870   27.9800    1.6070 C.3       4 GLC5        0.0000 
     24 CA          6.7760   28.0630    2.2290 C.3      12 GLL5        0.0000 
     25 CA          2.9980   27.8970    0.9850 C.3       8 GLP5        0.0000 
     26 CA         10.0240   27.8090    1.8185 C.3       4 GLC5        0.0000 
     27 CA          8.7190   26.5180    1.6770 C.3      12 GLL5        0.0000 
     28 CA         11.3290   29.1000    1.9600 C.3       8 GLP5        0.0000 
     29 O           9.7870   23.9020    1.5100 O.2       1 ALC1        0.0000 
     30 O           8.5430   24.1350    0.8100 O.2       9 ALL1        0.0000 
     31 O          11.0310   23.6690    2.2100 O.2       5 ALP1        0.0000 
     32 Zn          6.8500   23.4565    0.1810 Zn        3 ZIC7        0.0000 
     33 Zn          7.8450   23.1190    0.5040 Zn       11 ZIL7        0.0000 
     34 O           8.0865   22.2280    1.4280 O.2       1 ALC1        0.0000 
     35 O           7.8450   23.1190    0.5040 O.2       9 ALL1        0.0000 
     36 O           8.3280   21.3370    2.3520 O.2       5 ALP1        0.0000 
     37 O           8.5160   21.6620    0.6160 O.2       1 ALC1        0.0000 
     38 O           9.1870   20.2050    0.7280 O.2       5 ALP1        0.0000 
     39 Zn          6.3710   24.6620    0.0700 Zn        3 ZIC7        0.0000 
     40 Zn          6.8870   25.5300    0.2820 Zn       11 ZIL7        0.0000 
     41 CA          4.6010   28.8610    0.7275 C.3       4 GLC5        0.0000 
     42 CA          6.2040   29.8250    0.4700 C.3      12 GLL5        0.0000 
     43 CA          7.3613   25.5042    6.6255 C.3       4 GLC5        0.0000 
     44 CA          8.3940   25.3570    8.5140 C.3       8 GLP5        0.0000 
     45 CA          3.8812   26.6643    5.6145 C.3       4 GLC5        0.0000 
     46 CA          2.5100   28.1480    5.9620 C.3       8 GLP5        0.0000 
     47 CA          4.5043   22.5850    3.9110 C.3       4 GLC5        0.0000 
     48 CA          3.9270   21.2650    2.5870 C.3       8 GLP5        0.0000 
     49 CA          7.1338   21.7300    5.8700 C.3       4 GLC5        0.0000 
     50 CA          5.3440   23.2220    5.0390 C.3      12 GLL5        0.0000 
     51 CA          8.2210   20.3530    6.9170 C.3       8 GLP5        0.0000 
     52 CA          6.0787   22.6197    3.1625 C.3       4 GLC5        0.0000 
     53 CA          6.7490   22.9920    4.6070 C.3      12 GLL5        0.0000 
     54 CA          4.9890   21.6650    1.8610 C.3       8 GLP5        0.0000 
     55 CA          9.3825   29.4885    1.9580 C.3       4 GLC5        0.0000 
     56 CA          7.2480   29.3240    1.4730 C.3      12 GLL5        0.0000 
@<TRIPOS>BOND
@<TRIPOS>SUBSTRUCTURE
     1 ALC1       29 GROUP        1 X    ALC  0     ROOT ALC X 1
     2 SEC2       17 GROUP        1 X    SEC  0     **** SEC X 2
     3 ZIC7       20 GROUP        1 X    ZIC  0     **** ZIC X 5
     4 GLC5        1 GROUP        1 X    GLC  0     **** GLC X 6
     5 ALP1       31 GROUP        1 Y    ALP  0     ROOT ALP Y 8
     6 SEP2       19 GROUP        1 Y    SEP  0     **** SEP Y 9
     7 ZIP7       22 GROUP        1 Y    ZIP  0     **** ZIP Y 12
     8 GLP5        3 GROUP        1 Y    GLP  0     **** GLP Y 13
     9 ALL1       30 GROUP        1 Z    ALL  0     ROOT ALL Z 15
    10 SEL2       18 GROUP        1 Z    SEL  0     **** SEL Z 16
    11 ZIL7       21 GROUP        1 Z    ZIL  0     **** ZIL Z 19
    12 GLL5        2 GROUP        1 Z    GLL  0     **** GLL Z 20
@<TRIPOS>SET

