#    Name: 1rmz_NGH_1_ligand
#    Modification time : Tue Mar 25 00:58:37 2014

@<TRIPOS>MOLECULE
1rmz_NGH_1_ligand
   41    41     1     0     0
SMALL
NO_CHARGES


@<TRIPOS>ATOM
      1 C1          5.6860   25.7730    5.1030 C.ar      1 NGH269      0.0000 
      2 C2          4.8190   24.5880    5.4310 C.ar      1 NGH269      0.0000 
      3 C3          5.3440   23.2220    5.0390 C.ar      1 NGH269      0.0000 
      4 C4          6.7490   22.9920    4.6070 C.ar      1 NGH269      0.0000 
      5 C5          7.5880   24.1570    4.3210 C.ar      1 NGH269      0.0000 
      6 C6          6.9710   25.5300    4.3710 C.ar      1 NGH269      0.0000 
      7 O1          4.8060   22.0520    5.6080 O.3       1 NGH269      0.0000 
      8 C7          3.4810   22.1230    6.1270 C.3       1 NGH269      0.0000 
      9 S1          8.0310   26.8030    4.1980 S.o2      1 NGH269      0.0000 
     10 O2          9.4750   26.2970    4.2240 O.2       1 NGH269      0.0000 
     11 O3          7.7140   27.9250    5.2210 O.2       1 NGH269      0.0000 
     12 N           7.8730   27.1890    2.6870 N.pl3     1 NGH269      0.0000 
     13 C9          6.7760   28.0630    2.2290 C.3       1 NGH269      0.0000 
     14 C10         8.7190   26.5180    1.6770 C.3       1 NGH269      0.0000 
     15 C11         7.8710   25.3180    1.2280 C.2       1 NGH269      0.0000 
     16 N1          8.5430   24.1350    0.8100 N.am      1 NGH269      0.0000 
     17 O4          7.8450   23.1190    0.5040 O.3       1 NGH269      0.0000 
     18 O5          6.8870   25.5300    0.2820 O.2       1 NGH269      0.0000 
     19 C12         7.2480   29.3240    1.4730 C.3       1 NGH269      0.0000 
     20 C13         7.6240   30.4300    2.4390 C.3       1 NGH269      0.0000 
     21 C14         6.2040   29.8250    0.4700 C.3       1 NGH269      0.0000 
     22 H           5.4160   26.6766    5.3616 H         1 NGH269      0.0000 
     23 H           3.9653   24.6885    5.8716 H         1 NGH269      0.0000 
     24 H           7.0969   22.0718    4.5186 H         1 NGH269      0.0000 
     25 H           8.5469   24.0638    4.0966 H         1 NGH269      0.0000 
     26 H           6.1638   28.3964    3.0893 H         1 NGH269      0.0000 
     27 H           6.0929   27.5056    1.5591 H         1 NGH269      0.0000 
     28 H           9.6230   26.1574    2.1098 H         1 NGH269      0.0000 
     29 H           8.8915   27.1504    0.8374 H         1 NGH269      0.0000 
     30 H           9.5765   24.1743    0.7800 H         1 NGH269      0.0000 
     31 H           8.1494   29.0515    0.9073 H         1 NGH269      0.0000 
     32 H           3.1833   21.2469    6.5063 H         1 NGH269      0.0000 
     33 H           3.4045   22.8003    6.8587 H         1 NGH269      0.0000 
     34 H           2.8191   22.3773    5.4219 H         1 NGH269      0.0000 
     35 H           8.3676   30.1542    3.0481 H         1 NGH269      0.0000 
     36 H           7.9275   31.2539    1.9604 H         1 NGH269      0.0000 
     37 H           6.8533   30.6948    3.0186 H         1 NGH269      0.0000 
     38 H           6.5152   30.6439   -0.0121 H         1 NGH269      0.0000 
     39 H           5.9965   29.1367   -0.2251 H         1 NGH269      0.0000 
     40 H           5.3410   30.0587    0.9178 H         1 NGH269      0.0000 
     41 H           8.3663   22.3356    0.8423 H         1 NGH269      0.0000 
@<TRIPOS>BOND
     1    2    1 ar   
     2    6    1 ar   
     3   22    1 1    
     4    3    2 ar   
     5   23    2 1    
     6    4    3 ar   
     7    7    3 1    
     8    5    4 ar   
     9   24    4 1    
    10    6    5 ar   
    11   25    5 1    
    12    9    6 1    
    13    8    7 1    
    14   32    8 1    
    15   33    8 1    
    16   34    8 1    
    17   10    9 2    
    18   11    9 2    
    19   12    9 1    
    20   13   12 1    
    21   14   12 1    
    22   19   13 1    
    23   26   13 1    
    24   27   13 1    
    25   15   14 1    
    26   28   14 1    
    27   29   14 1    
    28   16   15 am   
    29   18   15 2    
    30   17   16 1    
    31   30   16 1    
    32   41   17 1    
    33   20   19 1    
    34   21   19 1    
    35   31   19 1    
    36   35   20 1    
    37   36   20 1    
    38   37   20 1    
    39   38   21 1    
    40   39   21 1    
    41   40   21 1    
@<TRIPOS>SUBSTRUCTURE
     1 NGH269      1 GROUP   
@<TRIPOS>SET

