#    Name: 2okl_BB2_1_INTS_M
#    Modification time : Tue Mar 25 22:52:22 2014

@<TRIPOS>MOLECULE
2okl_BB2_1_INTS_M
   71     0    12     0     0
SMALL
NO_CHARGES


@<TRIPOS>ATOM
      1 Zn         21.0090    2.8380 -216.6515 Zn        3 ZIC7        0.0000 
      2 Zn         20.8090    3.4480 -217.6470 Zn       11 ZIL7        0.0000 
      3 Zn         21.2090    2.2280 -215.6560 Zn        7 ZIP7        0.0000 
      4 N          21.2810    4.3950 -216.4515 N.am      2 SEC2        0.0000 
      5 N          20.8090    3.4480 -217.6470 N.am     10 SEL2        0.0000 
      6 N          21.7530    5.3420 -215.2560 N.am      6 SEP2        0.0000 
      7 N          21.9715    3.7530 -218.3420 N.am      2 SEC2        0.0000 
      8 N          23.1340    4.0580 -219.0370 N.am      6 SEP2        0.0000 
      9 O          17.6310    3.0795 -216.2725 O.2       1 ALC1        0.0000 
     10 O          18.8340    3.4330 -216.5610 O.2       9 ALL1        0.0000 
     11 O          16.4280    2.7260 -215.9840 O.2       5 ALP1        0.0000 
     12 Zn         20.2525    2.8110 -215.5415 Zn        3 ZIC7        0.0000 
     13 Zn         19.2960    3.3940 -215.4270 Zn       11 ZIL7        0.0000 
     14 O          18.2075    3.4145 -214.7255 O.2       1 ALC1        0.0000 
     15 O          19.2960    3.3940 -215.4270 O.2       9 ALL1        0.0000 
     16 O          17.1190    3.4350 -214.0240 O.2       5 ALP1        0.0000 
     17 N          16.5585    3.3120 -221.8200 N.am      2 SEC2        0.0000 
     18 N          17.7700    2.5100 -221.7480 N.am     10 SEL2        0.0000 
     19 N          15.3470    4.1140 -221.8920 N.am      6 SEP2        0.0000 
     20 CA         18.3935    0.7595 -217.0725 C.3       4 GLC5        0.0000 
     21 CA         17.7520    1.2680 -218.8830 C.3      12 GLL5        0.0000 
     22 CA         19.0350    0.2510 -215.2620 C.3       8 GLP5        0.0000 
     23 CA         14.7885   -1.1655 -218.9280 C.3       4 GLC5        0.0000 
     24 CA         16.6740   -1.0330 -218.7110 C.3      12 GLL5        0.0000 
     25 CA         12.9030   -1.2980 -219.1450 C.3       8 GLP5        0.0000 
     26 CA         15.2325   -2.1715 -217.7920 C.3       4 GLC5        0.0000 
     27 CA         17.0050   -2.5200 -218.8290 C.3      12 GLL5        0.0000 
     28 CA         13.4600   -1.8230 -216.7550 C.3       8 GLP5        0.0000 
     29 CA         17.2310   -2.1585 -216.9055 C.3       4 GLC5        0.0000 
     30 CA         17.4570   -1.7970 -214.9820 C.3       8 GLP5        0.0000 
     31 CA         15.4260   -1.5505 -221.1295 C.3       4 GLC5        0.0000 
     32 CA         16.6950   -3.0950 -220.1710 C.3      12 GLL5        0.0000 
     33 CA         14.1570   -0.0060 -222.0880 C.3       8 GLP5        0.0000 
     34 CA         16.7180   -4.5910 -221.1910 C.3       4 GLC5        0.0000 
     35 CA         16.7410   -6.0870 -222.2110 C.3       8 GLP5        0.0000 
     36 CA         14.8255   -3.7670 -221.0770 C.3       4 GLC5        0.0000 
     37 CA         12.9560   -4.4390 -221.9830 C.3       8 GLP5        0.0000 
     38 CA         14.7990   -2.1965 -219.6580 C.3       4 GLC5        0.0000 
     39 O          20.6235    0.3920 -220.7770 O.2       1 ALC1        0.0000 
     40 O          19.5530    1.1620 -221.7750 O.2       9 ALL1        0.0000 
     41 O          21.6940   -0.3780 -219.7790 O.2       5 ALP1        0.0000 
     42 CA         22.0035    0.0130 -222.6705 C.3       4 GLC5        0.0000 
     43 CA         20.7560    1.2740 -223.9860 C.3      12 GLL5        0.0000 
     44 CA         23.2510   -1.2480 -221.3550 C.3       8 GLP5        0.0000 
     45 CA         21.1015    4.1870 -222.3685 C.3       4 GLC5        0.0000 
     46 CA         21.1110    2.7060 -223.6390 C.3      12 GLL5        0.0000 
     47 CA         21.0920    5.6680 -221.0980 C.3       8 GLP5        0.0000 
     48 CA         20.0120    1.4940 -227.4330 C.3       4 GLC5        0.0000 
     49 CA         20.4510    1.1710 -225.4840 C.3      12 GLL5        0.0000 
     50 CA         19.5730    1.8170 -229.3820 C.3       8 GLP5        0.0000 
     51 N          21.2760   -1.8995 -221.9055 N.am      2 SEC2        0.0000 
     52 N          20.2230   -1.4320 -222.5230 N.am     10 SEL2        0.0000 
     53 N          22.3290   -2.3670 -221.2880 N.am      6 SEP2        0.0000 
     54 O          19.8310   -5.6100 -223.8025 O.2       1 ALC1        0.0000 
     55 O          19.2830   -4.8310 -224.8310 O.2       9 ALL1        0.0000 
     56 O          20.3790   -6.3890 -222.7740 O.2       5 ALP1        0.0000 
     57 CA         19.9887    4.2272 -220.2165 C.3       4 GLC5        0.0000 
     58 CA         18.8930    2.0570 -219.6340 C.3      12 GLL5        0.0000 
     59 CA         17.9438   -0.8300 -217.2243 C.3       4 GLC5        0.0000 
     60 CA         17.7210   -0.1870 -219.3880 C.3      12 GLL5        0.0000 
     61 CA         18.6900   -1.0500 -215.3990 C.3       8 GLP5        0.0000 
     62 CA         15.8521    0.5699 -220.2476 C.3       4 GLC5        0.0000 
     63 CA         14.4990    1.3860 -221.5720 C.3       8 GLP5        0.0000 
     64 CA         18.3060   -4.0873 -219.4380 C.3       4 GLC5        0.0000 
     65 CA         19.7620   -5.3670 -219.3760 C.3       8 GLP5        0.0000 
     66 CA         16.0345   -4.2688 -218.7770 C.3       4 GLC5        0.0000 
     67 CA         15.2190   -5.7300 -218.0540 C.3       8 GLP5        0.0000 
     68 CA         15.5850   -0.6110 -223.5550 C.3       4 GLC5        0.0000 
     69 CA         16.6010   -1.7740 -225.3130 C.3      12 GLL5        0.0000 
     70 CA         17.5751   -4.6587 -223.3781 C.3       4 GLC5        0.0000 
     71 CA         18.2830   -2.8300 -223.9510 C.3      12 GLL5        0.0000 
@<TRIPOS>BOND
@<TRIPOS>SUBSTRUCTURE
     1 ALC1        9 GROUP        1 X    ALC  0     ROOT ALC X 1
     2 SEC2        4 GROUP        1 X    SEC  0     **** SEC X 2
     3 ZIC7        1 GROUP        1 X    ZIC  0     **** ZIC X 5
     4 GLC5       20 GROUP        1 X    GLC  0     **** GLC X 6
     5 ALP1       11 GROUP        1 Y    ALP  0     ROOT ALP Y 8
     6 SEP2        6 GROUP        1 Y    SEP  0     **** SEP Y 9
     7 ZIP7        3 GROUP        1 Y    ZIP  0     **** ZIP Y 12
     8 GLP5       22 GROUP        1 Y    GLP  0     **** GLP Y 13
     9 ALL1       10 GROUP        1 Z    ALL  0     ROOT ALL Z 15
    10 SEL2        5 GROUP        1 Z    SEL  0     **** SEL Z 16
    11 ZIL7        2 GROUP        1 Z    ZIL  0     **** ZIL Z 19
    12 GLL5       21 GROUP        1 Z    GLL  0     **** GLL Z 20
@<TRIPOS>SET

