#    Name: 2okl_BB2_1_ligand
#    Modification time : Tue Mar 25 22:52:22 2014

@<TRIPOS>MOLECULE
2okl_BB2_1_ligand
   62    62     1     0     0
SMALL
NO_CHARGES


@<TRIPOS>ATOM
      1 C5         18.8780    3.5160 -219.0360 C.3       1 BB2401      0.0000 
      2 C3         19.5610    3.4700 -217.6580 C.2       1 BB2401      0.0000 
      3 O4         20.8090    3.4480 -217.6470 O.2       1 BB2401      0.0000 
      4 N1         18.8340    3.4330 -216.5610 N.am      1 BB2401      0.0000 
      5 O2         19.2960    3.3940 -215.4270 O.3       1 BB2401      0.0000 
      6 C6         18.8930    2.0570 -219.6340 C.3       1 BB2401      0.0000 
      7 C12        18.6720    1.9380 -221.1570 C.2       1 BB2401      0.0000 
      8 O13        17.7700    2.5100 -221.7480 O.2       1 BB2401      0.0000 
      9 C7         17.7520    1.2680 -218.8830 C.3       1 BB2401      0.0000 
     10 C8         17.7210   -0.1870 -219.3880 C.3       1 BB2401      0.0000 
     11 C9         16.6740   -1.0330 -218.7110 C.3       1 BB2401      0.0000 
     12 C10        17.0050   -2.5200 -218.8290 C.3       1 BB2401      0.0000 
     13 C11        16.6950   -3.0950 -220.1710 C.3       1 BB2401      0.0000 
     14 N14        19.5530    1.1620 -221.7750 N.am      1 BB2401      0.0000 
     15 C15        19.5200    0.7650 -223.1850 C.3       1 BB2401      0.0000 
     16 C16        20.7560    1.2740 -223.9860 C.3       1 BB2401      0.0000 
     17 C18        21.1110    2.7060 -223.6390 C.3       1 BB2401      0.0000 
     18 C17        20.4510    1.1710 -225.4840 C.3       1 BB2401      0.0000 
     19 C19        19.4190   -0.7810 -223.1840 C.2       1 BB2401      0.0000 
     20 O20        20.2230   -1.4320 -222.5230 O.2       1 BB2401      0.0000 
     21 N21        18.4500   -1.3710 -223.9040 N.am      1 BB2401      0.0000 
     22 C22        18.2830   -2.8300 -223.9510 C.3       1 BB2401      0.0000 
     23 C23        17.4250   -0.6580 -224.7310 C.3       1 BB2401      0.0000 
     24 C24        16.6010   -1.7740 -225.3130 C.3       1 BB2401      0.0000 
     25 C25        16.8420   -2.9760 -224.4460 C.3       1 BB2401      0.0000 
     26 C26        19.2560   -3.5580 -224.8920 C.3       1 BB2401      0.0000 
     27 O27        19.2830   -4.8310 -224.8310 O.3       1 BB2401      0.0000 
     28 H          19.4245    4.1584 -219.6947 H         1 BB2401      0.0000 
     29 H          17.8601    3.8290 -218.9303 H         1 BB2401      0.0000 
     30 H          17.7476    3.4388 -216.7125 H         1 BB2401      0.0000 
     31 H          19.8203    1.5865 -219.3532 H         1 BB2401      0.0000 
     32 H          16.8125    1.7481 -219.0927 H         1 BB2401      0.0000 
     33 H          17.9648    1.2849 -217.8287 H         1 BB2401      0.0000 
     34 H          18.7159   -0.6304 -219.2286 H         1 BB2401      0.0000 
     35 H          17.5412   -0.1732 -220.4740 H         1 BB2401      0.0000 
     36 H          15.6992   -0.8503 -219.1692 H         1 BB2401      0.0000 
     37 H          16.6125   -0.7673 -217.6530 H         1 BB2401      0.0000 
     38 H          16.4432   -3.0650 -218.0498 H         1 BB2401      0.0000 
     39 H          18.0770   -2.6575 -218.6018 H         1 BB2401      0.0000 
     40 H          20.3893    0.7599 -221.2363 H         1 BB2401      0.0000 
     41 H          18.6215    1.1432 -223.6531 H         1 BB2401      0.0000 
     42 H          21.5886    0.6290 -223.7656 H         1 BB2401      0.0000 
     43 H          18.3278   -3.2427 -222.9696 H         1 BB2401      0.0000 
     44 H          17.8985   -0.1097 -225.5126 H         1 BB2401      0.0000 
     45 H          16.8158   -0.0410 -224.1115 H         1 BB2401      0.0000 
     46 H          16.9219   -1.9776 -226.3198 H         1 BB2401      0.0000 
     47 H          15.5585   -1.5081 -225.2899 H         1 BB2401      0.0000 
     48 H          16.1795   -2.9704 -223.6080 H         1 BB2401      0.0000 
     49 H          16.7558   -3.8730 -225.0197 H         1 BB2401      0.0000 
     50 H          20.2682   -3.0534 -224.6921 H         1 BB2401      0.0000 
     51 H          19.0049   -3.1396 -225.9317 H         1 BB2401      0.0000 
     52 H          17.2099   -2.6404 -220.8978 H         1 BB2401      0.0000 
     53 H          16.9183   -4.0686 -220.2185 H         1 BB2401      0.0000 
     54 H          15.7254   -3.0053 -220.3985 H         1 BB2401      0.0000 
     55 H          21.3329    2.8091 -222.6694 H         1 BB2401      0.0000 
     56 H          21.9035    3.0281 -224.1569 H         1 BB2401      0.0000 
     57 H          20.3576    3.3335 -223.8356 H         1 BB2401      0.0000 
     58 H          21.2184    1.4872 -226.0418 H         1 BB2401      0.0000 
     59 H          20.2566    0.2296 -225.7596 H         1 BB2401      0.0000 
     60 H          19.6563    1.7214 -225.7399 H         1 BB2401      0.0000 
     61 H          18.6244    3.8680 -214.8576 H         1 BB2401      0.0000 
     62 H          19.2885   -5.0431 -223.8537 H         1 BB2401      0.0000 
@<TRIPOS>BOND
     1    2    1 1    
     2    6    1 1    
     3   28    1 1    
     4   29    1 1    
     5    3    2 2    
     6    4    2 am   
     7    5    4 1    
     8   30    4 1    
     9   61    5 1    
    10    7    6 1    
    11    9    6 1    
    12   31    6 1    
    13    8    7 2    
    14   14    7 am   
    15   10    9 1    
    16   32    9 1    
    17   33    9 1    
    18   11   10 1    
    19   34   10 1    
    20   35   10 1    
    21   12   11 1    
    22   36   11 1    
    23   37   11 1    
    24   13   12 1    
    25   38   12 1    
    26   39   12 1    
    27   52   13 1    
    28   53   13 1    
    29   54   13 1    
    30   15   14 1    
    31   40   14 1    
    32   16   15 1    
    33   19   15 1    
    34   41   15 1    
    35   17   16 1    
    36   18   16 1    
    37   42   16 1    
    38   55   17 1    
    39   56   17 1    
    40   57   17 1    
    41   58   18 1    
    42   59   18 1    
    43   60   18 1    
    44   20   19 2    
    45   21   19 am   
    46   22   21 1    
    47   23   21 1    
    48   25   22 1    
    49   26   22 1    
    50   43   22 1    
    51   24   23 1    
    52   44   23 1    
    53   45   23 1    
    54   25   24 1    
    55   46   24 1    
    56   47   24 1    
    57   48   25 1    
    58   49   25 1    
    59   27   26 1    
    60   50   26 1    
    61   51   26 1    
    62   62   27 1    
@<TRIPOS>SUBSTRUCTURE
     1 BB2401      1 GROUP   
@<TRIPOS>SET

