#    Name: 4o1z_MXM_2_INTS_M
#    Modification time : Tue Mar 25 13:29:18 2014

@<TRIPOS>MOLECULE
4o1z_MXM_2_INTS_M
   59     0     6     0     0
SMALL
NO_CHARGES


@<TRIPOS>ATOM
      1 CA        238.0625  108.3580   48.2125 C.3       2 GLC5        0.0000 
      2 CA        239.4820  109.3740   48.0240 C.3       6 GLL5        0.0000 
      3 CA        236.6430  107.3420   48.4010 C.3       4 GLP5        0.0000 
      4 CA        238.9890  109.9140   49.4960 C.3       2 GLC5        0.0000 
      5 CA        238.4960  110.4540   50.9680 C.3       4 GLP5        0.0000 
      6 CA        240.2580  108.4775   49.4110 C.3       2 GLC5        0.0000 
      7 CA        241.0340  107.5810   50.7980 C.3       4 GLP5        0.0000 
      8 CA        241.6960  111.3690   47.4540 C.3       2 GLC5        0.0000 
      9 CA        239.8300  111.5080   46.3310 C.3       6 GLL5        0.0000 
     10 CA        243.5620  111.2300   48.5770 C.3       4 GLP5        0.0000 
     11 CA        241.1960  111.3795   44.7085 C.3       2 GLC5        0.0000 
     12 CA        242.5620  111.2510   43.0860 C.3       4 GLP5        0.0000 
     13 CA        239.0255  109.6435   43.4165 C.3       2 GLC5        0.0000 
     14 CA        238.8570  109.4410   45.5710 C.3       6 GLL5        0.0000 
     15 CA        239.1940  109.8460   41.2620 C.3       4 GLP5        0.0000 
     16 CA        241.7000  113.4910   43.2845 C.3       2 GLC5        0.0000 
     17 CA        240.1640  114.4620   42.9650 C.3       6 GLL5        0.0000 
     18 CA        243.2360  112.5200   43.6040 C.3       4 GLP5        0.0000 
     19 CA        240.9885  112.6895   42.4370 C.3       2 GLC5        0.0000 
     20 CA        239.4150  114.1280   41.7880 C.3       6 GLL5        0.0000 
     21 CA        239.3045  111.9870   41.5250 C.3       2 GLC5        0.0000 
     22 N         238.3590  111.5320   41.5675 N.am      1 SEC2        0.0000 
     23 N         238.8880  112.8760   41.7350 N.am      5 SEL2        0.0000 
     24 N         237.8300  110.1880   41.4000 N.am      3 SEP2        0.0000 
     25 CA        237.1615  116.3965   37.4995 C.3       2 GLC5        0.0000 
     26 CA        239.1450  116.6800   38.4990 C.3       6 GLL5        0.0000 
     27 CA        235.1780  116.1130   36.5000 C.3       4 GLP5        0.0000 
     28 CA        241.8340  118.0105   39.8875 C.3       2 GLC5        0.0000 
     29 CA        240.1140  116.8740   39.4780 C.3       6 GLL5        0.0000 
     30 CA        243.5540  119.1470   40.2970 C.3       4 GLP5        0.0000 
     31 CA        238.2635  115.7460   43.9175 C.3       2 GLC5        0.0000 
     32 CA        239.7760  116.5140   44.0160 C.3       6 GLL5        0.0000 
     33 CA        236.7510  114.9780   43.8190 C.3       4 GLP5        0.0000 
     34 CA        238.9395  117.0245   45.9180 C.3       2 GLC5        0.0000 
     35 CA        238.1030  117.5350   47.8200 C.3       4 GLP5        0.0000 
     36 CA        240.5915  117.7735   45.2085 C.3       2 GLC5        0.0000 
     37 CA        241.4070  119.0330   46.4010 C.3       4 GLP5        0.0000 
     38 CA        238.3525  117.7185   43.6580 C.3       2 GLC5        0.0000 
     39 CA        236.9290  118.9230   43.3000 C.3       4 GLP5        0.0000 
     40 CA        240.8568  108.8140   45.4907 C.3       2 GLC5        0.0000 
     41 CA        239.3660  110.0270   46.6580 C.3       6 GLL5        0.0000 
     42 CA        242.6020  107.8940   44.8670 C.3       4 GLP5        0.0000 
     43 CA        237.5068  110.9641   46.5454 C.3       2 GLC5        0.0000 
     44 CA        235.7860  111.8240   47.0580 C.3       4 GLP5        0.0000 
     45 CA        238.2702  114.6365   43.0978 C.3       2 GLC5        0.0000 
     46 CA        240.1345  113.8570   39.5020 C.3       2 GLC5        0.0000 
     47 CA        240.8840  113.2130   37.8140 C.3       4 GLP5        0.0000 
     48 CA        237.7962  114.8872   41.9735 C.3       2 GLC5        0.0000 
     49 CA        239.3550  114.8740   40.5920 C.3       6 GLL5        0.0000 
     50 CA        236.4468  115.4200   38.4753 C.3       2 GLC5        0.0000 
     51 CA        238.3280  114.7190   39.6640 C.3       6 GLL5        0.0000 
     52 CA        234.6000  115.6770   37.8230 C.3       4 GLP5        0.0000 
     53 CA        239.2438  118.4875   38.5817 C.3       2 GLC5        0.0000 
     54 CA        238.8580  120.1980   38.1750 C.3       4 GLP5        0.0000 
     55 CA        240.6313  117.4800   37.7327 C.3       2 GLC5        0.0000 
     56 CA        241.6330  118.1830   36.4770 C.3       4 GLP5        0.0000 
     57 CA        239.8016  114.5673   38.3136 C.3       2 GLC5        0.0000 
     58 CA        241.4187  115.5880   39.1882 C.3       2 GLC5        0.0000 
     59 CA        242.7390  114.7240   38.3470 C.3       4 GLP5        0.0000 
@<TRIPOS>BOND
@<TRIPOS>SUBSTRUCTURE
     1 SEC2       22 GROUP        1 X    SEC  0     ROOT SEC X 2
     2 GLC5        1 GROUP        1 X    GLC  0     **** GLC X 6
     3 SEP2       24 GROUP        1 Y    SEP  0     ROOT SEP Y 9
     4 GLP5        3 GROUP        1 Y    GLP  0     **** GLP Y 13
     5 SEL2       23 GROUP        1 Z    SEL  0     ROOT SEL Z 16
     6 GLL5        2 GROUP        1 Z    GLL  0     **** GLL Z 20
@<TRIPOS>SET

