#    Name: 4o1z_MXM_2_ligand
#    Modification time : Tue Mar 25 13:29:18 2014

@<TRIPOS>MOLECULE
4o1z_MXM_2_ligand
   36    38     1     0     0
SMALL
NO_CHARGES


@<TRIPOS>ATOM
      1 CAW       239.4820  109.3740   48.0240 C.3       1 MXM807      0.0000 
      2 CAV       239.3660  110.0270   46.6580 C.2       1 MXM807      0.0000 
      3 SAT       239.8300  111.5080   46.3310 S.3       1 MXM807      0.0000 
      4 CAU       238.8570  109.4410   45.5710 C.2       1 MXM807      0.0000 
      5 NAS       238.8800  110.2470   44.4950 N.2       1 MXM807      0.0000 
      6 CAR       239.3950  111.4550   44.7410 C.2       1 MXM807      0.0000 
      7 NAP       239.5390  112.4040   43.8070 N.am      1 MXM807      0.0000 
      8 CAN       240.1050  113.6070   44.0710 C.2       1 MXM807      0.0000 
      9 OAQ       240.6800  113.9090   45.1180 O.2       1 MXM807      0.0000 
     10 CAG       240.1640  114.4620   42.9650 C.2       1 MXM807      0.0000 
     11 CAC       239.4150  114.1280   41.7880 C.2       1 MXM807      0.0000 
     12 OAH       238.8880  112.8760   41.7350 O.3       1 MXM807      0.0000 
     13 CAA       239.3550  114.8740   40.5920 C.ar      1 MXM807      0.0000 
     14 CAD       238.3280  114.7190   39.6640 C.ar      1 MXM807      0.0000 
     15 CAI       238.2590  115.6070   38.5910 C.ar      1 MXM807      0.0000 
     16 CAM       239.1450  116.6800   38.4990 C.ar      1 MXM807      0.0000 
     17 CAF       240.1140  116.8740   39.4780 C.ar      1 MXM807      0.0000 
     18 CAB       240.0830  116.0300   40.5810 C.ar      1 MXM807      0.0000 
     19 SAE       241.1710  115.9460   41.7270 S.o2      1 MXM807      0.0000 
     20 OAK       241.8570  117.3010   41.7770 O.2       1 MXM807      0.0000 
     21 OAL       242.2370  114.8900   41.3960 O.2       1 MXM807      0.0000 
     22 NAJ       240.6580  115.7470   43.1050 N.pl3     1 MXM807      0.0000 
     23 CAO       239.7760  116.5140   44.0160 C.3       1 MXM807      0.0000 
     24 H         238.4997  108.5124   45.5544 H         1 MXM807      0.0000 
     25 H         239.1994  112.2136   42.8210 H         1 MXM807      0.0000 
     26 H         237.6426  113.9743   39.7661 H         1 MXM807      0.0000 
     27 H         237.5461  115.4690   37.8587 H         1 MXM807      0.0000 
     28 H         239.0805  117.3297   37.7035 H         1 MXM807      0.0000 
     29 H         240.8111  117.5989   39.3897 H         1 MXM807      0.0000 
     30 H         240.4316  109.3277   48.3341 H         1 MXM807      0.0000 
     31 H         238.9704  109.8769   48.7207 H         1 MXM807      0.0000 
     32 H         239.1292  108.4383   48.0195 H         1 MXM807      0.0000 
     33 H         239.7251  116.0958   44.9229 H         1 MXM807      0.0000 
     34 H         240.0991  117.4518   44.1434 H         1 MXM807      0.0000 
     35 H         238.8408  116.5711   43.6666 H         1 MXM807      0.0000 
     36 H         239.4117  112.4048   41.0253 H         1 MXM807      0.0000 
@<TRIPOS>BOND
     1    2    1 1    
     2   30    1 1    
     3   31    1 1    
     4   32    1 1    
     5    3    2 1    
     6    4    2 2    
     7    6    3 1    
     8    5    4 1    
     9   24    4 1    
    10    6    5 2    
    11    7    6 1    
    12    8    7 am   
    13   25    7 1    
    14    9    8 2    
    15   10    8 1    
    16   11   10 2    
    17   22   10 1    
    18   12   11 1    
    19   13   11 1    
    20   36   12 1    
    21   14   13 ar   
    22   18   13 ar   
    23   15   14 ar   
    24   26   14 1    
    25   16   15 ar   
    26   27   15 1    
    27   17   16 ar   
    28   28   16 1    
    29   18   17 ar   
    30   29   17 1    
    31   19   18 1    
    32   20   19 2    
    33   21   19 2    
    34   22   19 1    
    35   23   22 1    
    36   33   23 1    
    37   34   23 1    
    38   35   23 1    
@<TRIPOS>SUBSTRUCTURE
     1 MXM807      1 GROUP   
@<TRIPOS>SET

