#    Name: 1B3D_1_CAVITY_N1_6.mol2
#    Modification time : Mon Mar 10 14:09:56 2014

@<TRIPOS>MOLECULE
1B3D_1_CAVITY_N1_6.mol2
   41     0     5     0     0
SMALL
NO_CHARGES


@<TRIPOS>ATOM
      1 CA        -18.7255   28.7820   -5.6497 C.3       4 GLY6        0.0000 
      2 DU        -17.8195   27.5895   -5.5640 H         5 CUB7        0.0000 
      3 O         -18.1691   29.1073   -7.0042 O.2       1 ALA2        0.0000 
      4 DU        -17.2632   27.9149   -6.9185 H         5 CUB7        0.0000 
      5 DU        -16.3573   26.7224   -6.8328 H         5 CUB7        0.0000 
      6 CZ        -16.7068   28.2402   -8.2730 C.ar      3 PHE5        0.0000 
      7 CZ        -15.8009   27.0478   -8.1873 C.ar      3 PHE5        0.0000 
      8 OD1       -17.8741   27.7887   -2.2163 O.3       2 ASP3        0.0000 
      9 N         -16.9681   26.5962   -2.1306 N.2       1 ALA2        0.0000 
     10 CZ        -16.0622   25.4038   -2.0449 C.ar      3 PHE5        0.0000 
     11 CA        -17.3177   28.1140   -3.5708 C.3       4 GLY6        0.0000 
     12 DU        -16.4118   26.9216   -3.4851 H         5 CUB7        0.0000 
     13 CZ        -15.5058   25.7291   -3.3994 C.ar      3 PHE5        0.0000 
     14 CZ        -14.5999   24.5367   -3.3137 C.ar      3 PHE5        0.0000 
     15 CA        -16.7614   28.4394   -4.9253 C.3       4 GLY6        0.0000 
     16 DU        -15.8554   27.2469   -4.8396 H         5 CUB7        0.0000 
     17 DU        -14.9495   26.0545   -4.7539 H         5 CUB7        0.0000 
     18 O         -17.1109   29.9572   -6.3654 O.2       1 ALA2        0.0000 
     19 CA        -16.2050   28.7647   -6.2797 C.3       4 GLY6        0.0000 
     20 DU        -15.2991   27.5723   -6.1941 H         5 CUB7        0.0000 
     21 DU        -14.3931   26.3798   -6.1084 H         5 CUB7        0.0000 
     22 O         -16.5546   30.2825   -7.7199 O.2       1 ALA2        0.0000 
     23 CZ        -15.6487   29.0901   -7.6342 C.ar      3 PHE5        0.0000 
     24 CZ        -14.7427   27.8976   -7.5485 C.ar      3 PHE5        0.0000 
     25 OD1       -16.8159   28.6385   -1.5775 O.3       2 ASP3        0.0000 
     26 N         -15.9099   27.4461   -1.4918 N.2       1 ALA2        0.0000 
     27 CZ        -15.0040   26.2536   -1.4061 C.ar      3 PHE5        0.0000 
     28 CA        -16.2595   28.9639   -2.9320 C.3       4 GLY6        0.0000 
     29 N         -15.3536   27.7714   -2.8463 N.2       1 ALA2        0.0000 
     30 CZ        -14.4476   26.5790   -2.7606 C.ar      3 PHE5        0.0000 
     31 CA        -15.7032   29.2892   -4.2865 C.3       4 GLY6        0.0000 
     32 N         -14.7972   28.0968   -4.2008 N.2       1 ALA2        0.0000 
     33 DU        -13.8913   26.9043   -4.1151 H         5 CUB7        0.0000 
     34 CA        -15.1468   29.6145   -5.6410 C.3       4 GLY6        0.0000 
     35 N         -14.2409   28.4221   -5.5553 N.2       1 ALA2        0.0000 
     36 CZ        -14.5905   29.9399   -6.9955 C.ar      3 PHE5        0.0000 
     37 CA        -14.8517   28.2959   -0.8531 C.3       4 GLY6        0.0000 
     38 O         -15.2013   29.8137   -2.2932 O.2       1 ALA2        0.0000 
     39 N         -14.2954   28.6212   -2.2075 N.2       1 ALA2        0.0000 
     40 N         -13.3895   27.4288   -2.1219 N.2       1 ALA2        0.0000 
     41 N         -14.0886   30.4644   -5.0022 N.2       1 ALA2        0.0000 
@<TRIPOS>BOND
@<TRIPOS>SUBSTRUCTURE
     1 ALA2        3 GROUP   
     2 ASP3        8 GROUP   
     3 PHE5        6 GROUP   
     4 GLY6        1 GROUP   
     5 CUB7        2 GROUP   
@<TRIPOS>SET

