#    Name: 1b3d_S27_1_INTS_M
#    Modification time : Mon Mar 24 19:16:20 2014

@<TRIPOS>MOLECULE
1b3d_S27_1_INTS_M
   53     0    12     0     0
SMALL
NO_CHARGES


@<TRIPOS>ATOM
      1 CA        -23.3035   27.9395    4.6410 C.3       4 GLC5        0.0000 
      2 CA        -21.8300   29.5540    4.2110 C.3      12 GLL5        0.0000 
      3 CA        -24.7770   26.3250    5.0710 C.3       8 GLP5        0.0000 
      4 CA        -23.3745   32.5770    2.0245 C.3       4 GLC5        0.0000 
      5 CA        -21.5120   31.6270    2.2440 C.3      12 GLL5        0.0000 
      6 CA        -25.2370   33.5270    1.8050 C.3       8 GLP5        0.0000 
      7 CA        -19.6425   30.8465    2.9670 C.3       4 GLC5        0.0000 
      8 CA        -17.7730   30.0660    3.6900 C.3       8 GLP5        0.0000 
      9 N         -23.0655   32.1790   -1.4430 N.am      2 SEC2        0.0000 
     10 N         -22.2880   31.3090   -0.7260 N.am     10 SEL2        0.0000 
     11 N         -23.8430   33.0490   -2.1600 N.am      6 SEP2        0.0000 
     12 N         -21.7910   32.6980   -1.3300 N.am      2 SEC2        0.0000 
     13 N         -21.2940   34.0870   -1.9340 N.am      6 SEP2        0.0000 
     14 CA        -24.4195   30.7510   -1.7745 C.3       4 GLC5        0.0000 
     15 CA        -24.4920   30.1970    0.2040 C.3      12 GLL5        0.0000 
     16 CA        -24.3470   31.3050   -3.7530 C.3       8 GLP5        0.0000 
     17 CA        -24.8815   31.9385    0.2470 C.3       4 GLC5        0.0000 
     18 CA        -25.2710   33.6800    0.2900 C.3       8 GLP5        0.0000 
     19 CA        -21.3890   30.1800   -2.9605 C.3       4 GLC5        0.0000 
     20 CA        -20.7930   28.8990   -1.3380 C.3      12 GLL5        0.0000 
     21 CA        -21.9850   31.4610   -4.5830 C.3       8 GLP5        0.0000 
     22 O         -19.1055   31.1320   -1.3970 O.2       1 ALC1        0.0000 
     23 O         -18.8530   30.0530   -0.3340 O.2       9 ALL1        0.0000 
     24 O         -19.3580   32.2110   -2.4600 O.2       5 ALP1        0.0000 
     25 Zn        -17.6210   29.0965    0.8360 Zn        3 ZIC7        0.0000 
     26 Zn        -17.5710   29.8190    0.2350 Zn       11 ZIL7        0.0000 
     27 Zn        -17.6710   28.3740    1.4370 Zn        7 ZIP7        0.0000 
     28 O         -16.7210   31.2360    0.2180 O.2       1 ALC1        0.0000 
     29 O         -17.5710   29.8190    0.2350 O.2       9 ALL1        0.0000 
     30 O         -15.8710   32.6530    0.2010 O.2       5 ALP1        0.0000 
     31 O         -17.6860   31.1835    0.7400 O.2       1 ALC1        0.0000 
     32 O         -17.8010   32.5480    1.2450 O.2       5 ALP1        0.0000 
     33 Zn        -18.5670   28.2450    1.0040 Zn        3 ZIC7        0.0000 
     34 Zn        -19.4630   28.1160    0.5710 Zn       11 ZIL7        0.0000 
     35 CA        -20.5905   30.1875   -4.2855 C.3       4 GLC5        0.0000 
     36 CA        -19.1960   28.9140   -3.9880 C.3      12 GLL5        0.0000 
     37 CA        -18.0960   30.3970   -4.2140 C.3       4 GLC5        0.0000 
     38 CA        -16.9960   31.8800   -4.4400 C.3       8 GLP5        0.0000 
     39 CA        -21.6890   27.2985    3.6338 C.3       4 GLC5        0.0000 
     40 CA        -22.1200   29.2620    2.8140 C.3      12 GLL5        0.0000 
     41 CA        -21.4030   25.1890    3.7550 C.3       8 GLP5        0.0000 
     42 CA        -23.6545   30.2905    4.1442 C.3       4 GLC5        0.0000 
     43 CA        -25.3340   31.1730    4.7760 C.3       8 GLP5        0.0000 
     44 CA        -23.3182   31.2778    4.4600 C.3       4 GLC5        0.0000 
     45 CA        -21.3850   30.8630    4.6440 C.3      12 GLL5        0.0000 
     46 CA        -21.8040   33.5628    3.6355 C.3       4 GLC5        0.0000 
     47 CA        -21.2200   31.9020    3.6440 C.3      12 GLL5        0.0000 
     48 CA        -22.2420   35.3610    4.3270 C.3       8 GLP5        0.0000 
     49 CA        -19.6669   30.7231    4.5174 C.3       4 GLC5        0.0000 
     50 CA        -17.9200   30.3910    4.9990 C.3       8 GLP5        0.0000 
     51 CA        -24.1595   28.3845   -4.0147 C.3       4 GLC5        0.0000 
     52 CA        -24.3390   27.5030   -2.4030 C.3      12 GLL5        0.0000 
     53 CA        -23.4270   29.5690   -5.2650 C.3       8 GLP5        0.0000 
@<TRIPOS>BOND
@<TRIPOS>SUBSTRUCTURE
     1 ALC1       22 GROUP        1 X    ALC  0     ROOT ALC X 1
     2 SEC2        9 GROUP        1 X    SEC  0     **** SEC X 2
     3 ZIC7       25 GROUP        1 X    ZIC  0     **** ZIC X 5
     4 GLC5        1 GROUP        1 X    GLC  0     **** GLC X 6
     5 ALP1       24 GROUP        1 Y    ALP  0     ROOT ALP Y 8
     6 SEP2       11 GROUP        1 Y    SEP  0     **** SEP Y 9
     7 ZIP7       27 GROUP        1 Y    ZIP  0     **** ZIP Y 12
     8 GLP5        3 GROUP        1 Y    GLP  0     **** GLP Y 13
     9 ALL1       23 GROUP        1 Z    ALL  0     ROOT ALL Z 15
    10 SEL2       10 GROUP        1 Z    SEL  0     **** SEL Z 16
    11 ZIL7       26 GROUP        1 Z    ZIL  0     **** ZIL Z 19
    12 GLL5        2 GROUP        1 Z    GLL  0     **** GLL Z 20
@<TRIPOS>SET

