#    Name: 1b3d_S27_1_ligand
#    Modification time : Mon Mar 24 19:16:20 2014

@<TRIPOS>MOLECULE
1b3d_S27_1_ligand
   53    54     1     0     0
SMALL
NO_CHARGES


@<TRIPOS>ATOM
      1 C1        -21.9780   30.3140    1.8130 C.ar      1 S27401      0.0000 
      2 C2        -22.1200   29.2620    2.8140 C.ar      1 S27401      0.0000 
      3 C3        -21.8300   29.5540    4.2110 C.ar      1 S27401      0.0000 
      4 C4        -21.3850   30.8630    4.6440 C.ar      1 S27401      0.0000 
      5 C5        -21.2200   31.9020    3.6440 C.ar      1 S27401      0.0000 
      6 C6        -21.5120   31.6270    2.2440 C.ar      1 S27401      0.0000 
      7 P7        -22.6440   30.1410    0.0940 P.3       1 S27401      0.0000 
      8 O8        -22.2880   31.3090   -0.7260 O.2       1 S27401      0.0000 
      9 C9        -24.4920   30.1970    0.2040 C.3       1 S27401      0.0000 
     10 N10       -22.1750   28.7580   -0.8000 N.3       1 S27401      0.0000 
     11 C11       -22.6930   27.4270   -0.3620 C.3       1 S27401      0.0000 
     12 C12       -23.8070   26.8670   -1.2180 C.ar      1 S27401      0.0000 
     13 C13       -24.3390   27.5030   -2.4030 C.ar      1 S27401      0.0000 
     14 C14       -25.4450   26.8970   -3.1260 C.ar      1 S27401      0.0000 
     15 C15       -26.0110   25.6460   -2.6490 C.ar      1 S27401      0.0000 
     16 C16       -25.4770   25.0010   -1.4610 C.ar      1 S27401      0.0000 
     17 C17       -24.3690   25.6120   -0.7400 C.ar      1 S27401      0.0000 
     18 C18       -20.7930   28.8990   -1.3380 C.3       1 S27401      0.0000 
     19 C         -19.6960   29.0180   -0.2630 C.2       1 S27401      0.0000 
     20 NA        -18.8530   30.0530   -0.3340 N.am      1 S27401      0.0000 
     21 OA        -17.5710   29.8190    0.2350 O.3       1 S27401      0.0000 
     22 OB        -19.4630   28.1160    0.5710 O.2       1 S27401      0.0000 
     23 C7        -20.5110   27.6980   -2.2630 C.3       1 S27401      0.0000 
     24 C8        -19.2300   27.6820   -3.1030 C.3       1 S27401      0.0000 
     25 C10       -19.1960   28.9140   -3.9880 C.3       1 S27401      0.0000 
     26 C23       -19.1790   26.4210   -3.9540 C.3       1 S27401      0.0000 
     27 H         -22.4157   28.3434    2.5404 H         1 S27401      0.0000 
     28 H         -21.9447   28.8116    4.9038 H         1 S27401      0.0000 
     29 H         -21.1963   31.0469    5.6054 H         1 S27401      0.0000 
     30 H         -20.9016   32.8197    3.9179 H         1 S27401      0.0000 
     31 H         -21.3892   32.3620    1.5550 H         1 S27401      0.0000 
     32 H         -23.0535   27.4992    0.6869 H         1 S27401      0.0000 
     33 H         -21.8573   26.6946   -0.3435 H         1 S27401      0.0000 
     34 H         -23.9426   28.3721   -2.7323 H         1 S27401      0.0000 
     35 H         -25.8146   27.3387   -3.9475 H         1 S27401      0.0000 
     36 H         -26.7814   25.2217   -3.1470 H         1 S27401      0.0000 
     37 H         -25.8711   24.1343   -1.1364 H         1 S27401      0.0000 
     38 H         -23.9959   25.1711    0.0800 H         1 S27401      0.0000 
     39 H         -20.7461   29.7936   -1.9716 H         1 S27401      0.0000 
     40 H         -19.0652   30.9368   -0.7446 H         1 S27401      0.0000 
     41 H         -21.3898   27.5801   -2.9557 H         1 S27401      0.0000 
     42 H         -20.5343   26.7643   -1.6356 H         1 S27401      0.0000 
     43 H         -18.3849   27.6983   -2.4423 H         1 S27401      0.0000 
     44 H         -24.8527   29.4583    0.7734 H         1 S27401      0.0000 
     45 H         -24.8146   31.0567    0.6001 H         1 S27401      0.0000 
     46 H         -24.9204   30.1097   -0.6954 H         1 S27401      0.0000 
     47 H         -18.3727   28.9414   -4.5550 H         1 S27401      0.0000 
     48 H         -19.9800   28.9478   -4.6078 H         1 S27401      0.0000 
     49 H         -19.2103   29.7575   -3.4511 H         1 S27401      0.0000 
     50 H         -18.3526   26.3853   -4.5159 H         1 S27401      0.0000 
     51 H         -19.1877   25.5935   -3.3926 H         1 S27401      0.0000 
     52 H         -19.9594   26.3612   -4.5764 H         1 S27401      0.0000 
     53 H         -17.3204   30.6828    0.6721 H         1 S27401      0.0000 
@<TRIPOS>BOND
     1    2    1 ar   
     2    6    1 ar   
     3    7    1 1    
     4    3    2 ar   
     5   27    2 1    
     6    4    3 ar   
     7   28    3 1    
     8    5    4 ar   
     9   29    4 1    
    10    6    5 ar   
    11   30    5 1    
    12   31    6 1    
    13    8    7 2    
    14    9    7 1    
    15   10    7 1    
    16   44    9 1    
    17   45    9 1    
    18   46    9 1    
    19   11   10 1    
    20   18   10 1    
    21   12   11 1    
    22   32   11 1    
    23   33   11 1    
    24   13   12 ar   
    25   17   12 ar   
    26   14   13 ar   
    27   34   13 1    
    28   15   14 ar   
    29   35   14 1    
    30   16   15 ar   
    31   36   15 1    
    32   17   16 ar   
    33   37   16 1    
    34   38   17 1    
    35   19   18 1    
    36   23   18 1    
    37   39   18 1    
    38   20   19 am   
    39   22   19 2    
    40   21   20 1    
    41   40   20 1    
    42   53   21 1    
    43   24   23 1    
    44   41   23 1    
    45   42   23 1    
    46   25   24 1    
    47   26   24 1    
    48   43   24 1    
    49   47   25 1    
    50   48   25 1    
    51   49   25 1    
    52   50   26 1    
    53   51   26 1    
    54   52   26 1    
@<TRIPOS>SUBSTRUCTURE
     1 S27401      1 GROUP   
@<TRIPOS>SET

