#    Name: 1IKI_1_CAVITY_N1_6.mol2
#    Modification time : Tue Mar 11 08:18:24 2014

@<TRIPOS>MOLECULE
1IKI_1_CAVITY_N1_6.mol2
  101     0     7     0     0
SMALL
NO_CHARGES


@<TRIPOS>ATOM
      1 N          25.4627  -17.0264   40.3786 N.2       2 ALA2        0.0000 
      2 N          25.8783  -16.9331   38.9403 N.2       2 ALA2        0.0000 
      3 N          26.2939  -16.8398   37.5021 N.2       2 ALA2        0.0000 
      4 N          24.3785  -17.9924   40.0026 N.2       2 ALA2        0.0000 
      5 OG         24.7941  -17.8991   38.5644 O.2       1 SER1        0.0000 
      6 CA         25.2097  -17.8059   37.1261 C.3       6 GLY6        0.0000 
      7 CA         22.4631  -19.1450   42.5031 C.3       6 GLY6        0.0000 
      8 CA         22.8787  -19.0517   41.0649 C.3       6 GLY6        0.0000 
      9 CA         24.1255  -18.7719   36.7502 C.3       6 GLY6        0.0000 
     10 CA         24.5412  -18.6786   35.3119 C.3       6 GLY6        0.0000 
     11 N          27.0971  -13.8574   39.4920 N.2       2 ALA2        0.0000 
     12 N          25.5973  -14.9167   40.5543 N.2       2 ALA2        0.0000 
     13 N          26.0129  -14.8234   39.1161 N.2       2 ALA2        0.0000 
     14 DU         24.5131  -15.8827   40.1784 H         7 CUB7        0.0000 
     15 N          24.9287  -15.7894   38.7401 N.2       2 ALA2        0.0000 
     16 CA         25.3443  -15.6961   37.3019 C.3       6 GLY6        0.0000 
     17 CA         25.7599  -15.6028   35.8636 C.3       6 GLY6        0.0000 
     18 DU         23.0132  -16.9420   41.2406 H         7 CUB7        0.0000 
     19 DU         23.4289  -16.8487   39.8024 H         7 CUB7        0.0000 
     20 DU         23.8445  -16.7554   38.3641 H         7 CUB7        0.0000 
     21 DU         24.2601  -16.6621   36.9259 H         7 CUB7        0.0000 
     22 CA         24.6757  -16.5688   35.4876 C.3       6 GLY6        0.0000 
     23 N          21.5134  -18.0013   42.3029 N.2       2 ALA2        0.0000 
     24 CA         21.9291  -17.9080   40.8647 C.3       6 GLY6        0.0000 
     25 CA         22.3447  -17.8147   39.4264 C.3       6 GLY6        0.0000 
     26 CA         22.7603  -17.7214   37.9882 C.3       6 GLY6        0.0000 
     27 O          23.1759  -17.6281   36.5499 O.2       2 ALA2        0.0000 
     28 CA         23.5915  -17.5348   35.1117 C.3       6 GLY6        0.0000 
     29 N          20.4292  -18.9673   41.9270 N.2       2 ALA2        0.0000 
     30 N          20.8449  -18.8740   40.4887 N.2       2 ALA2        0.0000 
     31 O          22.0917  -18.5941   36.1740 O.2       2 ALA2        0.0000 
     32 CA         26.8160  -11.8409   41.1060 C.3       6 GLY6        0.0000 
     33 OG         26.1474  -12.7137   39.2918 O.2       1 SER1        0.0000 
     34 DU         24.6476  -13.7730   40.3541 H         7 CUB7        0.0000 
     35 CA         25.0633  -13.6797   38.9158 C.3       6 GLY6        0.0000 
     36 O          25.4789  -13.5864   37.4776 O.2       2 ALA2        0.0000 
     37 DU         23.9791  -14.6457   38.5399 H         7 CUB7        0.0000 
     38 O          24.3947  -14.5524   37.1016 O.2       2 ALA2        0.0000 
     39 OG         24.8103  -14.4591   35.6634 O.2       1 SER1        0.0000 
     40 DU         21.6480  -15.8916   42.4787 H         7 CUB7        0.0000 
     41 DU         22.8949  -15.6117   38.1639 H         7 CUB7        0.0000 
     42 N          23.3105  -15.5184   36.7257 N.2       2 ALA2        0.0000 
     43 OG         23.7261  -15.4251   35.2874 O.2       1 SER1        0.0000 
     44 N          20.1482  -16.9509   43.5409 N.2       2 ALA2        0.0000 
     45 N          20.5638  -16.8576   42.1027 N.2       2 ALA2        0.0000 
     46 DU         20.9794  -16.7643   40.6644 H         7 CUB7        0.0000 
     47 CZ         21.3950  -16.6710   39.2262 C.ar      5 PHE5        0.0000 
     48 CZ         21.8107  -16.5777   37.7879 C.ar      5 PHE5        0.0000 
     49 O          22.2263  -16.4844   36.3497 O.2       2 ALA2        0.0000 
     50 CA         22.6419  -16.3911   34.9114 C.3       6 GLY6        0.0000 
     51 OG         19.4796  -17.8236   41.7267 O.2       1 SER1        0.0000 
     52 OG         19.8952  -17.7303   40.2885 O.2       1 SER1        0.0000 
     53 CZ         20.3109  -17.6370   38.8502 C.ar      5 PHE5        0.0000 
     54 O          21.1421  -17.4504   35.9737 O.2       2 ALA2        0.0000 
     55 CA         25.8664  -10.6972   40.9058 C.3       6 GLY6        0.0000 
     56 OG         24.7822  -11.6632   40.5298 O.2       1 SER1        0.0000 
     57 OG         25.1978  -11.5699   39.0916 O.2       1 SER1        0.0000 
     58 DU         23.6980  -12.6292   40.1539 H         7 CUB7        0.0000 
     59 CZ         24.1136  -12.5359   38.7156 C.ar      5 PHE5        0.0000 
     60 CZ         24.5293  -12.4426   37.2774 C.ar      5 PHE5        0.0000 
     61 OG         22.6138  -13.5952   39.7779 O.2       1 SER1        0.0000 
     62 CA         23.0294  -13.5019   38.3396 C.3       6 GLY6        0.0000 
     63 N          23.4451  -13.4086   36.9014 N.2       2 ALA2        0.0000 
     64 DU         21.1140  -14.6545   40.8402 H         7 CUB7        0.0000 
     65 OG         21.5296  -14.5612   39.4019 O.2       1 SER1        0.0000 
     66 N          21.9452  -14.4679   37.9637 N.2       2 ALA2        0.0000 
     67 N          19.1986  -15.8071   43.3407 N.2       2 ALA2        0.0000 
     68 OG         19.6142  -15.7138   41.9025 O.2       1 SER1        0.0000 
     69 DU         20.0298  -15.6205   40.4642 H         7 CUB7        0.0000 
     70 DU         20.4454  -15.5272   39.0260 H         7 CUB7        0.0000 
     71 N          20.8610  -15.4340   37.5877 N.2       2 ALA2        0.0000 
     72 OG         18.1144  -16.7731   42.9647 O.2       1 SER1        0.0000 
     73 OG         18.9456  -16.5865   40.0882 O.2       1 SER1        0.0000 
     74 CZ         19.3612  -16.4933   38.6500 C.ar      5 PHE5        0.0000 
     75 CZ         19.7769  -16.4000   37.2117 C.ar      5 PHE5        0.0000 
     76 CA         23.8326  -10.5195   40.3296 C.3       6 GLY6        0.0000 
     77 CA         22.7484  -11.4855   39.9536 C.3       6 GLY6        0.0000 
     78 OD1        19.7488  -13.6041   42.0782 O.3       3 ASP3        0.0000 
     79 OG         20.1644  -13.5108   40.6399 O.2       1 SER1        0.0000 
     80 NZ         18.2489  -14.6634   43.1405 N.2       4 LYS4        0.0000 
     81 O          18.6646  -14.5701   41.7022 O.2       2 ALA2        0.0000 
     82 DU         19.0802  -14.4768   40.2640 H         7 CUB7        0.0000 
     83 OG         19.4958  -14.3835   38.8257 O.2       1 SER1        0.0000 
     84 OG         19.9114  -14.2902   37.3875 O.2       1 SER1        0.0000 
     85 O          17.5804  -15.5361   41.3263 O.2       2 ALA2        0.0000 
     86 O          17.9960  -15.4428   39.8880 O.2       2 ALA2        0.0000 
     87 CZ         18.4116  -15.3495   38.4498 C.ar      5 PHE5        0.0000 
     88 CZ         18.8272  -15.2562   37.0115 C.ar      5 PHE5        0.0000 
     89 CZ         17.7149  -13.4264   41.5020 C.ar      5 PHE5        0.0000 
     90 OD1        18.1306  -13.3331   40.0637 O.3       3 ASP3        0.0000 
     91 OG         18.5462  -13.2398   38.6255 O.2       1 SER1        0.0000 
     92 O          17.0464  -14.2991   39.6878 O.2       2 ALA2        0.0000 
     93 O          17.4620  -14.2058   38.2495 O.2       2 ALA2        0.0000 
     94 CZ         17.8776  -14.1125   36.8113 C.ar      5 PHE5        0.0000 
     95 CZ         16.3778  -15.1718   37.8736 C.ar      5 PHE5        0.0000 
     96 OG         17.5966  -12.0960   38.4253 O.2       1 SER1        0.0000 
     97 N          16.0967  -13.1553   39.4876 N.2       2 ALA2        0.0000 
     98 OG         16.5124  -13.0621   38.0493 O.2       1 SER1        0.0000 
     99 OG         16.9280  -12.9688   36.6111 O.2       1 SER1        0.0000 
    100 N          15.4282  -14.0281   37.6733 N.2       2 ALA2        0.0000 
    101 CZ         15.8438  -13.9348   36.2351 C.ar      5 PHE5        0.0000 
@<TRIPOS>BOND
@<TRIPOS>SUBSTRUCTURE
     1 SER1        5 GROUP   
     2 ALA2        1 GROUP   
     3 ASP3       78 GROUP   
     4 LYS4       80 GROUP   
     5 PHE5       47 GROUP   
     6 GLY6        6 GROUP   
     7 CUB7       14 GROUP   
@<TRIPOS>SET

