#    Name: 1iki_REY_1_INTS_M
#    Modification time : Tue Mar 25 07:10:26 2014

@<TRIPOS>MOLECULE
1iki_REY_1_INTS_M
   33     0     9     0     0
SMALL
NO_CHARGES


@<TRIPOS>ATOM
      1 N          16.4280  -15.6055   39.7025 N.am      2 SEC2        0.0000 
      2 N          17.6660  -15.2610   39.0930 N.am      8 SEL2        0.0000 
      3 N          15.1900  -15.9500   40.3120 N.am      5 SEP2        0.0000 
      4 CA         15.6575  -12.5535   40.9615 C.3       3 GLC5        0.0000 
      5 CA         15.9470  -13.0860   39.1150 C.3       9 GLL5        0.0000 
      6 CA         15.3680  -12.0210   42.8080 C.3       6 GLP5        0.0000 
      7 CA         23.8425  -19.3965   39.1650 C.3       3 GLC5        0.0000 
      8 CA         25.4460  -18.0100   39.6840 C.3       9 GLL5        0.0000 
      9 CA         22.2390  -20.7830   38.6460 C.3       6 GLP5        0.0000 
     10 CA         26.6870  -18.9300   38.0540 C.3       3 GLC5        0.0000 
     11 CA         27.9280  -19.8500   36.4240 C.3       6 GLP5        0.0000 
     12 O          25.3030  -20.4330   39.9225 O.2       1 ALC1        0.0000 
     13 O          26.0650  -19.3480   39.7440 O.2       7 ALL1        0.0000 
     14 O          24.5410  -21.5180   40.1010 O.2       4 ALP1        0.0000 
     15 O          26.9845  -19.3190   38.7570 O.2       1 ALC1        0.0000 
     16 O          27.9040  -19.2900   37.7700 O.2       4 ALP1        0.0000 
     17 N          24.7890  -14.1500   34.1845 N.am      2 SEC2        0.0000 
     18 N          24.1860  -14.9750   34.9530 N.am      8 SEL2        0.0000 
     19 N          25.3920  -13.3250   33.4160 N.am      5 SEP2        0.0000 
     20 N          26.2260  -13.5780   36.3380 N.am      2 SEC2        0.0000 
     21 N          25.0720  -14.2630   36.7800 N.am      8 SEL2        0.0000 
     22 N          27.3800  -12.8930   35.8960 N.am      5 SEP2        0.0000 
     23 CA         20.3942  -18.2190   37.9240 C.3       3 GLC5        0.0000 
     24 CA         21.3270  -16.8820   37.6600 C.3       9 GLL5        0.0000 
     25 CA         20.0230  -19.9050   37.8080 C.3       6 GLP5        0.0000 
     26 CA         18.5188  -16.0845   36.5825 C.3       3 GLC5        0.0000 
     27 CA         20.2040  -16.1840   38.4200 C.3       9 GLL5        0.0000 
     28 CA         17.1560  -16.5200   35.1670 C.3       6 GLP5        0.0000 
     29 CA         15.5210  -11.1103   38.2923 C.3       3 GLC5        0.0000 
     30 CA         16.5270  -12.8390   37.7460 C.3       9 GLL5        0.0000 
     31 CA         14.8050   -9.2580   38.1540 C.3       6 GLP5        0.0000 
     32 CA         17.0085  -11.3598   39.2632 C.3       3 GLC5        0.0000 
     33 CA         17.7800   -9.7570   40.0960 C.3       6 GLP5        0.0000 
@<TRIPOS>BOND
@<TRIPOS>SUBSTRUCTURE
     1 ALC1       12 GROUP        1 X    ALC  0     ROOT ALC X 1
     2 SEC2        1 GROUP        1 X    SEC  0     **** SEC X 2
     3 GLC5        4 GROUP        1 X    GLC  0     **** GLC X 6
     4 ALP1       14 GROUP        1 Y    ALP  0     ROOT ALP Y 8
     5 SEP2        3 GROUP        1 Y    SEP  0     **** SEP Y 9
     6 GLP5        6 GROUP        1 Y    GLP  0     **** GLP Y 13
     7 ALL1       13 GROUP        1 Z    ALL  0     ROOT ALL Z 15
     8 SEL2        2 GROUP        1 Z    SEL  0     **** SEL Z 16
     9 GLL5        5 GROUP        1 Z    GLL  0     **** GLL Z 20
@<TRIPOS>SET

