#    Name: 1iki_REY_1_ligand
#    Modification time : Tue Mar 25 07:10:26 2014

@<TRIPOS>MOLECULE
1iki_REY_1_ligand
   41    40     1     0     0
SMALL
NO_CHARGES


@<TRIPOS>ATOM
      1 C1         20.2040  -16.1840   38.4200 C.3       1 REY400      0.0000 
      2 C2         21.3270  -16.8820   37.6600 C.3       1 REY400      0.0000 
      3 C3         19.5590  -15.1140   37.5760 C.3       1 REY400      0.0000 
      4 C4         22.2530  -15.7680   37.1380 C.3       1 REY400      0.0000 
      5 C5         18.1810  -14.7260   38.1420 C.2       1 REY400      0.0000 
      6 N1         17.6640  -13.6920   37.4560 N.am      1 REY400      0.0000 
      7 O1         17.6660  -15.2610   39.0930 O.2       1 REY400      0.0000 
      8 C6         16.5270  -12.8390   37.7460 C.3       1 REY400      0.0000 
      9 C7         15.5610  -13.1020   36.6150 C.2       1 REY400      0.0000 
     10 C8         15.9470  -13.0860   39.1150 C.3       1 REY400      0.0000 
     11 O2         15.3830  -12.2100   35.7540 O.co2     1 REY400      0.0000 
     12 C9         23.7130  -16.2400   36.8610 C.3       1 REY400      0.0000 
     13 N3         24.4860  -16.5640   38.0170 N.am      1 REY400      0.0000 
     14 C10        24.3910  -15.0540   36.1460 C.2       1 REY400      0.0000 
     15 C11        24.8340  -17.8330   38.3220 C.2       1 REY400      0.0000 
     16 C12        25.4460  -18.0100   39.6840 C.3       1 REY400      0.0000 
     17 O3         24.6180  -18.7470   37.5610 O.2       1 REY400      0.0000 
     18 N4         26.0650  -19.3480   39.7440 N.4       1 REY400      0.0000 
     19 O4         24.1860  -14.9750   34.9530 O.co2     1 REY400      0.0000 
     20 O5         25.0720  -14.2630   36.7800 O.co2     1 REY400      0.0000 
     21 O6         14.9990  -14.2150   36.5590 O.co2     1 REY400      0.0000 
     22 H          20.6142  -15.7378   39.3291 H         1 REY400      0.0000 
     23 H          19.4555  -16.9260   38.7082 H         1 REY400      0.0000 
     24 H          20.9238  -17.4238   36.8313 H         1 REY400      0.0000 
     25 H          21.8758  -17.5162   38.3229 H         1 REY400      0.0000 
     26 H          19.4280  -15.4743   36.5558 H         1 REY400      0.0000 
     27 H          20.1904  -14.2258   37.5559 H         1 REY400      0.0000 
     28 H          22.2859  -14.9535   37.8724 H         1 REY400      0.0000 
     29 H          21.8381  -15.3615   36.2072 H         1 REY400      0.0000 
     30 H          18.1618  -13.4181   36.5096 H         1 REY400      0.0000 
     31 H          16.8421  -11.7965   37.6658 H         1 REY400      0.0000 
     32 H          23.6687  -17.0417   36.1451 H         1 REY400      0.0000 
     33 H          24.7773  -15.7673   38.6289 H         1 REY400      0.0000 
     34 H          24.6707  -17.9171   40.4401 H         1 REY400      0.0000 
     35 H          26.1950  -17.2387   39.8433 H         1 REY400      0.0000 
     36 H          16.6178  -12.9204   39.8379 H         1 REY400      0.0000 
     37 H          15.1643  -12.4915   39.2995 H         1 REY400      0.0000 
     38 H          15.6301  -14.0287   39.2195 H         1 REY400      0.0000 
     39 H          26.7765  -19.4595   39.0503 H         1 REY400      0.0000 
     40 H          26.4917  -19.5203   40.6318 H         1 REY400      0.0000 
     41 H          25.3942  -20.0746   39.5952 H         1 REY400      0.0000 
@<TRIPOS>BOND
     1    2    1 1    
     2    3    1 1    
     3   22    1 1    
     4   23    1 1    
     5    4    2 1    
     6   24    2 1    
     7   25    2 1    
     8    5    3 1    
     9   26    3 1    
    10   27    3 1    
    11   12    4 1    
    12   28    4 1    
    13   29    4 1    
    14    6    5 am   
    15    7    5 2    
    16    8    6 1    
    17   30    6 1    
    18    9    8 1    
    19   10    8 1    
    20   31    8 1    
    21   11    9 ar   
    22   21    9 ar   
    23   36   10 1    
    24   37   10 1    
    25   38   10 1    
    26   13   12 1    
    27   14   12 1    
    28   32   12 1    
    29   15   13 am   
    30   33   13 1    
    31   19   14 ar   
    32   20   14 ar   
    33   16   15 1    
    34   17   15 2    
    35   18   16 1    
    36   34   16 1    
    37   35   16 1    
    38   39   18 1    
    39   40   18 1    
    40   41   18 1    
@<TRIPOS>SUBSTRUCTURE
     1 REY400      1 GROUP   
@<TRIPOS>SET

