#    Name: 2xc3_RT8_1_INTS_M
#    Modification time : Tue Mar 25 05:49:49 2014

@<TRIPOS>MOLECULE
2xc3_RT8_1_INTS_M
   58     0     6     0     0
SMALL
NO_CHARGES


@<TRIPOS>ATOM
      1 CA         17.1140   42.5975   27.9875 C.3       2 GLC5        0.0000 
      2 CA         16.1350   44.2320   28.7100 C.3       6 GLL5        0.0000 
      3 CA         18.0930   40.9630   27.2650 C.3       4 GLP5        0.0000 
      4 CA         14.6835   43.3050   31.2535 C.3       2 GLC5        0.0000 
      5 CA         16.2350   44.1120   30.0870 C.3       6 GLL5        0.0000 
      6 CA         13.1320   42.4980   32.4200 C.3       4 GLP5        0.0000 
      7 CA         14.0320   44.2340   31.3720 C.3       2 GLC5        0.0000 
      8 CA         14.9320   45.9700   30.3240 C.3       6 GLL5        0.0000 
      9 CA         11.4555   42.0005   20.1830 C.3       2 GLC5        0.0000 
     10 CA         11.3970   44.2240   20.1880 C.3       6 GLL5        0.0000 
     11 CA         11.5140   39.7770   20.1780 C.3       4 GLP5        0.0000 
     12 CA          7.8540   42.5030   19.5495 C.3       2 GLC5        0.0000 
     13 CA          9.0420   44.0330   19.3390 C.3       6 GLL5        0.0000 
     14 CA          6.6660   40.9730   19.7600 C.3       4 GLP5        0.0000 
     15 CA         16.1725   46.9990   17.1350 C.3       2 GLC5        0.0000 
     16 CA         15.5330   45.5150   18.5540 C.3       6 GLL5        0.0000 
     17 CA         16.8120   48.4830   15.7160 C.3       4 GLP5        0.0000 
     18 CA         15.7610   44.7640   16.4970 C.3       2 GLC5        0.0000 
     19 CA         15.9890   44.0130   14.4400 C.3       4 GLP5        0.0000 
     20 O          15.8915   48.0330   19.4395 O.2       1 ALC1        0.0000 
     21 O          16.2360   46.9890   20.4610 O.2       5 ALL1        0.0000 
     22 O          15.5470   49.0770   18.4180 O.2       3 ALP1        0.0000 
     23 CA         15.3010   48.1185   22.1580 C.3       2 GLC5        0.0000 
     24 CA         16.5160   46.8120   21.8020 C.3       6 GLL5        0.0000 
     25 CA         14.0860   49.4250   22.5140 C.3       4 GLP5        0.0000 
     26 CA         16.5018   46.7228   27.3610 C.3       2 GLC5        0.0000 
     27 CA         15.4410   45.2510   28.1110 C.3       6 GLL5        0.0000 
     28 CA         17.8740   47.7430   26.2050 C.3       4 GLP5        0.0000 
     29 CA         14.9550   42.9130   28.6618 C.3       2 GLC5        0.0000 
     30 CA         13.7250   41.6540   27.9250 C.3       4 GLP5        0.0000 
     31 CA         13.9880   47.4855   29.8768 C.3       2 GLC5        0.0000 
     32 CA         14.8180   46.1540   28.9230 C.3       6 GLL5        0.0000 
     33 CA         13.1010   48.9090   30.1300 C.3       4 GLP5        0.0000 
     34 CA         13.8814   44.3421   28.7168 C.3       2 GLC5        0.0000 
     35 CA         12.7320   42.8480   28.0130 C.3       4 GLP5        0.0000 
     36 CA         16.9653   46.3360   25.0792 C.3       2 GLC5        0.0000 
     37 CA         15.4270   45.0600   24.3870 C.3       6 GLL5        0.0000 
     38 CA         12.1745   46.1400   19.3980 C.3       2 GLC5        0.0000 
     39 CA         12.3450   44.9720   21.1720 C.3       6 GLL5        0.0000 
     40 CA         12.4780   47.6820   18.1160 C.3       4 GLP5        0.0000 
     41 CA          9.7948   45.9050   18.5995 C.3       2 GLC5        0.0000 
     42 CA          9.9710   44.7110   20.3610 C.3       6 GLL5        0.0000 
     43 CA         10.0830   47.4380   17.3490 C.3       4 GLP5        0.0000 
     44 CA          9.0728   45.1305   23.7620 C.3       2 GLC5        0.0000 
     45 CA          9.6540   44.3170   21.7810 C.3       6 GLL5        0.0000 
     46 CA          8.0100   45.6360   25.2250 C.3       4 GLP5        0.0000 
     47 CA          7.6221   44.3778   20.7048 C.3       2 GLC5        0.0000 
     48 CA          5.6640   44.4110   20.5940 C.3       4 GLP5        0.0000 
     49 CA          9.9430   43.1549   23.3552 C.3       2 GLC5        0.0000 
     50 CA          9.3900   41.7870   24.4620 C.3       4 GLP5        0.0000 
     51 CA         16.6135   41.5390   20.1048 C.3       2 GLC5        0.0000 
     52 CA         15.7850   43.4660   20.5850 C.3       6 GLL5        0.0000 
     53 CA         17.6400   39.7630   20.2650 C.3       4 GLP5        0.0000 
     54 CA         15.4087   42.7620   17.2172 C.3       2 GLC5        0.0000 
     55 CA         15.3890   43.1640   19.3040 C.3       6 GLL5        0.0000 
     56 CA         15.4930   41.8570   15.6270 C.3       4 GLP5        0.0000 
     57 CA         14.0656   46.5156   18.6319 C.3       2 GLC5        0.0000 
     58 CA         15.2600   44.1700   18.3110 C.3       6 GLL5        0.0000 
@<TRIPOS>BOND
@<TRIPOS>SUBSTRUCTURE
     1 ALC1       20 GROUP        1 X    ALC  0     ROOT ALC X 1
     2 GLC5        1 GROUP        1 X    GLC  0     **** GLC X 6
     3 ALP1       22 GROUP        1 Y    ALP  0     ROOT ALP Y 8
     4 GLP5        3 GROUP        1 Y    GLP  0     **** GLP Y 13
     5 ALL1       21 GROUP        1 Z    ALL  0     ROOT ALL Z 15
     6 GLL5        2 GROUP        1 Z    GLL  0     **** GLL Z 20
@<TRIPOS>SET

