#    Name: 2xc3_RT8_1_ligand
#    Modification time : Tue Mar 25 05:49:49 2014

@<TRIPOS>MOLECULE
2xc3_RT8_1_ligand
   59    62     1     0     0
SMALL
NO_CHARGES


@<TRIPOS>ATOM
      1 O2         16.2880   43.5340   25.9460 O.2       1 RT81434     0.0000 
      2 C6         15.7220   44.6170   25.7970 C.2       1 RT81434     0.0000 
      3 N2         15.3210   45.3980   26.7630 N.am      1 RT81434     0.0000 
      4 C5         15.4410   45.2510   28.1110 C.ar      1 RT81434     0.0000 
      5 C4         16.1350   44.2320   28.7100 C.ar      1 RT81434     0.0000 
      6 C3         16.2350   44.1120   30.0870 C.ar      1 RT81434     0.0000 
      7 N1         15.6370   44.9580   30.8530 N.pl3     1 RT81434     0.0000 
      8 C2         14.9320   45.9700   30.3240 C.ar      1 RT81434     0.0000 
      9 C1         14.8180   46.1540   28.9230 C.ar      1 RT81434     0.0000 
     10 C7         15.4270   45.0600   24.3870 C.3       1 RT81434     0.0000 
     11 N3         14.1920   44.4440   23.8800 N.am      1 RT81434     0.0000 
     12 C8         13.0940   45.1480   23.5580 C.2       1 RT81434     0.0000 
     13 O1         12.9480   46.3120   23.9000 O.2       1 RT81434     0.0000 
     14 C9         12.0590   44.5240   22.6150 C.3       1 RT81434     0.0000 
     15 C15        12.3450   44.9720   21.1720 C.3       1 RT81434     0.0000 
     16 C14        11.3970   44.2240   20.1880 C.3       1 RT81434     0.0000 
     17 C12         9.9710   44.7110   20.3610 C.3       1 RT81434     0.0000 
     18 C13         9.0420   44.0330   19.3390 C.3       1 RT81434     0.0000 
     19 C11         9.6540   44.3170   21.7810 C.3       1 RT81434     0.0000 
     20 C10        10.6170   44.9330   22.8170 C.3       1 RT81434     0.0000 
     21 C16        16.6860   44.7980   23.5200 C.3       1 RT81434     0.0000 
     22 C17        16.4990   45.4500   22.1640 C.2       1 RT81434     0.0000 
     23 C20        16.0320   44.8100   20.9090 C.ar      1 RT81434     0.0000 
     24 C21        15.7850   43.4660   20.5850 C.ar      1 RT81434     0.0000 
     25 C22        15.3890   43.1640   19.3040 C.ar      1 RT81434     0.0000 
     26 C23        15.2600   44.1700   18.3110 C.ar      1 RT81434     0.0000 
     27 C24        15.5330   45.5150   18.5540 C.ar      1 RT81434     0.0000 
     28 C19        15.9100   45.8560   19.8630 C.ar      1 RT81434     0.0000 
     29 N4         16.2360   46.9890   20.4610 N.pl3     1 RT81434     0.0000 
     30 C18        16.5160   46.8120   21.8020 C.2       1 RT81434     0.0000 
     31 H          14.7976   46.3345   26.4573 H         1 RT81434     0.0000 
     32 H          16.6096   43.5142   28.1103 H         1 RT81434     0.0000 
     33 H          16.8069   43.3188   30.4617 H         1 RT81434     0.0000 
     34 H          15.6871   44.8757   31.9043 H         1 RT81434     0.0000 
     35 H          14.4400   46.6610   30.9365 H         1 RT81434     0.0000 
     36 H          14.2869   46.9366   28.5615 H         1 RT81434     0.0000 
     37 H          15.3011   46.1612   24.4223 H         1 RT81434     0.0000 
     38 H          14.2219   43.4007   23.7834 H         1 RT81434     0.0000 
     39 H          12.1319   43.4541   22.6258 H         1 RT81434     0.0000 
     40 H          13.3679   44.7373   20.9158 H         1 RT81434     0.0000 
     41 H          12.1722   46.0346   21.0816 H         1 RT81434     0.0000 
     42 H          11.4552   43.1616   20.3970 H         1 RT81434     0.0000 
     43 H          11.7348   44.4144   19.1754 H         1 RT81434     0.0000 
     44 H           9.9485   45.7578   20.2629 H         1 RT81434     0.0000 
     45 H           9.6944   43.2217   21.8800 H         1 RT81434     0.0000 
     46 H           8.6293   44.6296   22.0329 H         1 RT81434     0.0000 
     47 H          10.5330   46.0284   22.7604 H         1 RT81434     0.0000 
     48 H          10.2853   44.6310   23.8215 H         1 RT81434     0.0000 
     49 H          16.8106   43.7311   23.4045 H         1 RT81434     0.0000 
     50 H          17.5447   45.2219   24.0200 H         1 RT81434     0.0000 
     51 H          15.9005   42.7430   21.2919 H         1 RT81434     0.0000 
     52 H          15.1752   42.1849   19.0377 H         1 RT81434     0.0000 
     53 H          14.9457   43.8785   17.3588 H         1 RT81434     0.0000 
     54 H          15.4650   46.2085   17.8333 H         1 RT81434     0.0000 
     55 H          16.2832   47.8775   20.0264 H         1 RT81434     0.0000 
     56 H          16.7033   47.5274   22.4298 H         1 RT81434     0.0000 
     57 H           9.3168   44.2317   18.3983 H         1 RT81434     0.0000 
     58 H           9.0416   43.0381   19.4403 H         1 RT81434     0.0000 
     59 H           8.0949   44.3382   19.4384 H         1 RT81434     0.0000 
@<TRIPOS>BOND
     1    2    1 2    
     2    3    2 am   
     3   10    2 1    
     4    4    3 1    
     5   31    3 1    
     6    5    4 ar   
     7    9    4 ar   
     8    6    5 ar   
     9   32    5 1    
    10    7    6 ar   
    11   33    6 1    
    12    8    7 ar   
    13   34    7 1    
    14    9    8 ar   
    15   35    8 1    
    16   36    9 1    
    17   11   10 1    
    18   21   10 1    
    19   37   10 1    
    20   12   11 am   
    21   38   11 1    
    22   13   12 2    
    23   14   12 1    
    24   15   14 1    
    25   20   14 1    
    26   39   14 1    
    27   16   15 1    
    28   40   15 1    
    29   41   15 1    
    30   17   16 1    
    31   42   16 1    
    32   43   16 1    
    33   18   17 1    
    34   19   17 1    
    35   44   17 1    
    36   57   18 1    
    37   58   18 1    
    38   59   18 1    
    39   20   19 1    
    40   45   19 1    
    41   46   19 1    
    42   47   20 1    
    43   48   20 1    
    44   22   21 1    
    45   49   21 1    
    46   50   21 1    
    47   23   22 1    
    48   30   22 2    
    49   24   23 ar   
    50   28   23 ar   
    51   25   24 ar   
    52   51   24 1    
    53   26   25 ar   
    54   52   25 1    
    55   27   26 ar   
    56   53   26 1    
    57   28   27 ar   
    58   54   27 1    
    59   29   28 1    
    60   30   29 1    
    61   55   29 1    
    62   56   30 1    
@<TRIPOS>SUBSTRUCTURE
     1 RT81434     1 GROUP   
@<TRIPOS>SET

