#    Name: 2i14_PCP_6_INTS_M
#    Modification time : Tue Mar 25 17:21:18 2014

@<TRIPOS>MOLECULE
2i14_PCP_6_INTS_M
   34     0     6     0     0
SMALL
NO_CHARGES


@<TRIPOS>ATOM
      1 CA        151.4315   94.1490 -118.3140 C.3       2 GLC5        0.0000 
      2 CA        150.0920   94.5230 -116.8820 C.3       6 GLL5        0.0000 
      3 CA        152.7710   93.7750 -119.7460 C.3       4 GLP5        0.0000 
      4 CA        151.4850   94.5955 -114.0650 C.3       2 GLC5        0.0000 
      5 CA        150.2900   94.6110 -115.3410 C.3       6 GLL5        0.0000 
      6 CA        152.6800   94.5800 -112.7890 C.3       4 GLP5        0.0000 
      7 CA        150.0100   95.0480 -113.2600 C.3       2 GLC5        0.0000 
      8 CA        149.5240   95.8810 -114.9110 C.3       6 GLL5        0.0000 
      9 CA        150.4960   94.2150 -111.6090 C.3       4 GLP5        0.0000 
     10 CA        148.3245   96.3220 -113.2540 C.3       2 GLC5        0.0000 
     11 CA        147.1250   96.7630 -111.5970 C.3       4 GLP5        0.0000 
     12 CA        147.5770   97.7525 -115.4440 C.3       2 GLC5        0.0000 
     13 CA        148.4010   95.9000 -115.8950 C.3       6 GLL5        0.0000 
     14 CA        146.7530   99.6050 -114.9930 C.3       4 GLP5        0.0000 
     15 CA        151.5235   95.8880 -113.8475 C.3       2 GLC5        0.0000 
     16 CA        150.3670   97.1960 -114.9060 C.3       6 GLL5        0.0000 
     17 CA        148.5600   98.4005 -114.9495 C.3       2 GLC5        0.0000 
     18 CA        152.1010   97.8490 -114.6585 C.3       2 GLC5        0.0000 
     19 CA        153.8350   98.5020 -114.4110 C.3       4 GLP5        0.0000 
     20 N         153.5565   99.6125 -116.7135 N.am      1 SEC2        0.0000 
     21 N         152.4170   99.2700 -117.2940 N.am      5 SEL2        0.0000 
     22 N         154.6960   99.9550 -116.1330 N.am      3 SEP2        0.0000 
     23 N         151.9210   99.5055 -114.4365 N.am      1 SEC2        0.0000 
     24 N         150.8540   99.9760 -115.5120 N.am      5 SEL2        0.0000 
     25 N         152.9880   99.0350 -113.3610 N.am      3 SEP2        0.0000 
     26 N         149.1290  100.1940 -116.8830 N.am      1 SEC2        0.0000 
     27 N         149.9920   99.2530 -117.7460 N.am      5 SEL2        0.0000 
     28 N         148.2660  101.1350 -116.0200 N.am      3 SEP2        0.0000 
     29 N         144.2480   89.0785 -117.8560 N.am      1 SEC2        0.0000 
     30 N         144.9150   90.2960 -117.7600 N.am      5 SEL2        0.0000 
     31 N         143.5810   87.8610 -117.9520 N.am      3 SEP2        0.0000 
     32 N         148.3020   90.1710 -116.7325 N.am      1 SEC2        0.0000 
     33 N         147.1020   90.8210 -117.0550 N.am      5 SEL2        0.0000 
     34 N         149.5020   89.5210 -116.4100 N.am      3 SEP2        0.0000 
@<TRIPOS>BOND
@<TRIPOS>SUBSTRUCTURE
     1 SEC2       20 GROUP        1 X    SEC  0     ROOT SEC X 2
     2 GLC5        1 GROUP        1 X    GLC  0     **** GLC X 6
     3 SEP2       22 GROUP        1 Y    SEP  0     ROOT SEP Y 9
     4 GLP5        3 GROUP        1 Y    GLP  0     **** GLP Y 13
     5 SEL2       21 GROUP        1 Z    SEL  0     ROOT SEL Z 16
     6 GLL5        2 GROUP        1 Z    GLL  0     **** GLL Z 20
@<TRIPOS>SET

