#    Name: 2i14_PCP_6_ligand
#    Modification time : Tue Mar 25 17:21:18 2014

@<TRIPOS>MOLECULE
2i14_PCP_6_ligand
   32    32     1     0     0
SMALL
NO_CHARGES


@<TRIPOS>ATOM
      1 C1        148.6750   95.0840 -117.1200 C.3       1 PCP2792     0.0000 
      2 C2        150.0920   94.5230 -116.8820 C.3       1 PCP2792     0.0000 
      3 C3        150.2900   94.6110 -115.3410 C.3       1 PCP2792     0.0000 
      4 C4        149.5240   95.8810 -114.9110 C.3       1 PCP2792     0.0000 
      5 C5        148.4010   95.9000 -115.8950 C.3       1 PCP2792     0.0000 
      6 CP        150.3670   97.1960 -114.9060 C.3       1 PCP2792     0.0000 
      7 O1        147.6290   93.9770 -117.1010 O.3       1 PCP2792     0.0000 
      8 O2        150.1950   93.1700 -117.3370 O.3       1 PCP2792     0.0000 
      9 O3        149.7330   93.4900 -114.6260 O.3       1 PCP2792     0.0000 
     10 OP        150.9560   97.5750 -116.1980 O.3       1 PCP2792     0.0000 
     11 P         151.0620   99.1090 -116.7140 P.3       1 PCP2792     0.0000 
     12 O1P       152.4170   99.2700 -117.2940 O.co2     1 PCP2792     0.0000 
     13 O2P       150.8540   99.9760 -115.5120 O.co2     1 PCP2792     0.0000 
     14 O3P       149.9920   99.2530 -117.7460 O.co2     1 PCP2792     0.0000 
     15 PA        146.0700   94.1880 -117.3400 P.3       1 PCP2792     0.0000 
     16 O1A       145.9290   94.9150 -118.6610 O.co2     1 PCP2792     0.0000 
     17 O2A       145.5670   95.0320 -116.1920 O.co2     1 PCP2792     0.0000 
     18 O3A       145.5150   92.7180 -117.3540 O.3       1 PCP2792     0.0000 
     19 PB        145.9910   91.3210 -117.8470 P.3       1 PCP2792     0.0000 
     20 O1B       144.9150   90.2960 -117.7600 O.co2     1 PCP2792     0.0000 
     21 O2B       147.1020   90.8210 -117.0550 O.co2     1 PCP2792     0.0000 
     22 O3B       146.4530   91.3620 -119.2620 O.co2     1 PCP2792     0.0000 
     23 H         148.6318   95.6537 -117.9640 H         1 PCP2792     0.0000 
     24 H         150.7886   95.1829 -117.3345 H         1 PCP2792     0.0000 
     25 H         151.3171   94.7726 -115.1399 H         1 PCP2792     0.0000 
     26 H         149.1167   95.6962 -113.9320 H         1 PCP2792     0.0000 
     27 H         147.4811   95.5256 -115.4076 H         1 PCP2792     0.0000 
     28 H         148.1938   96.9449 -116.1936 H         1 PCP2792     0.0000 
     29 H         151.1599   97.0710 -114.1358 H         1 PCP2792     0.0000 
     30 H         149.7052   98.0050 -114.5249 H         1 PCP2792     0.0000 
     31 H         149.9455   92.6114 -116.5460 H         1 PCP2792     0.0000 
     32 H         150.4691   93.1731 -114.0279 H         1 PCP2792     0.0000 
@<TRIPOS>BOND
     1    2    1 1    
     2    5    1 1    
     3    7    1 1    
     4   23    1 1    
     5    3    2 1    
     6    8    2 1    
     7   24    2 1    
     8    4    3 1    
     9    9    3 1    
    10   25    3 1    
    11    5    4 1    
    12    6    4 1    
    13   26    4 1    
    14   27    5 1    
    15   28    5 1    
    16   10    6 1    
    17   29    6 1    
    18   30    6 1    
    19   15    7 1    
    20   31    8 1    
    21   32    9 1    
    22   11   10 1    
    23   12   11 ar   
    24   13   11 ar   
    25   14   11 ar   
    26   16   15 ar   
    27   17   15 ar   
    28   18   15 1    
    29   19   18 1    
    30   20   19 ar   
    31   21   19 ar   
    32   22   19 ar   
@<TRIPOS>SUBSTRUCTURE
     1 PCP2792     1 GROUP   
@<TRIPOS>SET

