#    Name: 1ppm_0P1_1_INTS_M
#    Modification time : Mon Mar 24 22:02:37 2014

@<TRIPOS>MOLECULE
1ppm_0P1_1_INTS_M
   84     0     9     0     0
SMALL
NO_CHARGES


@<TRIPOS>ATOM
      1 CA         15.2085    6.4015   17.6080 C.3       3 GLC5        0.0000 
      2 CA         14.5710    4.8710   18.7050 C.3       9 GLL5        0.0000 
      3 CA         15.8460    7.9320   16.5110 C.3       6 GLP5        0.0000 
      4 CA         11.5720    1.2515   21.1615 C.3       3 GLC5        0.0000 
      5 CA         12.8490    1.5710   19.3880 C.3       9 GLL5        0.0000 
      6 CA         10.2950    0.9320   22.9350 C.3       6 GLP5        0.0000 
      7 CA         15.5950    3.4650   15.6785 C.3       3 GLC5        0.0000 
      8 CA         14.0800    2.9530   17.2440 C.3       9 GLL5        0.0000 
      9 CA         17.1100    3.9770   14.1130 C.3       6 GLP5        0.0000 
     10 O          17.5930    6.4250   17.3265 O.2       1 ALC1        0.0000 
     11 O          18.0710    5.5250   18.3860 O.2       7 ALL1        0.0000 
     12 O          17.1150    7.3250   16.2670 O.2       4 ALP1        0.0000 
     13 N          17.6345    8.8915   18.5655 N.am      2 SEC2        0.0000 
     14 N          18.1610    7.9500   19.6020 N.am      8 SEL2        0.0000 
     15 N          17.1080    9.8330   17.5290 N.am      5 SEP2        0.0000 
     16 O          20.5910    6.1390   21.3925 O.2       1 ALC1        0.0000 
     17 O          19.8180    7.2450   21.0460 O.2       7 ALL1        0.0000 
     18 O          21.3640    5.0330   21.7390 O.2       4 ALP1        0.0000 
     19 N          21.6250    7.5680   24.2440 N.am      2 SEC2        0.0000 
     20 N          21.8100    8.4710   23.0590 N.am      8 SEL2        0.0000 
     21 N          21.4400    6.6650   25.4290 N.am      5 SEP2        0.0000 
     22 CA         25.8975    9.5015   18.7410 C.3       3 GLC5        0.0000 
     23 CA         24.0340    9.3730   19.8660 C.3       9 GLL5        0.0000 
     24 CA         27.7610    9.6300   17.6160 C.3       6 GLP5        0.0000 
     25 CA         23.0555   10.7025   18.3960 C.3       3 GLC5        0.0000 
     26 CA         22.0770   12.0320   16.9260 C.3       6 GLP5        0.0000 
     27 CA         25.8390    5.8770   18.4135 C.3       3 GLC5        0.0000 
     28 CA         24.4990    7.6050   18.2160 C.3       9 GLL5        0.0000 
     29 CA         27.1790    4.1490   18.6110 C.3       6 GLP5        0.0000 
     30 CA         26.1300    8.6175   17.9160 C.3       3 GLC5        0.0000 
     31 CA         24.8235    7.4050   22.3000 C.3       3 GLC5        0.0000 
     32 CA         24.2550    6.9510   20.6750 C.3       9 GLL5        0.0000 
     33 CA         25.3920    7.8590   23.9250 C.3       6 GLP5        0.0000 
     34 CA         25.8955    5.7340   20.2970 C.3       3 GLC5        0.0000 
     35 CA         27.5360    4.5170   19.9190 C.3       6 GLP5        0.0000 
     36 O          21.5855    9.8375   19.5420 O.2       1 ALC1        0.0000 
     37 O          21.8890    9.5680   21.0820 O.2       7 ALL1        0.0000 
     38 O          21.2820   10.1070   18.0020 O.2       4 ALP1        0.0000 
     39 N          21.6070   13.3850   20.7650 N.am      2 SEC2        0.0000 
     40 N          22.5280   12.3220   20.3070 N.am      8 SEL2        0.0000 
     41 N          20.6860   14.4480   21.2230 N.am      5 SEP2        0.0000 
     42 N          20.9210   12.0460   20.5625 N.am      2 SEC2        0.0000 
     43 N          19.3140   11.7700   20.8180 N.am      5 SEP2        0.0000 
     44 CA         24.0270   14.6535   22.1190 C.3       3 GLC5        0.0000 
     45 CA         23.5110   13.0420   23.5140 C.3       9 GLL5        0.0000 
     46 CA         24.5430   16.2650   20.7240 C.3       6 GLP5        0.0000 
     47 CA         23.5740   15.6045   24.6025 C.3       3 GLC5        0.0000 
     48 CA         22.3440   13.9090   24.0380 C.3       9 GLL5        0.0000 
     49 CA         24.8040   17.3000   25.1670 C.3       6 GLP5        0.0000 
     50 CA         21.6160   15.7030   23.8960 C.3       3 GLC5        0.0000 
     51 CA         20.8880   17.4970   23.7540 C.3       6 GLP5        0.0000 
     52 CA         25.1015   15.0825   26.5700 C.3       3 GLC5        0.0000 
     53 CA         25.7140   12.9990   26.6300 C.3       9 GLL5        0.0000 
     54 CA         24.4890   17.1660   26.5100 C.3       6 GLP5        0.0000 
     55 N          23.8405   10.0535   25.3975 N.am      2 SEC2        0.0000 
     56 N          24.4070   11.3200   24.9200 N.am      8 SEL2        0.0000 
     57 N          23.2740    8.7870   25.8750 N.am      5 SEP2        0.0000 
     58 CA         13.0530    5.6692   19.1733 C.3       3 GLC5        0.0000 
     59 CA         11.8250    7.1560   19.7420 C.3       6 GLP5        0.0000 
     60 CA         11.6710    3.3230   18.6060 C.3       3 GLC5        0.0000 
     61 CA         13.9910    3.4940   18.5040 C.3       9 GLL5        0.0000 
     62 CA          9.6590    3.4850   18.1690 C.3       6 GLP5        0.0000 
     63 CA         11.4365    2.4813   18.0310 C.3       3 GLC5        0.0000 
     64 CA         19.8803    6.7432   23.1700 C.3       3 GLC5        0.0000 
     65 CA         18.9120    8.3850   23.0900 C.3       9 GLL5        0.0000 
     66 CA         20.4110    5.0510   23.8850 C.3       6 GLP5        0.0000 
     67 CA         18.1403    9.8888   21.5160 C.3       3 GLC5        0.0000 
     68 CA         16.9310   11.3420   20.5770 C.3       6 GLP5        0.0000 
     69 CA         25.2377    9.5520   21.5523 C.3       3 GLC5        0.0000 
     70 CA         23.2710    9.9450   21.1250 C.3       9 GLL5        0.0000 
     71 CA         26.8230    9.4450   22.6090 C.3       6 GLP5        0.0000 
     72 CA         20.9625   10.3702   25.6755 C.3       3 GLC5        0.0000 
     73 CA         20.3830   12.2980   24.3600 C.3       9 GLL5        0.0000 
     74 CA         21.9780    8.7510   26.5600 C.3       6 GLP5        0.0000 
     75 CA         21.0263   10.5275   26.7142 C.3       3 GLC5        0.0000 
     76 CA         19.6040   11.8740   26.5980 C.3       9 GLL5        0.0000 
     77 CA         18.8208   13.2355   27.9778 C.3       3 GLC5        0.0000 
     78 CA         17.5670   14.1670   29.0870 C.3       6 GLP5        0.0000 
     79 CA         18.3042   13.2760   26.3603 C.3       3 GLC5        0.0000 
     80 CA         20.5450   12.7340   27.1390 C.3       9 GLL5        0.0000 
     81 CA         16.5340   14.2480   25.8520 C.3       6 GLP5        0.0000 
     82 CA         18.7115   13.5265   24.7855 C.3       3 GLC5        0.0000 
     83 CA         19.5110   11.6810   25.2220 C.3       9 GLL5        0.0000 
     84 CA         17.2380   14.8500   24.6540 C.3       6 GLP5        0.0000 
@<TRIPOS>BOND
@<TRIPOS>SUBSTRUCTURE
     1 ALC1       10 GROUP        1 X    ALC  0     ROOT ALC X 1
     2 SEC2       13 GROUP        1 X    SEC  0     **** SEC X 2
     3 GLC5        1 GROUP        1 X    GLC  0     **** GLC X 6
     4 ALP1       12 GROUP        1 Y    ALP  0     ROOT ALP Y 8
     5 SEP2       15 GROUP        1 Y    SEP  0     **** SEP Y 9
     6 GLP5        3 GROUP        1 Y    GLP  0     **** GLP Y 13
     7 ALL1       11 GROUP        1 Z    ALL  0     ROOT ALL Z 15
     8 SEL2       14 GROUP        1 Z    SEL  0     **** SEL Z 16
     9 GLL5        2 GROUP        1 Z    GLL  0     **** GLL Z 20
@<TRIPOS>SET

