#    Name: 1ppm_0P1_1_ligand
#    Modification time : Mon Mar 24 22:02:37 2014

@<TRIPOS>MOLECULE
1ppm_0P1_1_ligand
   81    82     1     0     0
SMALL
NO_CHARGES


@<TRIPOS>ATOM
      1 C1         16.9610    5.0560   18.8390 C.2       1 0P1324      0.0000 
      2 O1         16.7860    4.7930   20.0630 O.2       1 0P1324      0.0000 
      3 O2         15.8380    4.9040   17.9920 O.3       1 0P1324      0.0000 
      4 C2         14.5710    4.8710   18.7050 C.3       1 0P1324      0.0000 
      5 C3         13.9910    3.4940   18.5040 C.ar      1 0P1324      0.0000 
      6 C4         13.3750    2.8280   19.5820 C.ar      1 0P1324      0.0000 
      7 C5         12.8490    1.5710   19.3880 C.ar      1 0P1324      0.0000 
      8 C6         12.9150    1.0010   18.1120 C.ar      1 0P1324      0.0000 
      9 C7         13.5460    1.6690   17.0360 C.ar      1 0P1324      0.0000 
     10 C8         14.0800    2.9530   17.2440 C.ar      1 0P1324      0.0000 
     11 N          18.0710    5.5250   18.3860 N.am      1 0P1324      0.0000 
     12 CA         19.2050    5.7540   19.2480 C.3       1 0P1324      0.0000 
     13 C          19.0300    7.1030   20.0120 C.2       1 0P1324      0.0000 
     14 O          18.1610    7.9500   19.6020 O.2       1 0P1324      0.0000 
     15 CB         20.3620    5.9450   18.2560 C.3       1 0P1324      0.0000 
     16 N1         19.8180    7.2450   21.0460 N.am      1 0P1324      0.0000 
     17 CA1        19.7870    8.4860   21.8200 C.3       1 0P1324      0.0000 
     18 C9         21.2480    8.8500   22.0540 C.2       1 0P1324      0.0000 
     19 O3         21.8100    8.4710   23.0590 O.2       1 0P1324      0.0000 
     20 CB1        18.9120    8.3850   23.0900 C.3       1 0P1324      0.0000 
     21 CA2        23.2710    9.9450   21.1250 C.3       1 0P1324      0.0000 
     22 CB2        24.0340    9.3730   19.8660 C.3       1 0P1324      0.0000 
     23 CG         23.7680    7.8770   19.5290 C.3       1 0P1324      0.0000 
     24 CD1        24.4990    7.6050   18.2160 C.3       1 0P1324      0.0000 
     25 CD2        24.2550    6.9510   20.6750 C.3       1 0P1324      0.0000 
     26 N2         21.8890    9.5680   21.0820 N.am      1 0P1324      0.0000 
     27 P          23.4550   11.7720   21.2390 P.3       1 0P1324      0.0000 
     28 O11        24.8350   12.0870   21.2500 O.co2     1 0P1324      0.0000 
     29 O21        22.5280   12.3220   20.3070 O.co2     1 0P1324      0.0000 
     30 CA3        23.5110   13.0420   23.5140 C.3       1 0P1324      0.0000 
     31 CB3        22.3440   13.9090   24.0380 C.3       1 0P1324      0.0000 
     32 CG1        21.3350   13.1520   24.8640 C.ar      1 0P1324      0.0000 
     33 CD11       21.4040   13.3650   26.2640 C.ar      1 0P1324      0.0000 
     34 CD21       20.3830   12.2980   24.3600 C.ar      1 0P1324      0.0000 
     35 CE1        20.5450   12.7340   27.1390 C.ar      1 0P1324      0.0000 
     36 CE2        19.5110   11.6810   25.2220 C.ar      1 0P1324      0.0000 
     37 CZ         19.6040   11.8740   26.5980 C.ar      1 0P1324      0.0000 
     38 CC         24.2320   12.4970   24.7390 C.2       1 0P1324      0.0000 
     39 CS         25.7140   12.9990   26.6300 C.3       1 0P1324      0.0000 
     40 OP         22.9550   11.9420   22.7180 O.3       1 0P1324      0.0000 
     41 OS         24.7390   13.3130   25.7410 O.3       1 0P1324      0.0000 
     42 O4         24.4070   11.3200   24.9200 O.2       1 0P1324      0.0000 
     43 H          13.8803    5.6049   18.3077 H         1 0P1324      0.0000 
     44 H          14.7152    5.0405   19.7652 H         1 0P1324      0.0000 
     45 H          13.3265    3.2873   20.4954 H         1 0P1324      0.0000 
     46 H          12.4159    1.0548   20.1554 H         1 0P1324      0.0000 
     47 H          12.4956    0.0715   17.9446 H         1 0P1324      0.0000 
     48 H          13.6104    1.2228   16.1255 H         1 0P1324      0.0000 
     49 H          14.5157    3.4536   16.4759 H         1 0P1324      0.0000 
     50 H          18.2221    5.7681   17.3750 H         1 0P1324      0.0000 
     51 H          19.4115    4.9870   19.8886 H         1 0P1324      0.0000 
     52 H          20.4829    6.5267   21.3707 H         1 0P1324      0.0000 
     53 H          19.3629    9.2760   21.1734 H         1 0P1324      0.0000 
     54 H          23.7785    9.6195   22.0177 H         1 0P1324      0.0000 
     55 H          25.1154    9.5143   20.0307 H         1 0P1324      0.0000 
     56 H          23.7596    9.9891   18.9932 H         1 0P1324      0.0000 
     57 H          22.7191    7.7530   19.3805 H         1 0P1324      0.0000 
     58 H          21.3483    9.8795   20.2269 H         1 0P1324      0.0000 
     59 H          24.1612   13.6524   22.9567 H         1 0P1324      0.0000 
     60 H          21.8418   14.3706   23.1704 H         1 0P1324      0.0000 
     61 H          22.7694   14.7334   24.6359 H         1 0P1324      0.0000 
     62 H          22.1275   14.0176   26.6243 H         1 0P1324      0.0000 
     63 H          20.3254   12.1238   23.3476 H         1 0P1324      0.0000 
     64 H          20.5980   12.8914   28.1382 H         1 0P1324      0.0000 
     65 H          18.7672   11.0588   24.8508 H         1 0P1324      0.0000 
     66 H          18.9556   11.3631   27.2258 H         1 0P1324      0.0000 
     67 H          21.2285    6.1168   18.7247 H         1 0P1324      0.0000 
     68 H          20.4949    5.1380   17.6806 H         1 0P1324      0.0000 
     69 H          20.2018    6.7188   17.6431 H         1 0P1324      0.0000 
     70 H          19.2400    7.6734   23.7114 H         1 0P1324      0.0000 
     71 H          18.9038    9.2424   23.6045 H         1 0P1324      0.0000 
     72 H          17.9614    8.1663   22.8696 H         1 0P1324      0.0000 
     73 H          25.4815    7.7734   18.2961 H         1 0P1324      0.0000 
     74 H          24.3875    6.6569   17.9183 H         1 0P1324      0.0000 
     75 H          24.1614    8.1863   17.4756 H         1 0P1324      0.0000 
     76 H          25.2357    7.0518   20.8426 H         1 0P1324      0.0000 
     77 H          23.7884    7.1498   21.5368 H         1 0P1324      0.0000 
     78 H          24.0906    5.9865   20.4684 H         1 0P1324      0.0000 
     79 H          26.5753   12.7761   26.1733 H         1 0P1324      0.0000 
     80 H          25.9019   13.7547   27.2574 H         1 0P1324      0.0000 
     81 H          25.4658   12.2083   27.1896 H         1 0P1324      0.0000 
@<TRIPOS>BOND
     1    2    1 2    
     2    3    1 1    
     3   11    1 am   
     4    4    3 1    
     5    5    4 1    
     6   43    4 1    
     7   44    4 1    
     8    6    5 ar   
     9   10    5 ar   
    10    7    6 ar   
    11   45    6 1    
    12    8    7 ar   
    13   46    7 1    
    14    9    8 ar   
    15   47    8 1    
    16   10    9 ar   
    17   48    9 1    
    18   49   10 1    
    19   12   11 1    
    20   50   11 1    
    21   13   12 1    
    22   15   12 1    
    23   51   12 1    
    24   14   13 2    
    25   16   13 am   
    26   67   15 1    
    27   68   15 1    
    28   69   15 1    
    29   17   16 1    
    30   52   16 1    
    31   18   17 1    
    32   20   17 1    
    33   53   17 1    
    34   19   18 2    
    35   26   18 am   
    36   70   20 1    
    37   71   20 1    
    38   72   20 1    
    39   22   21 1    
    40   26   21 1    
    41   27   21 1    
    42   54   21 1    
    43   23   22 1    
    44   55   22 1    
    45   56   22 1    
    46   24   23 1    
    47   25   23 1    
    48   57   23 1    
    49   73   24 1    
    50   74   24 1    
    51   75   24 1    
    52   76   25 1    
    53   77   25 1    
    54   78   25 1    
    55   58   26 1    
    56   28   27 ar   
    57   29   27 ar   
    58   40   27 1    
    59   31   30 1    
    60   38   30 1    
    61   40   30 1    
    62   59   30 1    
    63   32   31 1    
    64   60   31 1    
    65   61   31 1    
    66   33   32 ar   
    67   34   32 ar   
    68   35   33 ar   
    69   62   33 1    
    70   36   34 ar   
    71   63   34 1    
    72   37   35 ar   
    73   64   35 1    
    74   37   36 ar   
    75   65   36 1    
    76   66   37 1    
    77   41   38 1    
    78   42   38 2    
    79   41   39 1    
    80   79   39 1    
    81   80   39 1    
    82   81   39 1    
@<TRIPOS>SUBSTRUCTURE
     1 0P1324      1 GROUP   
@<TRIPOS>SET

