#    Name: 4at3_LTI_1_INTS_M
#    Modification time : Tue Mar 25 06:13:27 2014

@<TRIPOS>MOLECULE
4at3_LTI_1_INTS_M
   69     0     9     0     0
SMALL
NO_CHARGES


@<TRIPOS>ATOM
      1 CA         13.9565  -25.6755  -19.7640 C.3       3 GLC5        0.0000 
      2 CA         13.3220  -25.5450  -17.7510 C.3       9 GLL5        0.0000 
      3 CA         14.5910  -25.8060  -21.7770 C.3       6 GLP5        0.0000 
      4 CA         14.5300  -27.1595  -16.0080 C.3       3 GLC5        0.0000 
      5 CA         13.4100  -26.9620  -17.7420 C.3       9 GLL5        0.0000 
      6 CA         15.6500  -27.3570  -14.2740 C.3       6 GLP5        0.0000 
      7 CA         14.3775  -27.0410  -19.6340 C.3       3 GLC5        0.0000 
      8 CA         15.3450  -27.1200  -21.5260 C.3       6 GLP5        0.0000 
      9 CA         10.8100  -25.0160  -16.1760 C.3       3 GLC5        0.0000 
     10 CA         10.8950  -25.7770  -17.9850 C.3       9 GLL5        0.0000 
     11 CA         10.7250  -24.2550  -14.3670 C.3       6 GLP5        0.0000 
     12 CA          6.5185  -28.3095  -13.4955 C.3       3 GLC5        0.0000 
     13 CA          8.2370  -27.5110  -14.1870 C.3       9 GLL5        0.0000 
     14 CA          4.8000  -29.1080  -12.8040 C.3       6 GLP5        0.0000 
     15 CA         13.5240  -29.4440  -15.9670 C.3       3 GLC5        0.0000 
     16 CA         12.4860  -29.2770  -17.8230 C.3       9 GLL5        0.0000 
     17 CA         14.5620  -29.6110  -14.1110 C.3       6 GLP5        0.0000 
     18 CA         13.0970  -31.0635  -17.3425 C.3       3 GLC5        0.0000 
     19 CA         13.7080  -32.8500  -16.8620 C.3       6 GLP5        0.0000 
     20 CA         12.6495  -31.6085  -19.1460 C.3       3 GLC5        0.0000 
     21 CA         12.0320  -29.9220  -19.1090 C.3       9 GLL5        0.0000 
     22 CA         13.2670  -33.2950  -19.1830 C.3       6 GLP5        0.0000 
     23 CA          9.2860  -31.7625  -19.8065 C.3       3 GLC5        0.0000 
     24 CA         10.5490  -30.2020  -19.0960 C.3       9 GLL5        0.0000 
     25 CA          8.0230  -33.3230  -20.5170 C.3       6 GLP5        0.0000 
     26 CA         11.2455  -31.8625  -18.9895 C.3       3 GLC5        0.0000 
     27 CA         11.9420  -33.5230  -18.8830 C.3       6 GLP5        0.0000 
     28 CA          8.7100  -28.0570  -20.6390 C.3       3 GLC5        0.0000 
     29 CA          9.7540  -28.9280  -19.3110 C.3       9 GLL5        0.0000 
     30 CA          7.6660  -27.1860  -21.9670 C.3       6 GLP5        0.0000 
     31 CA          7.5775  -29.2095  -19.4530 C.3       3 GLC5        0.0000 
     32 CA          5.4010  -29.4910  -19.5950 C.3       6 GLP5        0.0000 
     33 CA          9.0590  -27.0000  -19.7570 C.3       3 GLC5        0.0000 
     34 CA          9.7150  -27.9930  -18.0920 C.3       9 GLL5        0.0000 
     35 CA          8.4030  -26.0070  -21.4220 C.3       6 GLP5        0.0000 
     36 O          10.6000  -30.0125  -12.5985 O.2       1 ALC1        0.0000 
     37 O           9.9860  -29.0250  -13.5250 O.2       7 ALL1        0.0000 
     38 O          11.2140  -31.0000  -11.6720 O.2       4 ALP1        0.0000 
     39 O           7.2580  -25.3000  -10.2605 O.2       1 ALC1        0.0000 
     40 O           6.0130  -24.8860  -10.8790 O.2       7 ALL1        0.0000 
     41 O           8.5030  -25.7140   -9.6420 O.2       4 ALP1        0.0000 
     42 N           9.3065  -28.2310  -10.7345 N.am      2 SEC2        0.0000 
     43 N           8.6470  -28.1510  -11.9300 N.am      8 SEL2        0.0000 
     44 N           9.9660  -28.3110   -9.5390 N.am      5 SEP2        0.0000 
     45 CA          5.2610  -26.9105  -14.2255 C.3       3 GLC5        0.0000 
     46 CA          6.6570  -25.8130  -15.3220 C.3       9 GLL5        0.0000 
     47 CA          3.8650  -28.0080  -13.1290 C.3       6 GLP5        0.0000 
     48 CA          4.7110  -25.0500  -15.9980 C.3       3 GLC5        0.0000 
     49 CA          2.7650  -24.2870  -16.6740 C.3       6 GLP5        0.0000 
     50 CA          8.6910  -25.0340  -14.8445 C.3       3 GLC5        0.0000 
     51 CA          8.5655  -30.2250  -15.1595 C.3       3 GLC5        0.0000 
     52 CA          9.2060  -28.8400  -16.5220 C.3       9 GLL5        0.0000 
     53 CA          7.9250  -31.6100  -13.7970 C.3       6 GLP5        0.0000 
     54 CA         10.6110  -27.6040  -15.3895 C.3       3 GLC5        0.0000 
     55 CA         12.0160  -26.3680  -14.2570 C.3       6 GLP5        0.0000 
     56 CA         13.4155  -23.4510  -18.6258 C.3       3 GLC5        0.0000 
     57 CA         12.0560  -24.9430  -17.8780 C.3       9 GLL5        0.0000 
     58 CA         14.1420  -21.6580  -19.4370 C.3       6 GLP5        0.0000 
     59 CA         12.4055  -25.0510  -16.0177 C.3       3 GLC5        0.0000 
     60 CA         12.1220  -24.8580  -14.2210 C.3       6 GLP5        0.0000 
     61 CA         15.1025  -26.3783  -17.9178 C.3       3 GLC5        0.0000 
     62 CA         16.8390  -26.5030  -18.0890 C.3       6 GLP5        0.0000 
     63 CA          8.0875  -29.5995  -14.3505 C.3       3 GLC5        0.0000 
     64 CA          8.2630  -27.6670  -15.6210 C.3       9 GLL5        0.0000 
     65 CA         10.1330  -26.9785  -14.5805 C.3       3 GLC5        0.0000 
     66 CA         11.9657  -26.8275  -16.0730 C.3       3 GLC5        0.0000 
     67 CA         10.9900  -27.1960  -17.9800 C.3       9 GLL5        0.0000 
     68 CA          7.0622  -29.1953  -16.6532 C.3       3 GLC5        0.0000 
     69 CA          5.3900  -30.1370  -17.2350 C.3       6 GLP5        0.0000 
@<TRIPOS>BOND
@<TRIPOS>SUBSTRUCTURE
     1 ALC1       36 GROUP        1 X    ALC  0     ROOT ALC X 1
     2 SEC2       42 GROUP        1 X    SEC  0     **** SEC X 2
     3 GLC5        1 GROUP        1 X    GLC  0     **** GLC X 6
     4 ALP1       38 GROUP        1 Y    ALP  0     ROOT ALP Y 8
     5 SEP2       44 GROUP        1 Y    SEP  0     **** SEP Y 9
     6 GLP5        3 GROUP        1 Y    GLP  0     **** GLP Y 13
     7 ALL1       37 GROUP        1 Z    ALL  0     ROOT ALL Z 15
     8 SEL2       43 GROUP        1 Z    SEL  0     **** SEL Z 16
     9 GLL5        2 GROUP        1 Z    GLL  0     **** GLL Z 20
@<TRIPOS>SET

