#    Name: 4at3_LTI_1_ligand
#    Modification time : Tue Mar 25 06:13:27 2014

@<TRIPOS>MOLECULE
4at3_LTI_1_ligand
   42    44     1     0     0
SMALL
NO_CHARGES


@<TRIPOS>ATOM
      1 C22        13.3220  -25.5450  -17.7510 C.ar      1 LTI1839     0.0000 
      2 C21        12.0560  -24.9430  -17.8780 C.ar      1 LTI1839     0.0000 
      3 C23        13.4100  -26.9620  -17.7420 C.ar      1 LTI1839     0.0000 
      4 C20        10.8950  -25.7770  -17.9850 C.ar      1 LTI1839     0.0000 
      5 C5          8.2370  -27.5110  -14.1870 C.2       1 LTI1839     0.0000 
      6 C18        12.2720  -27.7940  -17.8540 C.ar      1 LTI1839     0.0000 
      7 C19        10.9900  -27.1960  -17.9800 C.ar      1 LTI1839     0.0000 
      8 C1          8.2630  -27.6670  -15.6210 C.2       1 LTI1839     0.0000 
      9 C4          7.3380  -26.4760  -13.8760 C.2       1 LTI1839     0.0000 
     10 C10         8.9480  -28.2450  -13.1180 C.2       1 LTI1839     0.0000 
     11 C7          6.1130  -25.0490  -12.2380 C.2       1 LTI1839     0.0000 
     12 C17        12.4860  -29.2770  -17.8230 C.3       1 LTI1839     0.0000 
     13 C16        12.0320  -29.9220  -19.1090 C.3       1 LTI1839     0.0000 
     14 C15        10.5490  -30.2020  -19.0960 C.3       1 LTI1839     0.0000 
     15 C14         9.7540  -28.9280  -19.3110 C.3       1 LTI1839     0.0000 
     16 C13         9.7150  -27.9930  -18.0920 C.3       1 LTI1839     0.0000 
     17 N2          7.4910  -26.8530  -16.3430 N.pl3     1 LTI1839     0.0000 
     18 N12         9.9860  -29.0250  -13.5250 N.am      1 LTI1839     0.0000 
     19 N9          6.0130  -24.8860  -10.8790 N.am      1 LTI1839     0.0000 
     20 N6          7.0030  -26.0360  -12.5910 N.2       1 LTI1839     0.0000 
     21 O11         8.6470  -28.1510  -11.9300 O.2       1 LTI1839     0.0000 
     22 O8          5.4600  -24.3810  -13.0240 O.2       1 LTI1839     0.0000 
     23 S3          6.6570  -25.8130  -15.3220 S.3       1 LTI1839     0.0000 
     24 S24         9.2060  -28.8400  -16.5220 S.3       1 LTI1839     0.0000 
     25 H          14.1594  -24.9817  -17.6671 H         1 LTI1839     0.0000 
     26 H          11.9544  -23.9363  -17.8947 H         1 LTI1839     0.0000 
     27 H          14.3451  -27.4012  -17.6497 H         1 LTI1839     0.0000 
     28 H           9.9710  -25.3328  -18.0674 H         1 LTI1839     0.0000 
     29 H          11.9287  -29.7115  -16.9854 H         1 LTI1839     0.0000 
     30 H          13.5493  -29.4919  -17.6676 H         1 LTI1839     0.0000 
     31 H          12.5771  -30.8615  -19.2562 H         1 LTI1839     0.0000 
     32 H          12.2687  -29.2605  -19.9503 H         1 LTI1839     0.0000 
     33 H          10.2691  -30.6427  -18.1362 H         1 LTI1839     0.0000 
     34 H          10.3053  -30.9156  -19.8867 H         1 LTI1839     0.0000 
     35 H           8.7168  -29.1878  -19.5864 H         1 LTI1839     0.0000 
     36 H          10.1798  -28.3725  -20.1650 H         1 LTI1839     0.0000 
     37 H           8.8560  -27.2877  -18.2263 H         1 LTI1839     0.0000 
     38 H           7.3137  -26.7317  -17.2448 H         1 LTI1839     0.0000 
     39 H          10.1594  -29.0481  -14.5096 H         1 LTI1839     0.0000 
     40 H          10.4839  -29.5064  -12.8037 H         1 LTI1839     0.0000 
     41 H           6.5914  -25.4808  -10.3207 H         1 LTI1839     0.0000 
     42 H           5.3705  -24.1867  -10.5658 H         1 LTI1839     0.0000 
@<TRIPOS>BOND
     1    2    1 ar   
     2    3    1 ar   
     3   25    1 1    
     4    4    2 ar   
     5   26    2 1    
     6    6    3 ar   
     7   27    3 1    
     8    7    4 ar   
     9   28    4 1    
    10    8    5 2    
    11    9    5 1    
    12   10    5 1    
    13    7    6 ar   
    14   12    6 1    
    15   16    7 1    
    16   17    8 1    
    17   24    8 1    
    18   20    9 2    
    19   23    9 1    
    20   18   10 am   
    21   21   10 2    
    22   19   11 am   
    23   20   11 1    
    24   22   11 2    
    25   13   12 1    
    26   29   12 1    
    27   30   12 1    
    28   14   13 1    
    29   31   13 1    
    30   32   13 1    
    31   15   14 1    
    32   33   14 1    
    33   34   14 1    
    34   16   15 1    
    35   35   15 1    
    36   36   15 1    
    37   24   16 1    
    38   37   16 1    
    39   23   17 1    
    40   38   17 1    
    41   39   18 1    
    42   40   18 1    
    43   41   19 1    
    44   42   19 1    
@<TRIPOS>SUBSTRUCTURE
     1 LTI1839     1 GROUP   
@<TRIPOS>SET

