#    Name: 1i44_ACP_1_INTS_M
#    Modification time : Tue Mar 25 06:39:51 2014

@<TRIPOS>MOLECULE
1i44_ACP_1_INTS_M
   60     0    15     0     0
SMALL
NO_CHARGES


@<TRIPOS>ATOM
      1 Zn         16.3090   22.3930   18.5535 Zn        4 ZIC7        0.0000 
      2 Zn         16.9310   22.9540   19.4820 Zn       14 ZIL7        0.0000 
      3 Zn         15.6870   21.8320   17.6250 Zn        9 ZIP7        0.0000 
      4 N          13.9205   27.3685   18.6260 N.am      2 SEC2        0.0000 
      5 N          14.1260   26.1890   18.0460 N.am     12 SEL2        0.0000 
      6 N          13.7150   28.5480   19.2060 N.am      7 SEP2        0.0000 
      7 N          15.1225   27.3455   17.7865 N.am      2 SEC2        0.0000 
      8 N          16.1190   28.5020   17.5270 N.am      7 SEP2        0.0000 
      9 NZ         12.8555   24.1475   15.8815 N.4       3 LYC4        0.0000 
     10 NZ         14.2900   23.9190   17.0060 N.4      13 LYL4        0.0000 
     11 NZ         11.4210   24.3760   14.7570 N.4       8 LYP4        0.0000 
     12 Zn         14.9885   22.8755   17.3155 Zn        4 ZIC7        0.0000 
     13 Zn         14.2900   23.9190   17.0060 Zn       14 ZIL7        0.0000 
     14 NZ         11.3555   23.5510   15.9805 N.4       3 LYC4        0.0000 
     15 NZ         11.2900   22.7260   17.2040 N.4      13 LYL4        0.0000 
     16 N          11.3555   23.5510   15.9805 N.am      2 SEC2        0.0000 
     17 N          11.2900   22.7260   17.2040 N.am     12 SEL2        0.0000 
     18 N          11.4210   24.3760   14.7570 N.am      7 SEP2        0.0000 
     19 CA         10.6625   26.1045   20.0450 C.3       5 GLC5        0.0000 
     20 CA          9.9420   24.2710   20.5320 C.3      15 GLL5        0.0000 
     21 CA         11.3830   27.9380   19.5580 C.3      10 GLP5        0.0000 
     22 CA          8.8275   25.6015   19.1040 C.3       5 GLC5        0.0000 
     23 CA          7.7130   26.9320   17.6760 C.3      10 GLP5        0.0000 
     24 CA          7.2615   25.1050   21.9315 C.3       5 GLC5        0.0000 
     25 CA          8.6490   23.6940   21.0640 C.3      15 GLL5        0.0000 
     26 CA          5.8740   26.5160   22.7990 C.3      10 GLP5        0.0000 
     27 CA          4.6655   23.8465   20.1115 C.3       5 GLC5        0.0000 
     28 CA          6.6510   22.9840   20.0410 C.3      15 GLL5        0.0000 
     29 CA          2.6800   24.7090   20.1820 C.3      10 GLP5        0.0000 
     30 CA          6.1220   24.3680   18.5450 C.3       5 GLC5        0.0000 
     31 CA          5.5930   25.7520   17.0490 C.3      10 GLP5        0.0000 
     32 CA          5.4380   18.5145   15.7395 C.3       5 GLC5        0.0000 
     33 CA          5.5100   20.5960   15.9290 C.3      15 GLL5        0.0000 
     34 CA          5.3660   16.4330   15.5500 C.3      10 GLP5        0.0000 
     35 O           4.9850   19.6550   13.6425 O.2       1 ALC1        0.0000 
     36 O           5.8550   20.2950   14.6740 O.2      11 ALL1        0.0000 
     37 O           4.1150   19.0150   12.6110 O.2       6 ALP1        0.0000 
     38 N           3.5145   18.9220   16.0155 N.am      2 SEC2        0.0000 
     39 N           4.3790   20.0510   16.4380 N.am     12 SEL2        0.0000 
     40 N           2.6500   17.7930   15.5930 N.am      7 SEP2        0.0000 
     41 CA          2.9335   21.8885   17.9595 C.3       5 GLC5        0.0000 
     42 CA          4.0420   20.3450   17.7010 C.3      15 GLL5        0.0000 
     43 CA          1.8250   23.4320   18.2180 C.3      10 GLP5        0.0000 
     44 CA          3.8580   21.6135   15.9910 C.3       5 GLC5        0.0000 
     45 CA          3.6740   22.8820   14.2810 C.3      10 GLP5        0.0000 
     46 CA          2.3265   20.4590   16.9250 C.3       5 GLC5        0.0000 
     47 CA          0.6110   20.5730   16.1490 C.3      10 GLP5        0.0000 
     48 CA          4.2455   18.4790   17.2320 C.3       5 GLC5        0.0000 
     49 CA          4.4490   16.6130   16.7630 C.3      10 GLP5        0.0000 
     50 CA          3.8070   22.5435   18.1345 C.3       5 GLC5        0.0000 
     51 CA          5.7890   21.6550   18.0510 C.3      15 GLL5        0.0000 
     52 CA          6.8465   20.1705   18.7930 C.3       5 GLC5        0.0000 
     53 CA          7.9040   18.6860   19.5350 C.3      10 GLP5        0.0000 
     54 CA          7.8673   20.3670   20.3148 C.3       5 GLC5        0.0000 
     55 CA          7.0810   21.9240   21.0590 C.3      15 GLL5        0.0000 
     56 CA          5.8097   23.6525   17.2282 C.3       5 GLC5        0.0000 
     57 CA          7.0830   19.7297   17.0542 C.3       5 GLC5        0.0000 
     58 CA          8.2790   18.4360   17.7620 C.3      10 GLP5        0.0000 
     59 CA          4.7560   22.1106   15.7399 C.3       5 GLC5        0.0000 
     60 CA          6.2640   21.4510   16.7640 C.3      15 GLL5        0.0000 
@<TRIPOS>BOND
@<TRIPOS>SUBSTRUCTURE
     1 ALC1       35 GROUP        1 X    ALC  0     ROOT ALC X 1
     2 SEC2        4 GROUP        1 X    SEC  0     **** SEC X 2
     3 LYC4        9 GROUP        1 X    LYC  0     **** LYC X 4
     4 ZIC7        1 GROUP        1 X    ZIC  0     **** ZIC X 5
     5 GLC5       19 GROUP        1 X    GLC  0     **** GLC X 6
     6 ALP1       37 GROUP        1 Y    ALP  0     ROOT ALP Y 8
     7 SEP2        6 GROUP        1 Y    SEP  0     **** SEP Y 9
     8 LYP4       11 GROUP        1 Y    LYP  0     **** LYP Y 11
     9 ZIP7        3 GROUP        1 Y    ZIP  0     **** ZIP Y 12
    10 GLP5       21 GROUP        1 Y    GLP  0     **** GLP Y 13
    11 ALL1       36 GROUP        1 Z    ALL  0     ROOT ALL Z 15
    12 SEL2        5 GROUP        1 Z    SEL  0     **** SEL Z 16
    13 LYL4       10 GROUP        1 Z    LYL  0     **** LYL Z 18
    14 ZIL7        2 GROUP        1 Z    ZIL  0     **** ZIL Z 19
    15 GLL5       20 GROUP        1 Z    GLL  0     **** GLL Z 20
@<TRIPOS>SET

