#    Name: 1i44_ACP_1_ligand
#    Modification time : Tue Mar 25 06:39:51 2014

@<TRIPOS>MOLECULE
1i44_ACP_1_ligand
   45    47     1     0     0
SMALL
NO_CHARGES


@<TRIPOS>ATOM
      1 PG         16.4480   24.2660   19.9340 P.3       1 ACP300      0.0000 
      2 O1G        16.9310   22.9540   19.4820 O.co2     1 ACP300      0.0000 
      3 O2G        16.9750   25.4200   19.1470 O.co2     1 ACP300      0.0000 
      4 O3G        16.5500   24.4500   21.4090 O.co2     1 ACP300      0.0000 
      5 PB         13.9090   24.7300   18.1790 P.3       1 ACP300      0.0000 
      6 O1B        14.1260   26.1890   18.0460 O.co2     1 ACP300      0.0000 
      7 O2B        14.2900   23.9190   17.0060 O.co2     1 ACP300      0.0000 
      8 C3B        14.7610   24.2180   19.5750 C.3       1 ACP300      0.0000 
      9 PA         11.5480   23.2420   18.5700 P.3       1 ACP300      0.0000 
     10 O1A        11.2900   22.7260   17.2040 O.co2     1 ACP300      0.0000 
     11 O2A        12.1240   22.3370   19.5950 O.co2     1 ACP300      0.0000 
     12 O3A        12.4230   24.4920   18.4740 O.3       1 ACP300      0.0000 
     13 O5'        10.1700   23.8590   19.1570 O.3       1 ACP300      0.0000 
     14 C5'         9.9420   24.2710   20.5320 C.3       1 ACP300      0.0000 
     15 C4'         8.6490   23.6940   21.0640 C.3       1 ACP300      0.0000 
     16 O4'         7.5610   24.0680   20.1720 O.3       1 ACP300      0.0000 
     17 C3'         8.5800   22.1720   21.1300 C.3       1 ACP300      0.0000 
     18 O3'         9.1240   21.6770   22.3510 O.3       1 ACP300      0.0000 
     19 C2'         7.0810   21.9240   21.0590 C.3       1 ACP300      0.0000 
     20 O2'         6.4430   22.1670   22.2970 O.3       1 ACP300      0.0000 
     21 C1'         6.6510   22.9840   20.0410 C.3       1 ACP300      0.0000 
     22 N9          6.6950   22.5010   18.6550 N.pl3     1 ACP300      0.0000 
     23 C8          7.6460   22.7750   17.6950 C.2       1 ACP300      0.0000 
     24 N7          7.4340   22.1700   16.5510 N.2       1 ACP300      0.0000 
     25 C5          6.2640   21.4510   16.7640 C.ar      1 ACP300      0.0000 
     26 C6          5.5100   20.5960   15.9290 C.ar      1 ACP300      0.0000 
     27 N6          5.8550   20.2950   14.6740 N.pl3     1 ACP300      0.0000 
     28 N1          4.3790   20.0510   16.4380 N.ar      1 ACP300      0.0000 
     29 C2          4.0420   20.3450   17.7010 C.ar      1 ACP300      0.0000 
     30 N3          4.6730   21.1250   18.5880 N.ar      1 ACP300      0.0000 
     31 C4          5.7890   21.6550   18.0510 C.ar      1 ACP300      0.0000 
     32 H          14.2486   24.7392   20.4599 H         1 ACP300      0.0000 
     33 H          14.4458   23.1282   19.7487 H         1 ACP300      0.0000 
     34 H           9.8901   25.3670   20.6074 H         1 ACP300      0.0000 
     35 H          10.7645   23.9365   21.1810 H         1 ACP300      0.0000 
     36 H           8.4435   24.0878   22.0462 H         1 ACP300      0.0000 
     37 H           9.0247   21.7800   20.2591 H         1 ACP300      0.0000 
     38 H           6.9093   20.9806   20.6399 H         1 ACP300      0.0000 
     39 H           5.6536   23.3029   20.2968 H         1 ACP300      0.0000 
     40 H           8.4170   23.3864   17.8886 H         1 ACP300      0.0000 
     41 H           6.6986   20.7132   14.3372 H         1 ACP300      0.0000 
     42 H           5.2386   19.6785   14.1840 H         1 ACP300      0.0000 
     43 H           3.1051   19.8743   18.0641 H         1 ACP300      0.0000 
     44 H           8.3906   21.7824   23.0225 H         1 ACP300      0.0000 
     45 H           6.3262   23.1593   22.3375 H         1 ACP300      0.0000 
@<TRIPOS>BOND
     1    2    1 ar   
     2    3    1 ar   
     3    4    1 ar   
     4    8    1 1    
     5    6    5 ar   
     6    7    5 ar   
     7    8    5 1    
     8   12    5 1    
     9   32    8 1    
    10   33    8 1    
    11   10    9 ar   
    12   11    9 ar   
    13   12    9 1    
    14   13    9 1    
    15   14   13 1    
    16   15   14 1    
    17   34   14 1    
    18   35   14 1    
    19   16   15 1    
    20   17   15 1    
    21   36   15 1    
    22   21   16 1    
    23   18   17 1    
    24   19   17 1    
    25   37   17 1    
    26   44   18 1    
    27   20   19 1    
    28   21   19 1    
    29   38   19 1    
    30   45   20 1    
    31   22   21 1    
    32   39   21 1    
    33   23   22 1    
    34   31   22 1    
    35   24   23 2    
    36   40   23 1    
    37   25   24 1    
    38   26   25 ar   
    39   31   25 ar   
    40   27   26 1    
    41   28   26 ar   
    42   41   27 1    
    43   42   27 1    
    44   29   28 ar   
    45   30   29 ar   
    46   43   29 1    
    47   31   30 ar   
@<TRIPOS>SUBSTRUCTURE
     1 ACP300      1 GROUP   
@<TRIPOS>SET

