#    Name: 1KWQ_1_CAVITY_N1_ALL.mol2
#    Modification time : Mon Mar 10 13:06:07 2014

@<TRIPOS>MOLECULE
1KWQ_1_CAVITY_N1_ALL.mol2
   87     0     6     0     0
SMALL
NO_CHARGES


@<TRIPOS>ATOM
      1 CA         -1.9595    7.8002   15.4029 C.3       5 GLY6        0.0000 
      2 CZ         -3.1103    8.7110   15.0930 C.ar      4 PHE5        0.0000 
      3 N           0.5842    4.8083   11.6843 N.2       2 ALA2        0.0000 
      4 DU          0.6650    4.4182   10.2382 H         6 CUB7        0.0000 
      5 O           0.7457    4.0281    8.7920 O.2       2 ALA2        0.0000 
      6 O           0.8264    3.6380    7.3459 O.2       2 ALA2        0.0000 
      7 CA         -2.9182    6.6740   15.6531 C.3       5 GLY6        0.0000 
      8 CZ         -4.0690    7.5849   15.3432 C.ar      4 PHE5        0.0000 
      9 CA         -1.6867    5.3731   14.5169 C.3       5 GLY6        0.0000 
     10 CA         -2.8375    6.2839   14.2070 C.3       5 GLY6        0.0000 
     11 CZ         -3.9883    7.1948   13.8971 C.ar      4 PHE5        0.0000 
     12 N          -1.6060    4.9830   13.0708 N.2       2 ALA2        0.0000 
     13 DU         -2.7568    5.8939   12.7609 H         6 CUB7        0.0000 
     14 CZ         -3.9076    6.8047   12.4509 C.ar      4 PHE5        0.0000 
     15 CZ         -5.0584    7.7155   12.1410 C.ar      4 PHE5        0.0000 
     16 N          -0.3745    3.6821   11.9346 N.2       2 ALA2        0.0000 
     17 DU         -1.5253    4.5929   11.6246 H         6 CUB7        0.0000 
     18 DU         -3.8269    6.4146   11.0048 H         6 CUB7        0.0000 
     19 CZ         -0.2938    3.2920   10.4884 C.ar      4 PHE5        0.0000 
     20 DU         -1.4446    4.2029   10.1785 H         6 CUB7        0.0000 
     21 DU         -2.5954    5.1137    9.8686 H         6 CUB7        0.0000 
     22 O          -0.2131    2.9019    9.0423 O.2       2 ALA2        0.0000 
     23 O          -1.3639    3.8128    8.7324 O.2       2 ALA2        0.0000 
     24 CA         -5.1084    6.8488   17.0396 C.3       5 GLY6        0.0000 
     25 CA         -3.8769    5.5479   15.9034 C.3       5 GLY6        0.0000 
     26 CZ         -5.0277    6.4587   15.5935 C.ar      4 PHE5        0.0000 
     27 OG         -2.6454    4.2470   14.7672 O.2       1 SER1        0.0000 
     28 CA         -3.7962    5.1578   14.4573 C.3       5 GLY6        0.0000 
     29 CZ         -4.9470    6.0686   14.1473 C.ar      4 PHE5        0.0000 
     30 CZ         -6.0978    6.9794   13.8374 C.ar      4 PHE5        0.0000 
     31 OG         -2.5647    3.8569   13.3210 O.2       1 SER1        0.0000 
     32 DU         -3.7155    4.7677   13.0111 H         6 CUB7        0.0000 
     33 O          -4.8663    5.6785   12.7012 O.2       2 ALA2        0.0000 
     34 O          -6.0171    6.5894   12.3913 O.2       2 ALA2        0.0000 
     35 OG         -1.3332    2.5560   12.1848 O.2       1 SER1        0.0000 
     36 OG         -2.4840    3.4668   11.8749 O.2       1 SER1        0.0000 
     37 DU         -3.6348    4.3776   11.5650 H         6 CUB7        0.0000 
     38 O          -4.7856    5.2884   11.2551 O.2       2 ALA2        0.0000 
     39 O          -5.9364    6.1993   10.9451 O.2       2 ALA2        0.0000 
     40 O          -1.2525    2.1659   10.7387 O.2       2 ALA2        0.0000 
     41 O          -2.4033    3.0767   10.4288 O.2       2 ALA2        0.0000 
     42 O          -3.5541    3.9875   10.1188 O.2       2 ALA2        0.0000 
     43 O          -1.1718    1.7758    9.2925 O.2       2 ALA2        0.0000 
     44 CA         -3.6849    3.5109   16.4636 C.3       5 GLY6        0.0000 
     45 CA         -4.8357    4.4217   16.1537 C.3       5 GLY6        0.0000 
     46 CA         -5.9865    5.3325   15.8437 C.3       5 GLY6        0.0000 
     47 CA         -7.1373    6.2434   15.5338 C.3       5 GLY6        0.0000 
     48 OG         -3.6041    3.1208   15.0174 O.2       1 SER1        0.0000 
     49 DU         -4.7549    4.0316   14.7075 H         6 CUB7        0.0000 
     50 O          -5.9057    4.9425   14.3976 O.2       2 ALA2        0.0000 
     51 O          -7.0565    5.8533   14.0877 O.2       2 ALA2        0.0000 
     52 OG         -3.5234    2.7307   13.5713 O.2       1 SER1        0.0000 
     53 O          -4.6742    3.6415   13.2614 O.2       2 ALA2        0.0000 
     54 OG         -3.4427    2.3406   12.1252 O.2       1 SER1        0.0000 
     55 O          -4.5935    3.2515   11.8152 O.2       2 ALA2        0.0000 
     56 CZ         -1.0604    0.1289   11.2989 C.ar      4 PHE5        0.0000 
     57 OG         -2.2112    1.0397   10.9889 O.2       1 SER1        0.0000 
     58 O          -3.3620    1.9505   10.6790 O.2       2 ALA2        0.0000 
     59 N          -4.5128    2.8614   10.3691 N.2       2 ALA2        0.0000 
     60 O          -2.1305    0.6496    9.5428 O.2       2 ALA2        0.0000 
     61 CA         -4.6436    2.3847   16.7138 C.3       5 GLY6        0.0000 
     62 CA         -5.7944    3.2956   16.4039 C.3       5 GLY6        0.0000 
     63 CA         -6.9452    4.2064   16.0940 C.3       5 GLY6        0.0000 
     64 OG         -3.4121    1.0838   15.5776 O.2       1 SER1        0.0000 
     65 OG         -4.5629    1.9946   15.2677 O.2       1 SER1        0.0000 
     66 DU         -5.7137    2.9055   14.9578 H         6 CUB7        0.0000 
     67 CA         -6.8645    3.8163   14.6479 C.3       5 GLY6        0.0000 
     68 OG         -4.4822    1.6046   13.8216 O.2       1 SER1        0.0000 
     69 N          -5.6330    2.5154   13.5116 N.2       2 ALA2        0.0000 
     70 CA         -3.2506    0.3036   12.6853 C.3       5 GLY6        0.0000 
     71 N          -4.4014    1.2145   12.3754 N.2       2 ALA2        0.0000 
     72 O          -5.5522    2.1253   12.0655 O.2       2 ALA2        0.0000 
     73 CA         -2.0191   -0.9973   11.5491 C.3       5 GLY6        0.0000 
     74 CA         -3.1699   -0.0864   11.2392 C.3       5 GLY6        0.0000 
     75 O          -4.3207    0.8244   10.9293 O.2       2 ALA2        0.0000 
     76 N          -5.4715    1.7352   10.6194 N.2       2 ALA2        0.0000 
     77 CA         -3.0892   -0.4765    9.7931 C.3       5 GLY6        0.0000 
     78 O          -4.2400    0.4343    9.4831 O.2       2 ALA2        0.0000 
     79 CA         -5.6830    1.6487   18.4102 C.3       5 GLY6        0.0000 
     80 CA         -6.8338    2.5595   18.1003 C.3       5 GLY6        0.0000 
     81 O          -5.6023    1.2586   16.9641 O.2       2 ALA2        0.0000 
     82 CA         -6.7531    2.1694   16.6542 C.3       5 GLY6        0.0000 
     83 OD1        -5.5216    0.8685   15.5180 O.3       3 ASP3        0.0000 
     84 N          -6.6724    1.7793   15.2080 N.2       2 ALA2        0.0000 
     85 CA         -4.2094   -0.8225   12.9356 C.3       5 GLY6        0.0000 
     86 CA         -4.1287   -1.2126   11.4895 C.3       5 GLY6        0.0000 
     87 CA         -5.2795   -0.3018   11.1796 C.3       5 GLY6        0.0000 
@<TRIPOS>BOND
@<TRIPOS>SUBSTRUCTURE
     1 SER1       27 GROUP   
     2 ALA2        3 GROUP   
     3 ASP3       83 GROUP   
     4 PHE5        2 GROUP   
     5 GLY6        1 GROUP   
     6 CUB7        4 GROUP   
@<TRIPOS>SET

