#    Name: 1kwq_SG1_1_INTS_M
#    Modification time : Tue Mar 25 10:38:34 2014

@<TRIPOS>MOLECULE
1kwq_SG1_1_INTS_M
   35     0    12     0     0
SMALL
NO_CHARGES


@<TRIPOS>ATOM
      1 CA         -3.2305    2.7600   17.0280 C.3       4 GLC5        0.0000 
      2 CA         -4.0920    2.0470   15.1140 C.3      12 GLL5        0.0000 
      3 CA         -2.3690    3.4730   18.9420 C.3       8 GLP5        0.0000 
      4 CA         -2.9170    0.4815   14.8675 C.3       4 GLC5        0.0000 
      5 CA         -1.7420   -1.0840   14.6210 C.3       8 GLP5        0.0000 
      6 CA         -2.0520    1.5000   14.5490 C.3       4 GLC5        0.0000 
      7 CA         -3.5130    3.1030   14.4010 C.3      12 GLL5        0.0000 
      8 CA         -0.5910   -0.1030   14.6970 C.3       8 GLP5        0.0000 
      9 CA         -3.1620    5.0335   16.0870 C.3       4 GLC5        0.0000 
     10 CA         -4.1280    4.3520   14.3190 C.3      12 GLL5        0.0000 
     11 CA         -2.1960    5.7150   17.8550 C.3       8 GLP5        0.0000 
     12 CA         -3.7415    8.8245   13.3245 C.3       4 GLC5        0.0000 
     13 CA         -2.3660    7.2290   12.7130 C.3      12 GLL5        0.0000 
     14 CA         -5.1170   10.4200   13.9360 C.3       8 GLP5        0.0000 
     15 CA         -4.2825    7.9440   14.3100 C.3       4 GLC5        0.0000 
     16 CA         -2.8320    6.4740   13.9680 C.3      12 GLL5        0.0000 
     17 CA         -5.7330    9.4140   14.6520 C.3       8 GLP5        0.0000 
     18 CA         -2.5140    6.0945   15.9115 C.3       4 GLC5        0.0000 
     19 CA         -0.7550    6.3305   14.7245 C.3       4 GLC5        0.0000 
     20 CA          1.3220    6.1870   15.4810 C.3       8 GLP5        0.0000 
     21 CA         -7.7950    3.5140   15.4145 C.3       4 GLC5        0.0000 
     22 CA         -5.8810    3.5280   15.7500 C.3      12 GLL5        0.0000 
     23 CA         -9.7090    3.5000   15.0790 C.3       8 GLP5        0.0000 
     24 O          -4.6055   -1.2855   16.8135 O.2       1 ALC1        0.0000 
     25 O          -5.5400   -0.3800   16.0660 O.2       9 ALL1        0.0000 
     26 O          -3.6710   -2.1910   17.5610 O.2       5 ALP1        0.0000 
     27 Zn         -6.2230   -1.0625   15.6725 Zn        3 ZIC7        0.0000 
     28 Zn         -5.5400   -0.3800   16.0660 Zn       11 ZIL7        0.0000 
     29 Zn         -6.9060   -1.7450   15.2790 Zn        7 ZIP7        0.0000 
     30 N          -4.1255    0.6380   18.5955 N.am      2 SEC2        0.0000 
     31 N          -5.4840    1.0100   18.1030 N.am     10 SEL2        0.0000 
     32 N          -2.7670    0.2660   19.0880 N.am      6 SEP2        0.0000 
     33 CA         -4.8859    4.3349   17.1116 C.3       4 GLC5        0.0000 
     34 CA         -5.2920    2.2570   15.7850 C.3      12 GLL5        0.0000 
     35 CA         -4.3490    4.9230   18.7800 C.3       8 GLP5        0.0000 
@<TRIPOS>BOND
@<TRIPOS>SUBSTRUCTURE
     1 ALC1       24 GROUP        1 X    ALC  0     ROOT ALC X 1
     2 SEC2       30 GROUP        1 X    SEC  0     **** SEC X 2
     3 ZIC7       27 GROUP        1 X    ZIC  0     **** ZIC X 5
     4 GLC5        1 GROUP        1 X    GLC  0     **** GLC X 6
     5 ALP1       26 GROUP        1 Y    ALP  0     ROOT ALP Y 8
     6 SEP2       32 GROUP        1 Y    SEP  0     **** SEP Y 9
     7 ZIP7       29 GROUP        1 Y    ZIP  0     **** ZIP Y 12
     8 GLP5        3 GROUP        1 Y    GLP  0     **** GLP Y 13
     9 ALL1       25 GROUP        1 Z    ALL  0     ROOT ALL Z 15
    10 SEL2       31 GROUP        1 Z    SEL  0     **** SEL Z 16
    11 ZIL7       28 GROUP        1 Z    ZIL  0     **** ZIL Z 19
    12 GLL5        2 GROUP        1 Z    GLL  0     **** GLL Z 20
@<TRIPOS>SET

