#    Name: 1kwq_SG1_1_ligand
#    Modification time : Tue Mar 25 10:38:35 2014

@<TRIPOS>MOLECULE
1kwq_SG1_1_ligand
   29    30     1     0     0
SMALL
NO_CHARGES


@<TRIPOS>ATOM
      1 S1         -6.0500    0.9850   16.7860 S.o2      1 SG1900      0.0000 
      2 C2         -5.2920    2.2570   15.7850 C.ar      1 SG1900      0.0000 
      3 C3         -4.0920    2.0470   15.1140 C.ar      1 SG1900      0.0000 
      4 C4         -3.5130    3.1030   14.4010 C.ar      1 SG1900      0.0000 
      5 C5         -4.1280    4.3520   14.3190 C.ar      1 SG1900      0.0000 
      6 N6         -3.5760    5.3350   13.4460 N.am      1 SG1900      0.0000 
      7 C7         -3.7390    5.3400   12.1200 C.2       1 SG1900      0.0000 
      8 O8         -4.3620    4.5140   11.4390 O.2       1 SG1900      0.0000 
      9 C9         -3.0160    6.5160   11.5130 C.3       1 SG1900      0.0000 
     10 C10        -2.3660    7.2290   12.7130 C.3       1 SG1900      0.0000 
     11 C11        -2.8320    6.4740   13.9680 C.3       1 SG1900      0.0000 
     12 C12        -5.2590    4.6010   15.1190 C.ar      1 SG1900      0.0000 
     13 N13        -5.7670    5.8480   15.3280 N.pl3     1 SG1900      0.0000 
     14 O14        -5.3480    6.4690   16.2870 O.2       1 SG1900      0.0000 
     15 O15        -6.6120    6.2640   14.5560 O.2       1 SG1900      0.0000 
     16 C16        -5.8810    3.5280   15.7500 C.ar      1 SG1900      0.0000 
     17 N17        -5.5400   -0.3800   16.0660 N.pl3     1 SG1900      0.0000 
     18 O18        -7.4870    1.1090   16.6300 O.2       1 SG1900      0.0000 
     19 O19        -5.4840    1.0100   18.1030 O.2       1 SG1900      0.0000 
     20 H          -3.6352    1.1336   15.1389 H         1 SG1900      0.0000 
     21 H          -2.6052    2.9510   13.9231 H         1 SG1900      0.0000 
     22 H          -3.7069    7.1769   11.0465 H         1 SG1900      0.0000 
     23 H          -2.2536    6.1821   10.8503 H         1 SG1900      0.0000 
     24 H          -2.7081    8.2396   12.7551 H         1 SG1900      0.0000 
     25 H          -1.3031    7.1669   12.6314 H         1 SG1900      0.0000 
     26 H          -1.9679    6.1644   14.5171 H         1 SG1900      0.0000 
     27 H          -3.4566    7.1252   14.5424 H         1 SG1900      0.0000 
     28 H          -6.8018    3.6680   16.2061 H         1 SG1900      0.0000 
     29 H          -4.9099   -0.7979   16.7205 H         1 SG1900      0.0000 
@<TRIPOS>BOND
     1    2    1 1    
     2   17    1 1    
     3   18    1 2    
     4   19    1 2    
     5    3    2 ar   
     6   16    2 ar   
     7    4    3 ar   
     8   20    3 1    
     9    5    4 ar   
    10   21    4 1    
    11    6    5 1    
    12   12    5 ar   
    13    7    6 am   
    14   11    6 1    
    15    8    7 2    
    16    9    7 1    
    17   10    9 1    
    18   22    9 1    
    19   23    9 1    
    20   11   10 1    
    21   24   10 1    
    22   25   10 1    
    23   26   11 1    
    24   27   11 1    
    25   13   12 1    
    26   16   12 ar   
    27   14   13 2    
    28   15   13 2    
    29   28   16 1    
    30   29   17 1    
@<TRIPOS>SUBSTRUCTURE
     1 SG1900      1 GROUP   
@<TRIPOS>SET

