#    Name: 4ewo_996_1_INTS_M
#    Modification time : Mon Mar 24 18:43:25 2014

@<TRIPOS>MOLECULE
4ewo_996_1_INTS_M
   61     0     9     0     0
SMALL
NO_CHARGES


@<TRIPOS>ATOM
      1 N           8.5385    3.2560  -18.3895 N.am      2 SEC2        0.0000 
      2 N           7.4040    2.2460  -18.3460 N.am      8 SEL2        0.0000 
      3 N           9.6730    4.2660  -18.4330 N.am      5 SEP2        0.0000 
      4 CA          8.1455    1.9290  -16.4530 C.3       3 GLC5        0.0000 
      5 CA          6.6080    0.5340  -16.7480 C.3       9 GLL5        0.0000 
      6 CA          9.6830    3.3240  -16.1580 C.3       6 GLP5        0.0000 
      7 CA          4.7145    0.4580  -15.8070 C.3       3 GLC5        0.0000 
      8 CA          2.8210    0.3820  -14.8660 C.3       6 GLP5        0.0000 
      9 O           4.1750    0.8300  -17.9830 O.2       1 ALC1        0.0000 
     10 O           5.2140    1.6710  -18.3530 O.2       7 ALL1        0.0000 
     11 O           3.1360   -0.0110  -17.6130 O.2       4 ALP1        0.0000 
     12 CA          2.4890    1.2315  -19.3025 C.3       3 GLC5        0.0000 
     13 CA          4.0930    1.6950  -20.5280 C.3       9 GLL5        0.0000 
     14 CA          0.8850    0.7680  -18.0770 C.3       6 GLP5        0.0000 
     15 CA          7.3385    2.2815  -21.0895 C.3       3 GLC5        0.0000 
     16 CA          6.3210    0.5690  -21.2330 C.3       9 GLL5        0.0000 
     17 CA          8.3560    3.9940  -20.9460 C.3       6 GLP5        0.0000 
     18 CA          2.4065    2.2325  -18.5075 C.3       3 GLC5        0.0000 
     19 CA          3.9280    3.6970  -18.9380 C.3       9 GLL5        0.0000 
     20 O           2.6225    4.2425  -20.7305 O.2       1 ALC1        0.0000 
     21 O           3.5530    4.6330  -19.9890 O.2       7 ALL1        0.0000 
     22 O           1.6920    3.8520  -21.4720 O.2       4 ALP1        0.0000 
     23 CA          3.9785    8.6030  -17.2660 C.3       3 GLC5        0.0000 
     24 CA          4.6650    6.7960  -16.9890 C.3       9 GLL5        0.0000 
     25 CA          3.2920   10.4100  -17.5430 C.3       6 GLP5        0.0000 
     26 CA          4.5600    9.6795  -16.3520 C.3       3 GLC5        0.0000 
     27 CA          5.8280    8.9490  -15.1610 C.3       9 GLL5        0.0000 
     28 CA          3.8865    8.5940  -14.7155 C.3       3 GLC5        0.0000 
     29 CA          1.9450    8.2390  -14.2700 C.3       6 GLP5        0.0000 
     30 CA          8.3645    8.4210  -13.0550 C.3       3 GLC5        0.0000 
     31 CA          7.1650    7.2050  -14.0090 C.3       9 GLL5        0.0000 
     32 CA          9.5640    9.6370  -12.1010 C.3       6 GLP5        0.0000 
     33 CA          5.8610    6.7550  -12.5505 C.3       3 GLC5        0.0000 
     34 CA          4.5570    6.3050  -11.0920 C.3       6 GLP5        0.0000 
     35 CA          3.8330    7.2190  -20.8875 C.3       3 GLC5        0.0000 
     36 CA          5.2990    7.5440  -19.3850 C.3       9 GLL5        0.0000 
     37 CA          2.3670    6.8940  -22.3900 C.3       6 GLP5        0.0000 
     38 CA          7.1785    7.7120  -23.3055 C.3       3 GLC5        0.0000 
     39 CA          6.8770    8.4540  -21.2270 C.3       9 GLL5        0.0000 
     40 CA          7.4800    6.9700  -25.3840 C.3       6 GLP5        0.0000 
     41 CA          6.5445    6.5425  -21.6685 C.3       3 GLC5        0.0000 
     42 CA          6.2120    4.6310  -22.1100 C.3       6 GLP5        0.0000 
     43 CA          3.6930    8.5460  -21.8455 C.3       3 GLC5        0.0000 
     44 CA          5.0190   10.1980  -21.3010 C.3       9 GLL5        0.0000 
     45 CA          3.2380   10.9485  -20.8760 C.3       3 GLC5        0.0000 
     46 CA          1.4570   11.6990  -20.4510 C.3       6 GLP5        0.0000 
     47 CA          4.1555   10.3040  -19.4220 C.3       3 GLC5        0.0000 
     48 CA          7.1280    8.5235  -24.2205 C.3       3 GLC5        0.0000 
     49 CA          6.7760   10.0770  -23.0570 C.3       9 GLL5        0.0000 
     50 CA          7.2115   10.9280  -24.8355 C.3       3 GLC5        0.0000 
     51 CA          7.6470   11.7790  -26.6140 C.3       6 GLP5        0.0000 
     52 CA          5.3338    3.3768  -21.0605 C.3       3 GLC5        0.0000 
     53 CA          4.8180    2.5500  -19.4940 C.3       9 GLL5        0.0000 
     54 CA          2.9670   -0.0955  -21.5907 C.3       3 GLC5        0.0000 
     55 CA          1.4190   -1.2850  -22.4120 C.3       6 GLP5        0.0000 
     56 CA          3.0070   -1.2875  -21.9008 C.3       3 GLC5        0.0000 
     57 CA          4.2360   -0.7120  -21.1990 C.3       9 GLL5        0.0000 
     58 CA          3.5617    0.9755  -22.5076 C.3       3 GLC5        0.0000 
     59 CA          2.7480    1.7600  -24.0310 C.3       6 GLP5        0.0000 
     60 CA          5.2725    4.3620  -20.2610 C.3       3 GLC5        0.0000 
     61 CA          3.5288    7.4138  -15.3202 C.3       3 GLC5        0.0000 
@<TRIPOS>BOND
@<TRIPOS>SUBSTRUCTURE
     1 ALC1        9 GROUP        1 X    ALC  0     ROOT ALC X 1
     2 SEC2        1 GROUP        1 X    SEC  0     **** SEC X 2
     3 GLC5        4 GROUP        1 X    GLC  0     **** GLC X 6
     4 ALP1       11 GROUP        1 Y    ALP  0     ROOT ALP Y 8
     5 SEP2        3 GROUP        1 Y    SEP  0     **** SEP Y 9
     6 GLP5        6 GROUP        1 Y    GLP  0     **** GLP Y 13
     7 ALL1       10 GROUP        1 Z    ALL  0     ROOT ALL Z 15
     8 SEL2        2 GROUP        1 Z    SEL  0     **** SEL Z 16
     9 GLL5        5 GROUP        1 Z    GLL  0     **** GLL Z 20
@<TRIPOS>SET

