#    Name: 4ewo_996_1_ligand
#    Modification time : Mon Mar 24 18:43:25 2014

@<TRIPOS>MOLECULE
4ewo_996_1_ligand
   71    73     1     0     0
SMALL
NO_CHARGES


@<TRIPOS>ATOM
      1 O21         7.4040    2.2460  -18.3460 O.2       1 996501      0.0000 
      2 C6          6.4500    1.5560  -17.8960 C.2       1 996501      0.0000 
      3 C5          6.6080    0.5340  -16.7480 C.3       1 996501      0.0000 
      4 N7          5.2140    1.6710  -18.3530 N.am      1 996501      0.0000 
      5 C8          4.8180    2.5500  -19.4940 C.3       1 996501      0.0000 
      6 C13         4.0930    1.6950  -20.5280 C.3       1 996501      0.0000 
      7 C22         4.9370    0.4930  -21.0110 C.ar      1 996501      0.0000 
      8 C23         6.3210    0.5690  -21.2330 C.ar      1 996501      0.0000 
      9 C24         7.0220   -0.6210  -21.6200 C.ar      1 996501      0.0000 
     10 C25         6.3180   -1.8200  -21.8300 C.ar      1 996501      0.0000 
     11 C26         4.9540   -1.8680  -21.5800 C.ar      1 996501      0.0000 
     12 C27         4.2360   -0.7120  -21.1990 C.ar      1 996501      0.0000 
     13 C9          3.9280    3.6970  -18.9380 C.3       1 996501      0.0000 
     14 O1          3.5530    4.6330  -19.9890 O.3       1 996501      0.0000 
     15 C10         4.7380    4.4890  -17.8860 C.3       1 996501      0.0000 
     16 N11         3.9380    5.6150  -17.4350 N.4       1 996501      0.0000 
     17 C12         4.6650    6.7960  -16.9890 C.3       1 996501      0.0000 
     18 C17         5.6100    7.3270  -18.0230 C.2       1 996501      0.0000 
     19 C16         6.9880    7.7180  -17.7730 C.2       1 996501      0.0000 
     20 C14         7.6050    7.5980  -16.3910 C.3       1 996501      0.0000 
     21 C2          6.4660    7.5670  -15.3380 C.3       1 996501      0.0000 
     22 C3          5.8280    8.9490  -15.1610 C.3       1 996501      0.0000 
     23 C4          7.1650    7.2050  -14.0090 C.3       1 996501      0.0000 
     24 C15         5.5600    6.3810  -15.7520 C.3       1 996501      0.0000 
     25 N20         7.5310    8.1470  -18.9500 N.2       1 996501      0.0000 
     26 N19         6.4910    8.0310  -19.8920 N.pl3     1 996501      0.0000 
     27 C18         5.2990    7.5440  -19.3850 C.2       1 996501      0.0000 
     28 C28         6.8770    8.4540  -21.2270 C.3       1 996501      0.0000 
     29 C29         6.5120    9.8980  -21.5670 C.3       1 996501      0.0000 
     30 C30         5.0190   10.1980  -21.3010 C.3       1 996501      0.0000 
     31 C31         7.3990   10.8770  -20.7310 C.3       1 996501      0.0000 
     32 C32         6.7760   10.0770  -23.0570 C.3       1 996501      0.0000 
     33 H           4.4077    1.1363  -17.9311 H         1 996501      0.0000 
     34 H           5.6945    2.9788  -19.9328 H         1 996501      0.0000 
     35 H           3.8366    2.3127  -21.3960 H         1 996501      0.0000 
     36 H           3.1598    1.3155  -20.0969 H         1 996501      0.0000 
     37 H           6.8253    1.4367  -21.1262 H         1 996501      0.0000 
     38 H           8.0342   -0.5847  -21.7400 H         1 996501      0.0000 
     39 H           6.8168   -2.6486  -22.1657 H         1 996501      0.0000 
     40 H           4.4425   -2.7624  -21.6713 H         1 996501      0.0000 
     41 H           3.2317   -0.7535  -21.0640 H         1 996501      0.0000 
     42 H           3.0798    3.2776  -18.4587 H         1 996501      0.0000 
     43 H           5.6614    4.8174  -18.3554 H         1 996501      0.0000 
     44 H           4.9726    3.8126  -17.0686 H         1 996501      0.0000 
     45 H           4.0181    7.5662  -16.6474 H         1 996501      0.0000 
     46 H           8.2369    8.4492  -16.1927 H         1 996501      0.0000 
     47 H           8.1705    6.6827  -16.3164 H         1 996501      0.0000 
     48 H           6.1694    5.5420  -16.0403 H         1 996501      0.0000 
     49 H           4.9097    6.1186  -14.9355 H         1 996501      0.0000 
     50 H           4.5071    7.3947  -19.8047 H         1 996501      0.0000 
     51 H           6.4091    7.7981  -21.9960 H         1 996501      0.0000 
     52 H           7.9757    8.3413  -21.3709 H         1 996501      0.0000 
     53 H           7.2619   -0.1863  -16.9794 H         1 996501      0.0000 
     54 H           6.9341    0.9669  -15.9076 H         1 996501      0.0000 
     55 H           5.7420    0.0844  -16.5292 H         1 996501      0.0000 
     56 H           6.4952    9.6302  -14.8596 H         1 996501      0.0000 
     57 H           5.4297    9.2862  -16.0140 H         1 996501      0.0000 
     58 H           5.0952    8.9354  -14.4806 H         1 996501      0.0000 
     59 H           7.6247    6.3184  -14.0606 H         1 996501      0.0000 
     60 H           7.8583    7.8805  -13.7580 H         1 996501      0.0000 
     61 H           6.5162    7.1549  -13.2497 H         1 996501      0.0000 
     62 H           4.7758   10.0512  -20.3422 H         1 996501      0.0000 
     63 H           4.7856   11.1452  -21.5208 H         1 996501      0.0000 
     64 H           4.4196    9.6138  -21.8482 H         1 996501      0.0000 
     65 H           8.3725   10.7516  -20.9225 H         1 996501      0.0000 
     66 H           7.1826   11.8334  -20.9269 H         1 996501      0.0000 
     67 H           7.2741   10.7436  -19.7478 H         1 996501      0.0000 
     68 H           7.7348    9.9104  -23.2869 H         1 996501      0.0000 
     69 H           6.2286    9.4483  -23.6093 H         1 996501      0.0000 
     70 H           6.5576   11.0032  -23.3642 H         1 996501      0.0000 
     71 H           3.1797    4.0635  -20.7214 H         1 996501      0.0000 
@<TRIPOS>BOND
     1    2    1 2    
     2    3    2 1    
     3    4    2 am   
     4   53    3 1    
     5   54    3 1    
     6   55    3 1    
     7    5    4 1    
     8   33    4 1    
     9    6    5 1    
    10   13    5 1    
    11   34    5 1    
    12    7    6 1    
    13   35    6 1    
    14   36    6 1    
    15    8    7 ar   
    16   12    7 ar   
    17    9    8 ar   
    18   37    8 1    
    19   10    9 ar   
    20   38    9 1    
    21   11   10 ar   
    22   39   10 1    
    23   12   11 ar   
    24   40   11 1    
    25   41   12 1    
    26   14   13 1    
    27   15   13 1    
    28   42   13 1    
    29   71   14 1    
    30   16   15 1    
    31   43   15 1    
    32   44   15 1    
    33   17   16 1    
    34   18   17 1    
    35   24   17 1    
    36   45   17 1    
    37   19   18 1    
    38   27   18 2    
    39   20   19 1    
    40   25   19 2    
    41   21   20 1    
    42   46   20 1    
    43   47   20 1    
    44   22   21 1    
    45   23   21 1    
    46   24   21 1    
    47   56   22 1    
    48   57   22 1    
    49   58   22 1    
    50   59   23 1    
    51   60   23 1    
    52   61   23 1    
    53   48   24 1    
    54   49   24 1    
    55   26   25 1    
    56   27   26 1    
    57   28   26 1    
    58   50   27 1    
    59   29   28 1    
    60   51   28 1    
    61   52   28 1    
    62   30   29 1    
    63   31   29 1    
    64   32   29 1    
    65   62   30 1    
    66   63   30 1    
    67   64   30 1    
    68   65   31 1    
    69   66   31 1    
    70   67   31 1    
    71   68   32 1    
    72   69   32 1    
    73   70   32 1    
@<TRIPOS>SUBSTRUCTURE
     1 996501      1 GROUP   
@<TRIPOS>SET

