#    Name: 4i0r_1B4_1_INTS_M
#    Modification time : Tue Mar 25 02:09:32 2014

@<TRIPOS>MOLECULE
4i0r_1B4_1_INTS_M
   64     0     9     0     0
SMALL
NO_CHARGES


@<TRIPOS>ATOM
      1 N           3.8700   -2.0915   17.3445 N.am      2 SEC2        0.0000 
      2 N           3.6160   -1.2230   16.1340 N.am      8 SEL2        0.0000 
      3 N           4.1240   -2.9600   18.5550 N.am      5 SEP2        0.0000 
      4 CA          3.9790   -1.8175   14.6025 C.3       3 GLC5        0.0000 
      5 CA          2.3220   -1.2460   15.8490 C.3       9 GLL5        0.0000 
      6 CA          5.6360   -2.3890   13.3560 C.3       6 GLP5        0.0000 
      7 CA          2.6940   -3.0675   15.7195 C.3       3 GLC5        0.0000 
      8 CA          3.0660   -4.8890   15.5900 C.3       6 GLP5        0.0000 
      9 CA          2.7390   -1.1525   17.8055 C.3       3 GLC5        0.0000 
     10 CA          3.1560   -1.0590   19.7620 C.3       6 GLP5        0.0000 
     11 CA          3.7845   -0.6770   17.6845 C.3       3 GLC5        0.0000 
     12 CA          4.4130   -0.2950   15.6070 C.3       9 GLL5        0.0000 
     13 CA          7.5375    1.4530   16.3315 C.3       3 GLC5        0.0000 
     14 CA          6.0920    1.0710   14.9710 C.3       9 GLL5        0.0000 
     15 CA          8.9830    1.8350   17.6920 C.3       6 GLP5        0.0000 
     16 O           6.6985   -1.0080   16.3670 O.2       1 ALC1        0.0000 
     17 O           5.7580   -0.0150   15.7200 O.2       7 ALL1        0.0000 
     18 O           7.6390   -2.0010   17.0140 O.2       4 ALP1        0.0000 
     19 CA         -1.4245   -3.7100   14.3040 C.3       3 GLC5        0.0000 
     20 CA         -2.0680   -3.1450   16.2900 C.3       9 GLL5        0.0000 
     21 CA         -0.7810   -4.2750   12.3180 C.3       6 GLP5        0.0000 
     22 CA         -0.3280   -4.3520   16.0140 C.3       3 GLC5        0.0000 
     23 CA          1.4120   -5.5590   15.7380 C.3       6 GLP5        0.0000 
     24 CA         -1.8175   -1.6765   17.3775 C.3       3 GLC5        0.0000 
     25 CA         -1.5670   -0.2080   18.4650 C.3       6 GLP5        0.0000 
     26 CA         -3.0290   -1.8820   11.2885 C.3       3 GLC5        0.0000 
     27 CA         -4.1840   -1.2350   12.8690 C.3       9 GLL5        0.0000 
     28 CA         -1.8740   -2.5290    9.7080 C.3       6 GLP5        0.0000 
     29 CA          0.0330    1.6220   10.8335 C.3       3 GLC5        0.0000 
     30 CA         -1.2110    2.5530   12.1350 C.3       9 GLL5        0.0000 
     31 CA          1.2770    0.6910    9.5320 C.3       6 GLP5        0.0000 
     32 CA         -1.8300    2.8645   14.1145 C.3       3 GLC5        0.0000 
     33 CA         -2.4490    3.1760   16.0940 C.3       6 GLP5        0.0000 
     34 CA          1.6610    2.4370   10.6055 C.3       3 GLC5        0.0000 
     35 CA          2.0450    4.1830   11.6790 C.3       9 GLL5        0.0000 
     36 CA          4.3025    5.4130   15.3540 C.3       3 GLC5        0.0000 
     37 CA          3.0240    5.5300   13.5400 C.3       9 GLL5        0.0000 
     38 CA          5.5810    5.2960   17.1680 C.3       6 GLP5        0.0000 
     39 CA          4.1295    7.0725   13.8355 C.3       3 GLC5        0.0000 
     40 CA          5.2350    8.6150   14.1310 C.3       6 GLP5        0.0000 
     41 CA          1.2075   -1.7048   13.3197 C.3       3 GLC5        0.0000 
     42 CA          1.7670   -0.3020   14.9670 C.3       9 GLL5        0.0000 
     43 CA          1.3770   -3.1080   11.8330 C.3       6 GLP5        0.0000 
     44 CA         -0.8433   -0.4908   16.7010 C.3       3 GLC5        0.0000 
     45 CA          0.3090   -0.3010   14.6460 C.3       9 GLL5        0.0000 
     46 CA         -1.2822    0.5212   15.8360 C.3       3 GLC5        0.0000 
     47 CA         -0.5480   -1.2460   15.2280 C.3       9 GLL5        0.0000 
     48 CA         -2.4450    1.8160   16.7350 C.3       6 GLP5        0.0000 
     49 CA          2.8098    0.7570   16.4505 C.3       3 GLC5        0.0000 
     50 CA          3.5750    2.2880   17.4930 C.3       6 GLP5        0.0000 
     51 CA          7.0128    1.2833   13.4075 C.3       3 GLC5        0.0000 
     52 CA          8.4900    1.2640   12.1690 C.3       6 GLP5        0.0000 
     53 CA         -1.0053   -2.7595   13.7037 C.3       3 GLC5        0.0000 
     54 CA         -1.8715   -0.4835   16.4892 C.3       3 GLC5        0.0000 
     55 CA         -1.9110   -1.2420   14.9510 C.3       9 GLL5        0.0000 
     56 CA         -2.3105    0.5285   15.6242 C.3       3 GLC5        0.0000 
     57 CA         -1.6797    1.2470   15.1875 C.3       3 GLC5        0.0000 
     58 CA         -1.5990    0.6890   13.4970 C.3       9 GLL5        0.0000 
     59 CA         -0.9330   -0.9401   12.2559 C.3       3 GLC5        0.0000 
     60 CA         -2.4410   -0.2760   14.0760 C.3       9 GLL5        0.0000 
     61 CA         -0.7410   -2.3170   10.7270 C.3       6 GLP5        0.0000 
     62 CA          5.2364   -0.8232   14.1318 C.3       3 GLC5        0.0000 
     63 CA          3.8630    0.6600   14.7310 C.3       9 GLL5        0.0000 
     64 CA          4.2059    1.5152   16.2002 C.3       3 GLC5        0.0000 
@<TRIPOS>BOND
@<TRIPOS>SUBSTRUCTURE
     1 ALC1       16 GROUP        1 X    ALC  0     ROOT ALC X 1
     2 SEC2        1 GROUP        1 X    SEC  0     **** SEC X 2
     3 GLC5        4 GROUP        1 X    GLC  0     **** GLC X 6
     4 ALP1       18 GROUP        1 Y    ALP  0     ROOT ALP Y 8
     5 SEP2        3 GROUP        1 Y    SEP  0     **** SEP Y 9
     6 GLP5        6 GROUP        1 Y    GLP  0     **** GLP Y 13
     7 ALL1       17 GROUP        1 Z    ALL  0     ROOT ALL Z 15
     8 SEL2        2 GROUP        1 Z    SEL  0     **** SEL Z 16
     9 GLL5        5 GROUP        1 Z    GLL  0     **** GLL Z 20
@<TRIPOS>SET

