#    Name: 4i0r_1B4_1_ligand
#    Modification time : Tue Mar 25 02:09:32 2014

@<TRIPOS>MOLECULE
4i0r_1B4_1_ligand
   49    51     1     0     0
SMALL
NO_CHARGES


@<TRIPOS>ATOM
      1 C1          0.3090   -0.3010   14.6460 C.ar      1 1B4701      0.0000 
      2 N2          3.6160   -1.2230   16.1340 N.ar      1 1B4701      0.0000 
      3 C3          2.3220   -1.2460   15.8490 C.ar      1 1B4701      0.0000 
      4 C4          1.7670   -0.3020   14.9670 C.ar      1 1B4701      0.0000 
      5 N5          2.5640    0.6280   14.4440 N.ar      1 1B4701      0.0000 
      6 C6          4.4130   -0.2950   15.6070 C.ar      1 1B4701      0.0000 
      7 C7          3.8630    0.6600   14.7310 C.ar      1 1B4701      0.0000 
      8 C8          4.9790    1.5340   14.3210 C.2       1 1B4701      0.0000 
      9 C9          6.0920    1.0710   14.9710 C.2       1 1B4701      0.0000 
     10 N10         5.7580   -0.0150   15.7200 N.pl3     1 1B4701      0.0000 
     11 C11        -0.5480   -1.2460   15.2280 C.ar      1 1B4701      0.0000 
     12 C12        -1.9110   -1.2420   14.9510 C.ar      1 1B4701      0.0000 
     13 C13        -2.4410   -0.2760   14.0760 C.ar      1 1B4701      0.0000 
     14 C14        -1.5990    0.6890   13.4970 C.ar      1 1B4701      0.0000 
     15 C15        -0.2300    0.6670   13.7830 C.ar      1 1B4701      0.0000 
     16 O16        -2.7650   -2.1500   15.5210 O.3       1 1B4701      0.0000 
     17 C17        -2.0680   -3.1450   16.2900 C.3       1 1B4701      0.0000 
     18 O18        -3.7860   -0.2320   13.8070 O.3       1 1B4701      0.0000 
     19 C19        -4.1840   -1.2350   12.8690 C.3       1 1B4701      0.0000 
     20 O20        -2.1650    1.6100   12.6470 O.3       1 1B4701      0.0000 
     21 C21        -1.2110    2.5530   12.1350 C.3       1 1B4701      0.0000 
     22 C22         4.8680    2.7140   13.4470 C.2       1 1B4701      0.0000 
     23 N23         3.6280    3.2260   13.2900 N.am      1 1B4701      0.0000 
     24 O24         5.8470    3.2280   12.9320 O.2       1 1B4701      0.0000 
     25 C25         3.3090    4.4210   12.5080 C.3       1 1B4701      0.0000 
     26 C26         2.0450    4.1830   11.6790 C.3       1 1B4701      0.0000 
     27 C27         3.0240    5.5300   13.5400 C.3       1 1B4701      0.0000 
     28 H           1.6810   -1.9544   16.2630 H         1 1B4701      0.0000 
     29 H           6.9741    1.4583   14.9049 H         1 1B4701      0.0000 
     30 H           6.3782   -0.5311   16.2654 H         1 1B4701      0.0000 
     31 H          -0.1566   -1.9533   15.8711 H         1 1B4701      0.0000 
     32 H           0.3926    1.3685   13.3566 H         1 1B4701      0.0000 
     33 H           2.7951    2.7604   13.7491 H         1 1B4701      0.0000 
     34 H           4.1037    4.7165   11.8967 H         1 1B4701      0.0000 
     35 H          -1.4227   -3.6634   15.7288 H         1 1B4701      0.0000 
     36 H          -1.5441   -2.7369   17.0376 H         1 1B4701      0.0000 
     37 H          -2.6970   -3.8058   16.6995 H         1 1B4701      0.0000 
     38 H          -3.7129   -1.1321   11.9930 H         1 1B4701      0.0000 
     39 H          -3.9839   -2.1561   13.2030 H         1 1B4701      0.0000 
     40 H          -5.1653   -1.1984   12.6801 H         1 1B4701      0.0000 
     41 H          -0.7725    3.0729   12.8681 H         1 1B4701      0.0000 
     42 H          -0.4826    2.1017   11.6195 H         1 1B4701      0.0000 
     43 H          -1.6376    3.2162   11.5201 H         1 1B4701      0.0000 
     44 H           1.8009    4.9859   11.1352 H         1 1B4701      0.0000 
     45 H           2.1568    3.4204   11.0419 H         1 1B4701      0.0000 
     46 H           1.2569    3.9694   12.2564 H         1 1B4701      0.0000 
     47 H           3.8153    5.7042   14.1260 H         1 1B4701      0.0000 
     48 H           2.7895    6.3963   13.0990 H         1 1B4701      0.0000 
     49 H           2.2612    5.2910   14.1409 H         1 1B4701      0.0000 
@<TRIPOS>BOND
     1    4    1 1    
     2   11    1 ar   
     3   15    1 ar   
     4    3    2 ar   
     5    6    2 ar   
     6    4    3 ar   
     7   28    3 1    
     8    5    4 ar   
     9    7    5 ar   
    10    7    6 ar   
    11   10    6 1    
    12    8    7 1    
    13    9    8 2    
    14   22    8 1    
    15   10    9 1    
    16   29    9 1    
    17   30   10 1    
    18   12   11 ar   
    19   31   11 1    
    20   13   12 ar   
    21   16   12 1    
    22   14   13 ar   
    23   18   13 1    
    24   15   14 ar   
    25   20   14 1    
    26   32   15 1    
    27   17   16 1    
    28   35   17 1    
    29   36   17 1    
    30   37   17 1    
    31   19   18 1    
    32   38   19 1    
    33   39   19 1    
    34   40   19 1    
    35   21   20 1    
    36   41   21 1    
    37   42   21 1    
    38   43   21 1    
    39   23   22 am   
    40   24   22 2    
    41   25   23 1    
    42   33   23 1    
    43   26   25 1    
    44   27   25 1    
    45   34   25 1    
    46   44   26 1    
    47   45   26 1    
    48   46   26 1    
    49   47   27 1    
    50   48   27 1    
    51   49   27 1    
@<TRIPOS>SUBSTRUCTURE
     1 1B4701      1 GROUP   
@<TRIPOS>SET

