#    Name: 2p2i_608_1_INTS_M
#    Modification time : Mon Mar 24 18:12:54 2014

@<TRIPOS>MOLECULE
2p2i_608_1_INTS_M
   96     0     9     0     0
SMALL
NO_CHARGES


@<TRIPOS>ATOM
      1 CA         39.9965   38.2025    8.2815 C.3       3 GLC5        0.0000 
      2 CA         39.0830   38.0740   10.2210 C.3       9 GLL5        0.0000 
      3 CA         40.9100   38.3310    6.3420 C.3       6 GLP5        0.0000 
      4 CA         39.1870   35.3060    9.4850 C.3       3 GLC5        0.0000 
      5 CA         38.4520   36.8620   10.6480 C.3       9 GLL5        0.0000 
      6 CA         39.9220   33.7500    8.3220 C.3       6 GLP5        0.0000 
      7 CA         35.9405   37.1220   10.3725 C.3       3 GLC5        0.0000 
      8 CA         37.5400   36.9260   11.7810 C.3       9 GLL5        0.0000 
      9 CA         34.3410   37.3180    8.9640 C.3       6 GLP5        0.0000 
     10 CA         39.5655   27.4290   10.1005 C.3       3 GLC5        0.0000 
     11 CA         39.9550   29.0860   11.2910 C.3       9 GLL5        0.0000 
     12 CA         39.1760   25.7720    8.9100 C.3       6 GLP5        0.0000 
     13 CA         41.7445   28.3525   10.5345 C.3       3 GLC5        0.0000 
     14 CA         43.5340   27.6190    9.7780 C.3       6 GLP5        0.0000 
     15 N          40.9185   27.1255   10.7670 N.am      2 SEC2        0.0000 
     16 N          40.3640   27.9400   11.9980 N.am      8 SEL2        0.0000 
     17 N          41.4730   26.3110    9.5360 N.am      5 SEP2        0.0000 
     18 CA         40.2840   31.7055   10.6080 C.3       3 GLC5        0.0000 
     19 CA         39.4910   30.1940   12.0660 C.3       9 GLL5        0.0000 
     20 CA         41.0770   33.2170    9.1500 C.3       6 GLP5        0.0000 
     21 CA         35.1910   33.0525   10.5915 C.3       3 GLC5        0.0000 
     22 CA         35.3090   33.5010   12.3840 C.3       9 GLL5        0.0000 
     23 CA         35.0730   32.6040    8.7990 C.3       6 GLP5        0.0000 
     24 CA         32.8595   33.4380   11.6175 C.3       3 GLC5        0.0000 
     25 CA         34.4750   32.3620   12.5770 C.3       9 GLL5        0.0000 
     26 CA         31.2440   34.5140   10.6580 C.3       6 GLP5        0.0000 
     27 CA         35.7225   30.1045   14.7970 C.3       3 GLC5        0.0000 
     28 CA         35.0560   31.2070   13.1990 C.3       9 GLL5        0.0000 
     29 CA         36.3890   29.0020   16.3950 C.3       6 GLP5        0.0000 
     30 CA         35.8180   29.4455   12.6880 C.3       3 GLC5        0.0000 
     31 CA         36.5800   27.6840   12.1770 C.3       6 GLP5        0.0000 
     32 CA         33.5750   29.7695   13.3145 C.3       3 GLC5        0.0000 
     33 CA         32.0940   28.3320   13.4300 C.3       6 GLP5        0.0000 
     34 CA         36.4490   31.7275   15.4400 C.3       3 GLC5        0.0000 
     35 CA         37.1910   32.3220   13.4080 C.3       9 GLL5        0.0000 
     36 CA         35.7070   31.1330   17.4720 C.3       6 GLP5        0.0000 
     37 CA         39.9365   30.5385   16.1060 C.3       3 GLC5        0.0000 
     38 CA         39.0620   31.1190   14.4470 C.3       9 GLL5        0.0000 
     39 CA         40.8110   29.9580   17.7650 C.3       6 GLP5        0.0000 
     40 O          35.6490   36.2985   12.6625 O.2       1 ALC1        0.0000 
     41 O          36.9230   35.8070   12.2220 O.2       7 ALL1        0.0000 
     42 O          34.3750   36.7900   13.1030 O.2       4 ALP1        0.0000 
     43 N          39.7675   35.3695   13.2625 N.am      2 SEC2        0.0000 
     44 N          38.7950   34.6450   12.5520 N.am      8 SEL2        0.0000 
     45 N          40.7400   36.0940   13.9730 N.am      5 SEP2        0.0000 
     46 CA         40.7205   44.3345   12.6950 C.3       3 GLC5        0.0000 
     47 CA         39.1060   43.8750   11.8670 C.3       9 GLL5        0.0000 
     48 CA         42.3350   44.7940   13.5230 C.3       6 GLP5        0.0000 
     49 CA         38.9460   45.6490    9.5280 C.3       3 GLC5        0.0000 
     50 CA         38.3180   44.4460   10.7820 C.3       9 GLL5        0.0000 
     51 CA         39.5740   46.8520    8.2740 C.3       6 GLP5        0.0000 
     52 CA         37.9920   45.1990    8.4410 C.3       3 GLC5        0.0000 
     53 CA         37.8980   43.7040    9.5990 C.3       9 GLL5        0.0000 
     54 CA         38.0860   46.6940    7.2830 C.3       6 GLP5        0.0000 
     55 CA         37.2010   40.5300    8.7305 C.3       3 GLC5        0.0000 
     56 CA         38.2810   42.3120    9.4800 C.3       9 GLL5        0.0000 
     57 CA         36.1210   38.7480    7.9810 C.3       6 GLP5        0.0000 
     58 CA         41.2065   41.9200   12.3965 C.3       3 GLC5        0.0000 
     59 CA         39.4850   42.4880   11.7400 C.3       9 GLL5        0.0000 
     60 CA         42.9280   41.3520   13.0530 C.3       6 GLP5        0.0000 
     61 CA         40.3857   36.6435   11.1873 C.3       3 GLC5        0.0000 
     62 CA         42.0040   35.8190   11.9400 C.3       6 GLP5        0.0000 
     63 CA         38.5510   37.7892   13.5753 C.3       3 GLC5        0.0000 
     64 CA         37.2160   38.1350   12.5220 C.3       9 GLL5        0.0000 
     65 CA         39.7240   38.0480   14.9990 C.3       6 GLP5        0.0000 
     66 CA         35.6487   38.7401   12.4154 C.3       3 GLC5        0.0000 
     67 CA         33.6840   39.0370   12.7060 C.3       6 GLP5        0.0000 
     68 CA         39.0168   38.6878   13.2622 C.3       3 GLC5        0.0000 
     69 CA         37.8490   39.3560   12.0980 C.3       9 GLL5        0.0000 
     70 CA         37.4449   38.5658    9.3374 C.3       3 GLC5        0.0000 
     71 CA         38.7700   39.2990   10.9530 C.3       9 GLL5        0.0000 
     72 CA         38.1515   28.6620   11.9277 C.3       3 GLC5        0.0000 
     73 CA         38.0705   30.1645   10.7133 C.3       3 GLC5        0.0000 
     74 CA         36.4180   30.6890    9.7480 C.3       6 GLP5        0.0000 
     75 CA         41.3045   30.1110   11.8898 C.3       3 GLC5        0.0000 
     76 CA         42.8860   30.5820   12.1010 C.3       6 GLP5        0.0000 
     77 CA         39.2285   26.9195   14.4947 C.3       3 GLC5        0.0000 
     78 CA         39.9310   28.7730   14.1930 C.3       9 GLL5        0.0000 
     79 CA         38.3010   25.5950   15.2110 C.3       6 GLP5        0.0000 
     80 CA         38.3144   28.1159   12.8921 C.3       3 GLC5        0.0000 
     81 CA         40.3810   27.7150   13.3640 C.3       9 GLL5        0.0000 
     82 CA         41.4674   29.5649   12.8541 C.3       3 GLC5        0.0000 
     83 CA         36.6810   31.8017   11.4242 C.3       3 GLC5        0.0000 
     84 CA         36.6970   33.5070   12.7930 C.3       9 GLL5        0.0000 
     85 CA         33.5318   32.2197   14.1910 C.3       3 GLC5        0.0000 
     86 CA         32.2980   32.6550   15.4940 C.3       6 GLP5        0.0000 
     87 CA         35.5917   31.2368   11.3180 C.3       3 GLC5        0.0000 
     88 CA         35.6765   33.6755   14.5386 C.3       3 GLC5        0.0000 
     89 CA         34.7560   34.4380   16.0790 C.3       6 GLP5        0.0000 
     90 CA         37.8891   29.6259   15.2719 C.3       3 GLC5        0.0000 
     91 CA         37.8787   43.3425    7.8513 C.3       3 GLC5        0.0000 
     92 CA         37.6680   43.6770    6.1630 C.3       6 GLP5        0.0000 
     93 CA         36.4407   43.7722    9.0501 C.3       3 GLC5        0.0000 
     94 CA         34.6870   44.3510    8.2650 C.3       6 GLP5        0.0000 
     95 CA         39.7344   42.7545    8.4996 C.3       3 GLC5        0.0000 
     96 CA         40.8900   43.1350    6.9530 C.3       6 GLP5        0.0000 
@<TRIPOS>BOND
@<TRIPOS>SUBSTRUCTURE
     1 ALC1       40 GROUP        1 X    ALC  0     ROOT ALC X 1
     2 SEC2       15 GROUP        1 X    SEC  0     **** SEC X 2
     3 GLC5        1 GROUP        1 X    GLC  0     **** GLC X 6
     4 ALP1       42 GROUP        1 Y    ALP  0     ROOT ALP Y 8
     5 SEP2       17 GROUP        1 Y    SEP  0     **** SEP Y 9
     6 GLP5        3 GROUP        1 Y    GLP  0     **** GLP Y 13
     7 ALL1       41 GROUP        1 Z    ALL  0     ROOT ALL Z 15
     8 SEL2       16 GROUP        1 Z    SEL  0     **** SEL Z 16
     9 GLL5        2 GROUP        1 Z    GLL  0     **** GLL Z 20
@<TRIPOS>SET

