#    Name: 2p2i_608_1_ligand
#    Modification time : Mon Mar 24 18:12:54 2014

@<TRIPOS>MOLECULE
2p2i_608_1_ligand
   50    53     1     0     0
SMALL
NO_CHARGES


@<TRIPOS>ATOM
      1 C10        39.0830   38.0740   10.2210 C.ar      1 608501      0.0000 
      2 C11        38.4520   36.8620   10.6480 C.ar      1 608501      0.0000 
      3 C12        37.5400   36.9260   11.7810 C.ar      1 608501      0.0000 
      4 C13        37.2160   38.1350   12.5220 C.ar      1 608501      0.0000 
      5 C14        37.8490   39.3560   12.0980 C.ar      1 608501      0.0000 
      6 C15        38.7700   39.2990   10.9530 C.ar      1 608501      0.0000 
      7 C16        39.9550   29.0860   11.2910 C.ar      1 608501      0.0000 
      8 N4         40.3640   27.9400   11.9980 N.ar      1 608501      0.0000 
      9 C17        39.4910   30.1940   12.0660 C.ar      1 608501      0.0000 
     10 C18        39.5020   29.9880   13.5080 C.ar      1 608501      0.0000 
     11 C8         39.9310   28.7730   14.1930 C.ar      1 608501      0.0000 
     12 C9         40.3810   27.7150   13.3640 C.ar      1 608501      0.0000 
     13 C19        36.6970   33.5070   12.7930 C.ar      1 608501      0.0000 
     14 C20        35.3090   33.5010   12.3840 C.ar      1 608501      0.0000 
     15 C21        34.4750   32.3620   12.5770 C.ar      1 608501      0.0000 
     16 C22        35.0560   31.2070   13.1990 C.ar      1 608501      0.0000 
     17 N3         36.3690   31.2060   13.5950 N.ar      1 608501      0.0000 
     18 C23        37.1910   32.3220   13.4080 C.ar      1 608501      0.0000 
     19 N1         38.4940   32.2980   13.8100 N.pl3     1 608501      0.0000 
     20 C7         39.0620   31.1190   14.4470 C.3       1 608501      0.0000 
     21 C24        37.5690   34.6710   12.5260 C.2       1 608501      0.0000 
     22 N2         36.9230   35.8070   12.2220 N.am      1 608501      0.0000 
     23 O1         38.7950   34.6450   12.5520 O.2       1 608501      0.0000 
     24 O2         39.4620   40.4250   10.4230 O.3       1 608501      0.0000 
     25 C1         39.1060   43.8750   11.8670 C.ar      1 608501      0.0000 
     26 C2         38.3180   44.4460   10.7820 C.ar      1 608501      0.0000 
     27 C3         37.8980   43.7040    9.5990 C.ar      1 608501      0.0000 
     28 C4         38.2810   42.3120    9.4800 C.ar      1 608501      0.0000 
     29 C5         39.0680   41.7400   10.5530 C.ar      1 608501      0.0000 
     30 C6         39.4850   42.4880   11.7400 C.ar      1 608501      0.0000 
     31 H          39.7146   38.0956    9.4542 H         1 608501      0.0000 
     32 H          38.6247   35.9935   10.1901 H         1 608501      0.0000 
     33 H          36.5860   38.1115   13.2844 H         1 608501      0.0000 
     34 H          37.6780   40.2206   12.5566 H         1 608501      0.0000 
     35 H          39.9835   29.1335   10.2951 H         1 608501      0.0000 
     36 H          39.1864   31.0326   11.6707 H         1 608501      0.0000 
     37 H          39.9019   28.7116   15.1754 H         1 608501      0.0000 
     38 H          40.6940   26.8499   13.7635 H         1 608501      0.0000 
     39 H          34.9239   34.3442   11.9440 H         1 608501      0.0000 
     40 H          33.5180   32.3630   12.2907 H         1 608501      0.0000 
     41 H          34.4557   30.3806   13.3379 H         1 608501      0.0000 
     42 H          39.1186   33.1068   13.6785 H         1 608501      0.0000 
     43 H          39.9502   31.4008   15.0680 H         1 608501      0.0000 
     44 H          38.3345   30.6815   15.1773 H         1 608501      0.0000 
     45 H          35.8608   35.8328   12.3334 H         1 608501      0.0000 
     46 H          39.3650   44.4168   12.6491 H         1 608501      0.0000 
     47 H          38.0387   45.4410   10.8555 H         1 608501      0.0000 
     48 H          37.3580   44.1498    8.8886 H         1 608501      0.0000 
     49 H          38.0144   41.7712    8.6935 H         1 608501      0.0000 
     50 H          40.0264   42.0349   12.4502 H         1 608501      0.0000 
@<TRIPOS>BOND
     1    2    1 ar   
     2    6    1 ar   
     3   31    1 1    
     4    3    2 ar   
     5   32    2 1    
     6    4    3 ar   
     7   22    3 1    
     8    5    4 ar   
     9   33    4 1    
    10    6    5 ar   
    11   34    5 1    
    12   24    6 1    
    13    8    7 ar   
    14    9    7 ar   
    15   35    7 1    
    16   12    8 ar   
    17   10    9 ar   
    18   36    9 1    
    19   11   10 ar   
    20   20   10 1    
    21   12   11 ar   
    22   37   11 1    
    23   38   12 1    
    24   14   13 ar   
    25   18   13 ar   
    26   21   13 1    
    27   15   14 ar   
    28   39   14 1    
    29   16   15 ar   
    30   40   15 1    
    31   17   16 ar   
    32   41   16 1    
    33   18   17 ar   
    34   19   18 1    
    35   20   19 1    
    36   42   19 1    
    37   43   20 1    
    38   44   20 1    
    39   22   21 am   
    40   23   21 2    
    41   45   22 1    
    42   29   24 1    
    43   26   25 ar   
    44   30   25 ar   
    45   46   25 1    
    46   27   26 ar   
    47   47   26 1    
    48   28   27 ar   
    49   48   27 1    
    50   29   28 ar   
    51   49   28 1    
    52   30   29 ar   
    53   50   30 1    
@<TRIPOS>SUBSTRUCTURE
     1 608501      1 GROUP   
@<TRIPOS>SET

