#    Name: 2GMV_2_CAVITY_N1_6.mol2
#    Modification time : Mon Mar 10 15:02:14 2014

@<TRIPOS>MOLECULE
2GMV_2_CAVITY_N1_6.mol2
   89     0     4     0     0
SMALL
NO_CHARGES


@<TRIPOS>ATOM
      1 N          31.5963   -2.0729   42.4307 N.2       1 ALA2        0.0000 
      2 N          32.6454   -3.1235   42.2174 N.2       1 ALA2        0.0000 
      3 CA         22.2453    0.2024   37.9717 C.3       3 GLY6        0.0000 
      4 O          23.2944   -0.8482   37.7585 O.2       1 ALA2        0.0000 
      5 O          24.3435   -1.8989   37.5452 O.2       1 ALA2        0.0000 
      6 CZ         25.3927   -2.9495   37.3319 C.ar      2 PHE5        0.0000 
      7 CZ         26.4418   -4.0001   37.1187 C.ar      2 PHE5        0.0000 
      8 CA         27.4909   -5.0508   36.9054 C.3       3 GLY6        0.0000 
      9 O          28.5400   -6.1014   36.6922 O.2       1 ALA2        0.0000 
     10 DU         22.2239   -1.8584   37.4694 H         4 CUB7        0.0000 
     11 CZ         23.2731   -2.9091   37.2562 C.ar      2 PHE5        0.0000 
     12 CZ         24.3222   -3.9597   37.0429 C.ar      2 PHE5        0.0000 
     13 DU         25.3713   -5.0104   36.8297 H         4 CUB7        0.0000 
     14 O          26.4204   -6.0610   36.6164 O.2       1 ALA2        0.0000 
     15 DU         21.1535   -2.8687   37.1804 H         4 CUB7        0.0000 
     16 CZ         22.2026   -3.9193   36.9671 C.ar      2 PHE5        0.0000 
     17 CZ         23.2517   -4.9700   36.7539 C.ar      2 PHE5        0.0000 
     18 CZ         24.3009   -6.0206   36.5406 C.ar      2 PHE5        0.0000 
     19 O          20.0830   -3.8789   36.8913 O.2       1 ALA2        0.0000 
     20 CZ         18.9538   -5.2435   38.0587 C.ar      2 PHE5        0.0000 
     21 N          30.7023   -2.0201   37.7725 N.2       1 ALA2        0.0000 
     22 N          29.6318   -3.0303   37.4835 N.2       1 ALA2        0.0000 
     23 CA         30.6809   -4.0810   37.2702 C.3       3 GLY6        0.0000 
     24 CZ         27.5122   -2.9899   37.4077 C.ar      2 PHE5        0.0000 
     25 CA         28.5614   -4.0406   37.1945 C.3       3 GLY6        0.0000 
     26 N          29.6105   -5.0912   36.9812 N.2       1 ALA2        0.0000 
     27 N          31.7139   -1.3642   39.5179 N.2       1 ALA2        0.0000 
     28 N          32.7630   -2.4148   39.3047 N.2       1 ALA2        0.0000 
     29 N          30.6434   -2.3744   39.2289 N.2       1 ALA2        0.0000 
     30 O          31.6926   -3.4251   39.0156 O.2       1 ALA2        0.0000 
     31 CA         29.5730   -3.3847   38.9399 C.3       3 GLY6        0.0000 
     32 CZ         23.2356   -1.2025   39.2148 C.ar      2 PHE5        0.0000 
     33 CZ         22.1651   -2.2128   38.9258 C.ar      2 PHE5        0.0000 
     34 CZ         25.3125   -5.3647   38.2860 C.ar      2 PHE5        0.0000 
     35 CZ         21.0947   -3.2230   38.6367 C.ar      2 PHE5        0.0000 
     36 CZ         22.1438   -4.2737   38.4235 C.ar      2 PHE5        0.0000 
     37 CZ         23.1929   -5.3243   38.2102 C.ar      2 PHE5        0.0000 
     38 CZ         24.2420   -6.3750   37.9970 C.ar      2 PHE5        0.0000 
     39 O          25.2912   -7.4256   37.7837 O.2       1 ALA2        0.0000 
     40 CZ         21.0733   -5.2839   38.1345 C.ar      2 PHE5        0.0000 
     41 CZ         22.1225   -6.3346   37.9212 C.ar      2 PHE5        0.0000 
     42 CA         23.1716   -7.3852   37.7079 C.3       3 GLY6        0.0000 
     43 N          32.7255   -0.7083   41.2633 N.2       1 ALA2        0.0000 
     44 CA         33.7747   -1.7589   41.0501 C.3       3 GLY6        0.0000 
     45 N          31.6551   -1.7185   40.9743 N.2       1 ALA2        0.0000 
     46 N          32.7042   -2.7692   40.7610 N.2       1 ALA2        0.0000 
     47 CA         30.5846   -2.7288   40.6853 C.3       3 GLY6        0.0000 
     48 CZ         22.0850   -4.6280   39.8798 C.ar      2 PHE5        0.0000 
     49 CZ         24.1832   -6.7293   39.4533 C.ar      2 PHE5        0.0000 
     50 CZ         21.0145   -5.6383   39.5908 C.ar      2 PHE5        0.0000 
     51 CZ         22.0636   -6.6889   39.3776 C.ar      2 PHE5        0.0000 
     52 N          23.1128   -7.7395   39.1643 N.2       1 ALA2        0.0000 
     53 CA         24.1619   -8.7902   38.9510 C.3       3 GLY6        0.0000 
     54 CZ         19.9441   -6.6485   39.3018 C.ar      2 PHE5        0.0000 
     55 CZ         20.9932   -7.6991   39.0885 C.ar      2 PHE5        0.0000 
     56 N          30.4883   -1.3766   44.1003 N.2       1 ALA2        0.0000 
     57 DU         31.5374   -2.4272   43.8870 H         4 CUB7        0.0000 
     58 N          29.4179   -2.3868   43.8112 N.2       1 ALA2        0.0000 
     59 CA         30.4670   -3.4375   43.5980 C.3       3 GLY6        0.0000 
     60 O          31.5161   -4.4881   43.3847 O.2       1 ALA2        0.0000 
     61 CA         28.3474   -3.3970   43.5222 C.3       3 GLY6        0.0000 
     62 CA         29.3965   -4.4477   43.3089 C.3       3 GLY6        0.0000 
     63 CZ         23.0164   -6.3874   42.5793 C.ar      2 PHE5        0.0000 
     64 CZ         21.9460   -7.3976   42.2903 C.ar      2 PHE5        0.0000 
     65 N          22.9951   -8.4482   42.0770 N.2       1 ALA2        0.0000 
     66 N          29.4767   -2.0325   42.3549 N.2       1 ALA2        0.0000 
     67 CA         30.5258   -3.0831   42.1416 C.3       3 GLY6        0.0000 
     68 O          31.5749   -4.1338   41.9284 O.2       1 ALA2        0.0000 
     69 CZ         22.0261   -4.9824   41.3362 C.ar      2 PHE5        0.0000 
     70 CZ         24.1244   -7.0837   40.9097 C.ar      2 PHE5        0.0000 
     71 CZ         22.0048   -7.0432   40.8339 C.ar      2 PHE5        0.0000 
     72 N          23.0539   -8.0939   40.6207 N.2       1 ALA2        0.0000 
     73 CZ         20.9344   -8.0535   40.5449 C.ar      2 PHE5        0.0000 
     74 N          21.9835   -9.1041   40.3316 N.2       1 ALA2        0.0000 
     75 CA         28.6202   -3.6862   35.7381 C.3       3 GLY6        0.0000 
     76 N          29.6693   -4.7369   35.5249 N.2       1 ALA2        0.0000 
     77 CA         26.5006   -3.6458   35.6623 C.3       3 GLY6        0.0000 
     78 CA         27.5497   -4.6964   35.4491 C.3       3 GLY6        0.0000 
     79 O          28.5989   -5.7471   35.2358 O.2       1 ALA2        0.0000 
     80 O          22.2828   -1.5041   36.0131 O.2       1 ALA2        0.0000 
     81 O          23.3319   -2.5547   35.7998 O.2       1 ALA2        0.0000 
     82 CA         24.3810   -3.6054   35.5865 C.3       3 GLY6        0.0000 
     83 CA         25.4301   -4.6560   35.3733 C.3       3 GLY6        0.0000 
     84 CA         26.4793   -5.7067   35.1600 C.3       3 GLY6        0.0000 
     85 DU         21.2123   -2.5143   35.7240 H         4 CUB7        0.0000 
     86 O          22.2614   -3.5650   35.5108 O.2       1 ALA2        0.0000 
     87 N          23.3106   -4.6156   35.2975 N.2       1 ALA2        0.0000 
     88 O          20.1419   -3.5246   35.4350 O.2       1 ALA2        0.0000 
     89 CZ         21.1910   -4.5752   35.2217 C.ar      2 PHE5        0.0000 
@<TRIPOS>BOND
@<TRIPOS>SUBSTRUCTURE
     1 ALA2        1 GROUP   
     2 PHE5        6 GROUP   
     3 GLY6        3 GROUP   
     4 CUB7       10 GROUP   
@<TRIPOS>SET

