#    Name: 2gmv_UN8_2_INTS_M
#    Modification time : Tue Mar 25 14:45:39 2014

@<TRIPOS>MOLECULE
2gmv_UN8_2_INTS_M
   71     0     6     0     0
SMALL
NO_CHARGES


@<TRIPOS>ATOM
      1 CA         26.9210    0.8450   43.4215 C.3       2 GLC5        0.0000 
      2 CA         25.7780   -0.6540   42.9610 C.3       6 GLL5        0.0000 
      3 CA         28.0640    2.3440   43.8820 C.3       4 GLP5        0.0000 
      4 CA         25.5485    0.4035   41.5625 C.3       2 GLC5        0.0000 
      5 CA         25.3190    1.4610   40.1640 C.3       4 GLP5        0.0000 
      6 CA         25.6180   -1.6270   41.5885 C.3       2 GLC5        0.0000 
      7 CA         25.4580   -2.6000   40.2160 C.3       4 GLP5        0.0000 
      8 CA         20.3110   -7.7500   38.4780 C.3       2 GLC5        0.0000 
      9 CA         20.9950   -7.3780   40.4980 C.3       6 GLL5        0.0000 
     10 CA         19.6270   -8.1220   36.4580 C.3       4 GLP5        0.0000 
     11 CA         19.6950   -7.9420   41.3560 C.3       2 GLC5        0.0000 
     12 CA         18.3950   -8.5060   42.2140 C.3       4 GLP5        0.0000 
     13 CA         23.7255   -8.2255   37.2170 C.3       2 GLC5        0.0000 
     14 CA         23.6890   -6.2850   38.1850 C.3       6 GLL5        0.0000 
     15 CA         23.7620  -10.1660   36.2490 C.3       4 GLP5        0.0000 
     16 N          26.6580   -7.2125   38.6185 N.am      1 SEC2        0.0000 
     17 N          25.7200   -7.2940   37.4390 N.am      5 SEL2        0.0000 
     18 N          27.5960   -7.1310   39.7980 N.am      3 SEP2        0.0000 
     19 N          26.8895   -8.1105   36.9790 N.am      1 SEC2        0.0000 
     20 N          28.0590   -8.9270   36.5190 N.am      3 SEP2        0.0000 
     21 CA         23.2565   -3.1560   38.9280 C.3       2 GLC5        0.0000 
     22 CA         22.1160   -2.9860   37.1320 C.3       6 GLL5        0.0000 
     23 CA         24.3970   -3.3260   40.7240 C.3       4 GLP5        0.0000 
     24 CA         22.8850   -3.1485   34.2345 C.3       2 GLC5        0.0000 
     25 CA         21.4340   -3.1380   35.7690 C.3       6 GLL5        0.0000 
     26 CA         24.3360   -3.1590   32.7000 C.3       4 GLP5        0.0000 
     27 CA         21.3695   -5.1245   35.4260 C.3       2 GLC5        0.0000 
     28 CA         21.3050   -7.1110   35.0830 C.3       4 GLP5        0.0000 
     29 CA         19.3220   -2.7365   32.5185 C.3       2 GLC5        0.0000 
     30 CA         20.0280   -2.2460   33.9640 C.3       6 GLL5        0.0000 
     31 CA         18.6160   -3.2270   31.0730 C.3       4 GLP5        0.0000 
     32 CA         20.8060   -3.9005   32.8065 C.3       2 GLC5        0.0000 
     33 CA         21.5840   -5.5550   31.6490 C.3       4 GLP5        0.0000 
     34 N          25.1470   -1.8020   35.7310 N.am      1 SEC2        0.0000 
     35 N          24.5610   -3.1490   35.8580 N.am      5 SEL2        0.0000 
     36 N          25.7330   -0.4550   35.6040 N.am      3 SEP2        0.0000 
     37 CA         25.2705   -4.1525   34.1590 C.3       2 GLC5        0.0000 
     38 CA         26.2050   -5.1460   35.6180 C.3       6 GLL5        0.0000 
     39 CA         25.5290   -6.9615   35.0000 C.3       2 GLC5        0.0000 
     40 CA         24.8530   -8.7770   34.3820 C.3       4 GLP5        0.0000 
     41 CA         29.7610   -6.9950   34.0285 C.3       2 GLC5        0.0000 
     42 CA         28.6140   -6.5740   35.1180 C.3       6 GLL5        0.0000 
     43 CA         30.9080   -7.4160   32.9390 C.3       4 GLP5        0.0000 
     44 CA         27.6155   -8.2980   34.4705 C.3       2 GLC5        0.0000 
     45 CA         26.6170  -10.0220   33.8230 C.3       4 GLP5        0.0000 
     46 CA         29.4050   -8.3035   35.9505 C.3       2 GLC5        0.0000 
     47 CA         30.1960  -10.0330   36.7830 C.3       4 GLP5        0.0000 
     48 CA         31.5840   -6.0235   36.2570 C.3       2 GLC5        0.0000 
     49 CA         29.9700   -4.9720   36.2510 C.3       6 GLL5        0.0000 
     50 CA         33.1980   -7.0750   36.2630 C.3       4 GLP5        0.0000 
     51 CA         31.9525   -4.5975   36.6985 C.3       2 GLC5        0.0000 
     52 CA         30.0770   -3.7890   36.9740 C.3       6 GLL5        0.0000 
     53 CA         33.8280   -5.4060   36.4230 C.3       4 GLP5        0.0000 
     54 CA         24.0272   -8.9415   43.6647 C.3       2 GLC5        0.0000 
     55 CA         22.1800   -7.8080   42.7220 C.3       6 GLL5        0.0000 
     56 CA         25.6590  -10.2810   43.9750 C.3       4 GLP5        0.0000 
     57 CA         20.6088   -9.0540   42.5658 C.3       2 GLC5        0.0000 
     58 CA         19.4240  -10.7100   42.8260 C.3       4 GLP5        0.0000 
     59 CA         28.3468   -5.5460   37.8222 C.3       2 GLC5        0.0000 
     60 CA         27.5480   -4.6870   36.0910 C.3       6 GLL5        0.0000 
     61 CA         28.5650   -6.0360   39.6880 C.3       4 GLP5        0.0000 
     62 CA         29.8477   -4.7603   34.2518 C.3       2 GLC5        0.0000 
     63 CA         28.7090   -5.4250   35.8220 C.3       6 GLL5        0.0000 
     64 CA         30.3560   -4.3220   32.4670 C.3       4 GLP5        0.0000 
     65 CA         29.2942   -5.2082   38.1502 C.3       2 GLC5        0.0000 
     66 CA         28.5695   -2.4070   35.7945 C.3       2 GLC5        0.0000 
     67 CA         27.6360   -1.3960   34.4740 C.3       4 GLP5        0.0000 
     68 CA         28.4357   -4.6523   38.3610 C.3       2 GLC5        0.0000 
     69 CA         28.9290   -3.0470   37.2560 C.3       6 GLL5        0.0000 
     70 CA         27.6872   -2.8632   35.3996 C.3       2 GLC5        0.0000 
     71 CA         27.6840   -3.4900   36.8120 C.3       6 GLL5        0.0000 
@<TRIPOS>BOND
@<TRIPOS>SUBSTRUCTURE
     1 SEC2       16 GROUP        1 X    SEC  0     ROOT SEC X 2
     2 GLC5        1 GROUP        1 X    GLC  0     **** GLC X 6
     3 SEP2       18 GROUP        1 Y    SEP  0     ROOT SEP Y 9
     4 GLP5        3 GROUP        1 Y    GLP  0     **** GLP Y 13
     5 SEL2       17 GROUP        1 Z    SEL  0     ROOT SEL Z 16
     6 GLL5        2 GROUP        1 Z    GLL  0     **** GLL Z 20
@<TRIPOS>SET

