#    Name: 2gmv_UN8_2_ligand
#    Modification time : Tue Mar 25 14:45:39 2014

@<TRIPOS>MOLECULE
2gmv_UN8_2_ligand
   68    72     1     0     0
SMALL
NO_CHARGES


@<TRIPOS>ATOM
      1 O2         21.8840   -3.3890   46.2810 O.2       1 UN8703      0.0000 
      2 S1         23.1200   -4.0540   46.2720 S.o2      1 UN8703      0.0000 
      3 O1         23.9360   -4.3240   47.3720 O.2       1 UN8703      0.0000 
      4 C1         24.2070   -3.2650   45.1030 C.2       1 UN8703      0.0000 
      5 C2         24.1620   -2.0160   44.4040 C.2       1 UN8703      0.0000 
      6 N5         25.4010   -1.7600   43.8020 N.pl3     1 UN8703      0.0000 
      7 C4         25.7780   -0.6540   42.9610 C.3       1 UN8703      0.0000 
      8 C3         26.2430   -2.8120   44.2270 C.2       1 UN8703      0.0000 
      9 N7         25.5720   -3.6530   45.0360 N.2       1 UN8703      0.0000 
     10 N4         22.8180   -5.6470   45.7660 N.pl3     1 UN8703      0.0000 
     11 C8         22.3270   -6.1050   44.5150 C.ar      1 UN8703      0.0000 
     12 C9         22.6110   -7.3960   43.9870 C.ar      1 UN8703      0.0000 
     13 C30        22.1800   -7.8080   42.7220 C.ar      1 UN8703      0.0000 
     14 C7         21.5770   -5.2840   43.6490 C.ar      1 UN8703      0.0000 
     15 C6         21.1330   -5.7060   42.3990 C.ar      1 UN8703      0.0000 
     16 C5         21.4070   -6.9880   41.8890 C.ar      1 UN8703      0.0000 
     17 C16        20.9950   -7.3780   40.4980 C.3       1 UN8703      0.0000 
     18 C14        21.9070   -6.6990   39.4940 C.2       1 UN8703      0.0000 
     19 N15        23.1300   -7.2250   39.0510 N.pl3     1 UN8703      0.0000 
     20 C55        23.6890   -6.2850   38.1850 C.2       1 UN8703      0.0000 
     21 C56        24.9180   -6.3550   37.3990 C.2       1 UN8703      0.0000 
     22 O57        25.7200   -7.2940   37.4390 O.2       1 UN8703      0.0000 
     23 C54        22.7800   -5.1810   38.1460 C.2       1 UN8703      0.0000 
     24 N13        21.6810   -5.4560   38.9730 N.2       1 UN8703      0.0000 
     25 N53        23.0770   -4.0620   37.3740 N.am      1 UN8703      0.0000 
     26 C59        22.1160   -2.9860   37.1320 C.3       1 UN8703      0.0000 
     27 C10        21.4340   -3.1380   35.7690 C.3       1 UN8703      0.0000 
     28 C11        20.5680   -1.9700   35.3480 C.3       1 UN8703      0.0000 
     29 C12        20.0280   -2.2460   33.9640 C.3       1 UN8703      0.0000 
     30 C52        24.2670   -4.1270   36.5830 C.2       1 UN8703      0.0000 
     31 O58        24.5610   -3.1490   35.8580 O.2       1 UN8703      0.0000 
     32 N51        25.2190   -5.1950   36.6850 N.am      1 UN8703      0.0000 
     33 C17        26.2050   -5.1460   35.6180 C.3       1 UN8703      0.0000 
     34 C18        27.5480   -4.6870   36.0910 C.ar      1 UN8703      0.0000 
     35 C19        28.7090   -5.4250   35.8220 C.ar      1 UN8703      0.0000 
     36 F24        28.6140   -6.5740   35.1180 F         1 UN8703      0.0000 
     37 C20        29.9700   -4.9720   36.2510 C.ar      1 UN8703      0.0000 
     38 C21        30.0770   -3.7890   36.9740 C.ar      1 UN8703      0.0000 
     39 C22        28.9290   -3.0470   37.2560 C.ar      1 UN8703      0.0000 
     40 C23        27.6840   -3.4900   36.8120 C.ar      1 UN8703      0.0000 
     41 H          23.3960   -1.4555   44.3644 H         1 UN8703      0.0000 
     42 H          27.1683   -2.8850   43.9538 H         1 UN8703      0.0000 
     43 H          23.0551   -6.3060   46.5469 H         1 UN8703      0.0000 
     44 H          23.1636   -8.0538   44.5754 H         1 UN8703      0.0000 
     45 H          22.4424   -8.7586   42.3856 H         1 UN8703      0.0000 
     46 H          21.3471   -4.3140   43.9669 H         1 UN8703      0.0000 
     47 H          20.5734   -5.0487   41.8114 H         1 UN8703      0.0000 
     48 H          19.9691   -7.0688   40.3167 H         1 UN8703      0.0000 
     49 H          21.0705   -8.4556   40.3793 H         1 UN8703      0.0000 
     50 H          23.4977   -8.0521   39.2938 H         1 UN8703      0.0000 
     51 H          22.6128   -2.0063   37.1567 H         1 UN8703      0.0000 
     52 H          21.3348   -2.9795   37.9047 H         1 UN8703      0.0000 
     53 H          20.8182   -4.0601   35.7856 H         1 UN8703      0.0000 
     54 H          22.2168   -3.3057   35.0016 H         1 UN8703      0.0000 
     55 H          21.1622   -1.0651   35.3334 H         1 UN8703      0.0000 
     56 H          19.7463   -1.8588   36.0441 H         1 UN8703      0.0000 
     57 H          25.8637   -4.4674   34.8101 H         1 UN8703      0.0000 
     58 H          26.3170   -6.1460   35.1519 H         1 UN8703      0.0000 
     59 H          30.8077   -5.5206   36.0264 H         1 UN8703      0.0000 
     60 H          30.9921   -3.4620   37.2988 H         1 UN8703      0.0000 
     61 H          29.0023   -2.1733   37.7916 H         1 UN8703      0.0000 
     62 H          26.8391   -2.9274   37.0161 H         1 UN8703      0.0000 
     63 H          26.7315   -0.7193   42.6668 H         1 UN8703      0.0000 
     64 H          25.2184   -0.6091   42.1335 H         1 UN8703      0.0000 
     65 H          25.6759    0.2223   43.4318 H         1 UN8703      0.0000 
     66 H          20.7623   -2.3598   33.2947 H         1 UN8703      0.0000 
     67 H          19.4774   -3.0804   33.9397 H         1 UN8703      0.0000 
     68 H          19.4462   -1.5013   33.6370 H         1 UN8703      0.0000 
@<TRIPOS>BOND
     1    2    1 2    
     2    3    2 2    
     3    4    2 1    
     4   10    2 1    
     5    5    4 2    
     6    9    4 1    
     7    6    5 1    
     8   41    5 1    
     9    7    6 1    
    10    8    6 1    
    11   63    7 1    
    12   64    7 1    
    13   65    7 1    
    14    9    8 2    
    15   42    8 1    
    16   11   10 1    
    17   43   10 1    
    18   12   11 ar   
    19   14   11 ar   
    20   13   12 ar   
    21   44   12 1    
    22   16   13 ar   
    23   45   13 1    
    24   15   14 ar   
    25   46   14 1    
    26   16   15 ar   
    27   47   15 1    
    28   17   16 1    
    29   18   17 1    
    30   48   17 1    
    31   49   17 1    
    32   19   18 1    
    33   24   18 2    
    34   20   19 1    
    35   50   19 1    
    36   21   20 1    
    37   23   20 2    
    38   22   21 2    
    39   32   21 am   
    40   24   23 1    
    41   25   23 1    
    42   26   25 1    
    43   30   25 am   
    44   27   26 1    
    45   51   26 1    
    46   52   26 1    
    47   28   27 1    
    48   53   27 1    
    49   54   27 1    
    50   29   28 1    
    51   55   28 1    
    52   56   28 1    
    53   66   29 1    
    54   67   29 1    
    55   68   29 1    
    56   31   30 2    
    57   32   30 am   
    58   33   32 1    
    59   34   33 1    
    60   57   33 1    
    61   58   33 1    
    62   35   34 ar   
    63   40   34 ar   
    64   36   35 1    
    65   37   35 ar   
    66   38   37 ar   
    67   59   37 1    
    68   39   38 ar   
    69   60   38 1    
    70   40   39 ar   
    71   61   39 1    
    72   62   40 1    
@<TRIPOS>SUBSTRUCTURE
     1 UN8703      1 GROUP   
@<TRIPOS>SET

