#    Name: 3mup_SMK_4_INTS_M
#    Modification time : Mon Mar 24 23:42:31 2014

@<TRIPOS>MOLECULE
3mup_SMK_4_INTS_M
   81     0    12     0     0
SMALL
NO_CHARGES


@<TRIPOS>ATOM
      1 CA         46.1870  -39.6870   30.9680 C.3       4 GLC5        0.0000 
      2 CA         48.0140  -39.2110   30.1620 C.3      12 GLL5        0.0000 
      3 CA         44.3600  -40.1630   31.7740 C.3       8 GLP5        0.0000 
      4 CA         48.4600  -41.0165   30.3625 C.3       4 GLC5        0.0000 
      5 CA         48.9060  -42.8220   30.5630 C.3       8 GLP5        0.0000 
      6 CA         49.1040  -40.7090   29.3010 C.3       4 GLC5        0.0000 
      7 CA         49.2580  -38.6820   29.4200 C.3      12 GLL5        0.0000 
      8 CA         48.9500  -42.7360   29.1820 C.3       8 GLP5        0.0000 
      9 OD1        51.0940  -36.6355   26.3785 O.co2     3 ASC3        0.0000 
     10 OD1        50.1050  -36.9300   27.8390 O.co2    11 ASL3        0.0000 
     11 OD1        52.0830  -36.3410   24.9180 O.co2     7 ASP3        0.0000 
     12 OD1        50.8920  -38.3220   27.6625 O.co2     3 ASC3        0.0000 
     13 OD1        51.6790  -39.7140   27.4860 O.co2     7 ASP3        0.0000 
     14 O          50.8920  -38.3220   27.6625 O.2       1 ALC1        0.0000 
     15 O          50.1050  -36.9300   27.8390 O.2       9 ALL1        0.0000 
     16 O          51.6790  -39.7140   27.4860 O.2       5 ALP1        0.0000 
     17 N          48.6700  -35.7250   32.2170 N.am      2 SEC2        0.0000 
     18 N          49.0300  -36.0480   30.5450 N.am     10 SEL2        0.0000 
     19 N          48.3100  -35.4020   33.8890 N.am      6 SEP2        0.0000 
     20 O          46.6190  -37.0135   28.3475 O.2       1 ALC1        0.0000 
     21 O          47.2590  -35.8070   29.1410 O.2       9 ALL1        0.0000 
     22 O          45.9790  -38.2200   27.5540 O.2       5 ALP1        0.0000 
     23 CA         47.5000  -33.8485   31.7065 C.3       4 GLC5        0.0000 
     24 CA         46.6180  -34.7710   29.9450 C.3      12 GLL5        0.0000 
     25 CA         48.3820  -32.9260   33.4680 C.3       8 GLP5        0.0000 
     26 N          44.2835  -37.6975   29.5220 N.am      2 SEC2        0.0000 
     27 N          44.8510  -36.3690   30.1440 N.am     10 SEL2        0.0000 
     28 N          43.7160  -39.0260   28.9000 N.am      6 SEP2        0.0000 
     29 CA         46.4155  -35.2995   25.6805 C.3       4 GLC5        0.0000 
     30 CA         46.3850  -33.8010   26.7400 C.3      12 GLL5        0.0000 
     31 CA         46.4460  -36.7980   24.6210 C.3       8 GLP5        0.0000 
     32 CA         47.3635  -32.5780   31.7960 C.3       4 GLC5        0.0000 
     33 CA         46.3450  -32.2300   30.1240 C.3      12 GLL5        0.0000 
     34 CA         46.4245  -31.9915   32.3860 C.3       4 GLC5        0.0000 
     35 CA         45.0130  -32.2450   30.8710 C.3      12 GLL5        0.0000 
     36 CA         47.8360  -31.7380   33.9010 C.3       8 GLP5        0.0000 
     37 CA         46.6840  -33.0995   32.7375 C.3       4 GLC5        0.0000 
     38 CA         44.9860  -33.2730   32.0070 C.3      12 GLL5        0.0000 
     39 CA         45.1400  -32.8905   34.2540 C.3       4 GLC5        0.0000 
     40 CA         43.8040  -32.9280   32.9320 C.3      12 GLL5        0.0000 
     41 CA         46.4760  -32.8530   35.5760 C.3       8 GLP5        0.0000 
     42 CA         45.1285  -34.1955   34.2380 C.3       4 GLC5        0.0000 
     43 CA         43.2510  -34.3040   33.3260 C.3      12 GLL5        0.0000 
     44 CA         47.0060  -34.0870   35.1500 C.3       8 GLP5        0.0000 
     45 CA         44.3305  -36.7480   32.6645 C.3       4 GLC5        0.0000 
     46 CA         43.3620  -35.0850   32.0240 C.3      12 GLL5        0.0000 
     47 CA         45.2990  -38.4110   33.3050 C.3       8 GLP5        0.0000 
     48 O          41.3170  -36.7195   32.2295 O.2       1 ALC1        0.0000 
     49 O          41.0560  -35.5360   31.4140 O.2       9 ALL1        0.0000 
     50 O          41.5780  -37.9030   33.0450 O.2       5 ALP1        0.0000 
     51 CA         38.4275  -32.8655   35.1370 C.3       4 GLC5        0.0000 
     52 CA         37.8700  -33.3440   33.2810 C.3      12 GLL5        0.0000 
     53 CA         38.9850  -32.3870   36.9930 C.3       8 GLP5        0.0000 
     54 CA         37.4410  -40.8450   31.5615 C.3       4 GLC5        0.0000 
     55 CA         38.0220  -39.3750   30.0440 C.3      12 GLL5        0.0000 
     56 CA         36.8600  -42.3150   33.0790 C.3       8 GLP5        0.0000 
     57 CA         35.9870  -39.6675   31.6285 C.3       4 GLC5        0.0000 
     58 CA         37.2140  -38.3220   30.5200 C.3      12 GLL5        0.0000 
     59 CA         34.7600  -41.0130   32.7370 C.3       8 GLP5        0.0000 
     60 CA         49.6505  -39.4153   31.2780 C.3       4 GLC5        0.0000 
     61 CA         50.6650  -39.8840   32.7650 C.3       8 GLP5        0.0000 
     62 CA         45.6935  -30.4747   31.2322 C.3       4 GLC5        0.0000 
     63 CA         45.7080  -28.7120   31.9670 C.3       8 GLP5        0.0000 
     64 CA         43.2048  -33.2535   34.8955 C.3       4 GLC5        0.0000 
     65 CA         42.8820  -32.8910   36.6620 C.3       8 GLP5        0.0000 
     66 CA         36.9557  -32.4350   29.3588 C.3       4 GLC5        0.0000 
     67 CA         38.6230  -33.1490   30.6330 C.3      12 GLL5        0.0000 
     68 CA         35.6290  -32.2490   27.7780 C.3       8 GLP5        0.0000 
     69 CA         39.7482  -38.4802   31.8245 C.3       4 GLC5        0.0000 
     70 CA         39.1260  -36.8030   30.5020 C.3      12 GLL5        0.0000 
     71 CA         39.9700  -39.6310   33.3840 C.3       8 GLP5        0.0000 
     72 CA         41.3915  -38.9843   30.5590 C.3       4 GLC5        0.0000 
     73 CA         39.9270  -37.8560   30.0280 C.3      12 GLL5        0.0000 
     74 CA         43.1220  -39.4720   31.1890 C.3       8 GLP5        0.0000 
     75 CA         40.8455  -37.8972   28.3930 C.3       4 GLC5        0.0000 
     76 CA         42.0300  -37.2980   26.8570 C.3       8 GLP5        0.0000 
     77 CA         38.6568  -40.3530   28.3295 C.3       4 GLC5        0.0000 
     78 CA         39.3950  -39.1370   29.8300 C.3      12 GLL5        0.0000 
     79 CA         38.6050  -41.4500   26.7220 C.3       8 GLP5        0.0000 
     80 CA         39.3392  -39.4435   31.6605 C.3       4 GLC5        0.0000 
     81 CA         38.7297  -38.6573   32.0108 C.3       4 GLC5        0.0000 
@<TRIPOS>BOND
@<TRIPOS>SUBSTRUCTURE
     1 ALC1       14 GROUP        1 X    ALC  0     ROOT ALC X 1
     2 SEC2       17 GROUP        1 X    SEC  0     **** SEC X 2
     3 ASC3        9 GROUP        1 X    ASC  0     **** ASC X 3
     4 GLC5        1 GROUP        1 X    GLC  0     **** GLC X 6
     5 ALP1       16 GROUP        1 Y    ALP  0     ROOT ALP Y 8
     6 SEP2       19 GROUP        1 Y    SEP  0     **** SEP Y 9
     7 ASP3       11 GROUP        1 Y    ASP  0     **** ASP Y 10
     8 GLP5        3 GROUP        1 Y    GLP  0     **** GLP Y 13
     9 ALL1       15 GROUP        1 Z    ALL  0     ROOT ALL Z 15
    10 SEL2       18 GROUP        1 Z    SEL  0     **** SEL Z 16
    11 ASL3       10 GROUP        1 Z    ASL  0     **** ASL Z 17
    12 GLL5        2 GROUP        1 Z    GLL  0     **** GLL Z 20
@<TRIPOS>SET

