#    Name: 3mup_SMK_4_ligand
#    Modification time : Mon Mar 24 23:42:32 2014

@<TRIPOS>MOLECULE
3mup_SMK_4_ligand
   78    81     1     0     0
SMALL
NO_CHARGES


@<TRIPOS>ATOM
      1 CAA        48.0140  -39.2110   30.1620 C.3       1 SMK600      0.0000 
      2 CB         49.2580  -38.6820   29.4200 C.3       1 SMK600      0.0000 
      3 CA         48.9270  -37.4370   28.5840 C.3       1 SMK600      0.0000 
      4 N          50.1050  -36.9300   27.8390 N.4       1 SMK600      0.0000 
      5 C          48.4030  -36.3620   29.5270 C.2       1 SMK600      0.0000 
      6 O          49.0300  -36.0480   30.5450 O.2       1 SMK600      0.0000 
      7 NAY        47.2590  -35.8070   29.1410 N.am      1 SMK600      0.0000 
      8 CBI        46.6180  -34.7710   29.9450 C.3       1 SMK600      0.0000 
      9 CBB        45.2870  -35.2700   30.5030 C.2       1 SMK600      0.0000 
     10 OAF        44.8510  -36.3690   30.1440 O.2       1 SMK600      0.0000 
     11 NBK        44.6230  -34.5890   31.4370 N.am      1 SMK600      0.0000 
     12 CBF        46.5340  -33.4430   29.2070 C.3       1 SMK600      0.0000 
     13 CAS        45.5920  -33.4590   28.0100 C.3       1 SMK600      0.0000 
     14 CAQ        46.3850  -33.8010   26.7400 C.3       1 SMK600      0.0000 
     15 NAB        47.8220  -33.7580   27.0200 N.4       1 SMK600      0.0000 
     16 CAT        46.3450  -32.2300   30.1240 C.3       1 SMK600      0.0000 
     17 CAU        45.0130  -32.2450   30.8710 C.3       1 SMK600      0.0000 
     18 CBG        44.9860  -33.2730   32.0070 C.3       1 SMK600      0.0000 
     19 CAV        43.8040  -32.9280   32.9320 C.3       1 SMK600      0.0000 
     20 CAW        43.2510  -34.3040   33.3260 C.3       1 SMK600      0.0000 
     21 CBJ        43.3620  -35.0850   32.0240 C.3       1 SMK600      0.0000 
     22 CBA        42.1460  -34.8200   31.1050 C.2       1 SMK600      0.0000 
     23 OAE        42.1990  -34.0110   30.1740 O.2       1 SMK600      0.0000 
     24 NAX        41.0560  -35.5360   31.4140 N.am      1 SMK600      0.0000 
     25 CBH        39.7810  -35.4180   30.6750 C.3       1 SMK600      0.0000 
     26 CBC        38.9150  -34.3180   31.3310 C.ar      1 SMK600      0.0000 
     27 CAM        38.6230  -33.1490   30.6330 C.ar      1 SMK600      0.0000 
     28 CAI        37.9420  -32.0930   31.2460 C.ar      1 SMK600      0.0000 
     29 CAG        37.5580  -32.1860   32.5760 C.ar      1 SMK600      0.0000 
     30 CAJ        37.8700  -33.3440   33.2810 C.ar      1 SMK600      0.0000 
     31 CAN        38.5790  -34.3810   32.6740 C.ar      1 SMK600      0.0000 
     32 CBD        39.1260  -36.8030   30.5020 C.ar      1 SMK600      0.0000 
     33 CAO        39.9270  -37.8560   30.0280 C.ar      1 SMK600      0.0000 
     34 CAK        39.3950  -39.1370   29.8300 C.ar      1 SMK600      0.0000 
     35 CAH        38.0220  -39.3750   30.0440 C.ar      1 SMK600      0.0000 
     36 CAL        37.2140  -38.3220   30.5200 C.ar      1 SMK600      0.0000 
     37 CAP        37.7650  -37.0450   30.7550 C.ar      1 SMK600      0.0000 
     38 H          49.6385  -39.4638   28.7642 H         1 SMK600      0.0000 
     39 H          50.0257  -38.4301   30.1503 H         1 SMK600      0.0000 
     40 H          48.1314  -37.6944   27.8991 H         1 SMK600      0.0000 
     41 H          46.7706  -36.0735   28.2677 H         1 SMK600      0.0000 
     42 H          47.2792  -34.5928   30.8430 H         1 SMK600      0.0000 
     43 H          47.5874  -33.2947   28.7474 H         1 SMK600      0.0000 
     44 H          45.1369  -32.4839   27.8922 H         1 SMK600      0.0000 
     45 H          44.8244  -34.2072   28.1612 H         1 SMK600      0.0000 
     46 H          46.1155  -33.0793   25.9664 H         1 SMK600      0.0000 
     47 H          46.0810  -34.7953   26.4070 H         1 SMK600      0.0000 
     48 H          46.4084  -31.3146   29.5207 H         1 SMK600      0.0000 
     49 H          47.1657  -32.2039   30.8532 H         1 SMK600      0.0000 
     50 H          44.2069  -32.4738   30.1645 H         1 SMK600      0.0000 
     51 H          44.8228  -31.2491   31.2874 H         1 SMK600      0.0000 
     52 H          45.8607  -33.2934   32.5314 H         1 SMK600      0.0000 
     53 H          43.0745  -32.3900   32.3898 H         1 SMK600      0.0000 
     54 H          44.1599  -32.4253   33.7900 H         1 SMK600      0.0000 
     55 H          42.2391  -34.2116   33.6087 H         1 SMK600      0.0000 
     56 H          43.8694  -34.7368   34.0627 H         1 SMK600      0.0000 
     57 H          43.4382  -36.1161   32.2500 H         1 SMK600      0.0000 
     58 H          41.0488  -36.2226   32.2013 H         1 SMK600      0.0000 
     59 H          40.0366  -35.0491   29.6497 H         1 SMK600      0.0000 
     60 H          38.9137  -33.0580   29.6445 H         1 SMK600      0.0000 
     61 H          37.7267  -31.2445   30.7040 H         1 SMK600      0.0000 
     62 H          37.0574  -31.4223   33.0289 H         1 SMK600      0.0000 
     63 H          37.5739  -33.4389   34.2662 H         1 SMK600      0.0000 
     64 H          38.8548  -35.2035   33.2357 H         1 SMK600      0.0000 
     65 H          40.9229  -37.6811   29.8230 H         1 SMK600      0.0000 
     66 H          40.0022  -39.9054   29.5289 H         1 SMK600      0.0000 
     67 H          37.6220  -40.2882   29.8587 H         1 SMK600      0.0000 
     68 H          36.2170  -38.4858   30.6969 H         1 SMK600      0.0000 
     69 H          37.1686  -36.2923   31.1117 H         1 SMK600      0.0000 
     70 H          48.2238  -40.0231   30.7066 H         1 SMK600      0.0000 
     71 H          47.6363  -38.5282   30.7874 H         1 SMK600      0.0000 
     72 H          47.2831  -39.4640   29.5281 H         1 SMK600      0.0000 
     73 H          50.7373  -37.6664   27.5982 H         1 SMK600      0.0000 
     74 H          49.8397  -36.4807   26.9859 H         1 SMK600      0.0000 
     75 H          50.6230  -36.2619   28.3733 H         1 SMK600      0.0000 
     76 H          48.3650  -33.9770   26.2094 H         1 SMK600      0.0000 
     77 H          48.1127  -32.8535   27.3319 H         1 SMK600      0.0000 
     78 H          48.0814  -34.4108   27.7317 H         1 SMK600      0.0000 
@<TRIPOS>BOND
     1    2    1 1    
     2   70    1 1    
     3   71    1 1    
     4   72    1 1    
     5    3    2 1    
     6   38    2 1    
     7   39    2 1    
     8    4    3 1    
     9    5    3 1    
    10   40    3 1    
    11   73    4 1    
    12   74    4 1    
    13   75    4 1    
    14    6    5 2    
    15    7    5 am   
    16    8    7 1    
    17   41    7 1    
    18    9    8 1    
    19   12    8 1    
    20   42    8 1    
    21   10    9 2    
    22   11    9 am   
    23   18   11 1    
    24   21   11 1    
    25   13   12 1    
    26   16   12 1    
    27   43   12 1    
    28   14   13 1    
    29   44   13 1    
    30   45   13 1    
    31   15   14 1    
    32   46   14 1    
    33   47   14 1    
    34   76   15 1    
    35   77   15 1    
    36   78   15 1    
    37   17   16 1    
    38   48   16 1    
    39   49   16 1    
    40   18   17 1    
    41   50   17 1    
    42   51   17 1    
    43   19   18 1    
    44   52   18 1    
    45   20   19 1    
    46   53   19 1    
    47   54   19 1    
    48   21   20 1    
    49   55   20 1    
    50   56   20 1    
    51   22   21 1    
    52   57   21 1    
    53   23   22 2    
    54   24   22 am   
    55   25   24 1    
    56   58   24 1    
    57   26   25 1    
    58   32   25 1    
    59   59   25 1    
    60   27   26 ar   
    61   31   26 ar   
    62   28   27 ar   
    63   60   27 1    
    64   29   28 ar   
    65   61   28 1    
    66   30   29 ar   
    67   62   29 1    
    68   31   30 ar   
    69   63   30 1    
    70   64   31 1    
    71   33   32 ar   
    72   37   32 ar   
    73   34   33 ar   
    74   65   33 1    
    75   35   34 ar   
    76   66   34 1    
    77   36   35 ar   
    78   67   35 1    
    79   37   36 ar   
    80   68   36 1    
    81   69   37 1    
@<TRIPOS>SUBSTRUCTURE
     1 SMK600      1 GROUP   
@<TRIPOS>SET

