#    Name: 3rg9_WRA_2_INTS_M
#    Modification time : Tue Mar 25 11:24:36 2014

@<TRIPOS>MOLECULE
3rg9_WRA_2_INTS_M
   83     0     9     0     0
SMALL
NO_CHARGES


@<TRIPOS>ATOM
      1 CA         -7.7355    6.9845   28.2010 C.3       3 GLC5        0.0000 
      2 CA         -6.4320    7.6970   26.5310 C.3       9 GLL5        0.0000 
      3 CA         -9.0390    6.2720   29.8710 C.3       6 GLP5        0.0000 
      4 O          -6.9800    4.5890   26.7770 O.2       1 ALC1        0.0000 
      5 O          -6.5020    6.2640   26.9410 O.2       7 ALL1        0.0000 
      6 O          -7.4580    2.9140   26.6130 O.2       4 ALP1        0.0000 
      7 O          -7.2675    5.4540   26.1605 O.2       1 ALC1        0.0000 
      8 O          -8.0330    4.6440   25.3800 O.2       4 ALP1        0.0000 
      9 OD1        -6.6055    3.6570   27.3415 O.co2     2 ASC3        0.0000 
     10 OD1        -5.6290    5.7080   27.8070 O.co2     8 ASL3        0.0000 
     11 OD1        -7.4580    2.9140   26.6130 O.co2     5 ASP3        0.0000 
     12 OD1        -6.9800    4.5890   26.7770 O.co2     2 ASC3        0.0000 
     13 OD1        -8.0330    4.6440   25.3800 O.co2     5 ASP3        0.0000 
     14 O          -3.1705    6.7655   29.2635 O.2       1 ALC1        0.0000 
     15 O          -4.6140    6.4510   28.3800 O.2       7 ALL1        0.0000 
     16 O          -1.7270    7.0800   30.1470 O.2       4 ALP1        0.0000 
     17 CA         -6.4415   10.4800   29.6965 C.3       3 GLC5        0.0000 
     18 CA         -5.5850   10.9530   28.2340 C.3       9 GLL5        0.0000 
     19 CA         -7.2980   10.0070   31.1590 C.3       6 GLP5        0.0000 
     20 CA         -4.3730   11.0440   29.7575 C.3       3 GLC5        0.0000 
     21 CA         -3.1610   11.1350   31.2810 C.3       6 GLP5        0.0000 
     22 CA         -3.8720   10.7450   26.9725 C.3       3 GLC5        0.0000 
     23 CA         -2.1590   10.5370   25.7110 C.3       6 GLP5        0.0000 
     24 CA         -5.0790   12.7760   29.5865 C.3       3 GLC5        0.0000 
     25 CA         -5.3970   12.4270   27.7330 C.3       9 GLL5        0.0000 
     26 CA         -4.7610   13.1250   31.4400 C.3       6 GLP5        0.0000 
     27 CA         -6.1210   11.3995   24.5370 C.3       3 GLC5        0.0000 
     28 CA         -6.1960   12.6460   26.3890 C.3       9 GLL5        0.0000 
     29 CA         -6.0460   10.1530   22.6850 C.3       6 GLP5        0.0000 
     30 CA         -8.9365    8.5225   25.0785 C.3       3 GLC5        0.0000 
     31 CA         -7.8520    8.3090   26.5730 C.3       9 GLL5        0.0000 
     32 CA        -10.0210    8.7360   23.5840 C.3       6 GLP5        0.0000 
     33 CA         -8.1345    7.9485   28.4270 C.3       3 GLC5        0.0000 
     34 CA         -8.4170    7.5880   30.2810 C.3       6 GLP5        0.0000 
     35 CA         -5.0325    5.9420   24.7025 C.3       3 GLC5        0.0000 
     36 CA         -5.8700    7.6960   25.0840 C.3       9 GLL5        0.0000 
     37 CA         -4.1950    4.1880   24.3210 C.3       6 GLP5        0.0000 
     38 CA         -5.9580    8.9245   23.8845 C.3       3 GLC5        0.0000 
     39 CA         -3.9435    8.7190   24.7610 C.3       3 GLC5        0.0000 
     40 CA         -2.0170    9.7420   24.4380 C.3       6 GLP5        0.0000 
     41 O          -6.6055    3.6570   27.3415 O.2       1 ALC1        0.0000 
     42 O          -5.7530    4.4000   28.0700 O.2       7 ALL1        0.0000 
     43 O          -2.6250    7.7945   29.4220 O.2       1 ALC1        0.0000 
     44 O          -3.5230    8.5090   28.6970 O.2       7 ALL1        0.0000 
     45 O          -2.7865    9.9240   28.7380 O.2       1 ALC1        0.0000 
     46 O          -2.0500   11.3390   28.7790 O.2       4 ALP1        0.0000 
     47 CA        -10.8545   10.2155   26.1685 C.3       3 GLC5        0.0000 
     48 CA        -10.5250   11.7700   27.4130 C.3       9 GLL5        0.0000 
     49 CA        -11.1840    8.6610   24.9240 C.3       6 GLP5        0.0000 
     50 CA         -9.5850   10.8575   29.1140 C.3       3 GLC5        0.0000 
     51 CA         -8.6450    9.9450   30.8150 C.3       6 GLP5        0.0000 
     52 CA         -9.4745   13.6205   27.2680 C.3       3 GLC5        0.0000 
     53 CA         -8.4240   15.4710   27.1230 C.3       6 GLP5        0.0000 
     54 CA        -12.2420   12.4815   27.5070 C.3       3 GLC5        0.0000 
     55 CA        -13.9590   13.1930   27.6010 C.3       6 GLP5        0.0000 
     56 CA        -10.4540   12.9470   28.9395 C.3       3 GLC5        0.0000 
     57 CA        -10.3830   14.1240   30.4660 C.3       6 GLP5        0.0000 
     58 CA        -12.1140   14.3400   22.1955 C.3       3 GLC5        0.0000 
     59 CA        -11.8680   12.6290   22.1410 C.3       9 GLL5        0.0000 
     60 CA        -12.3600   16.0510   22.2500 C.3       6 GLP5        0.0000 
     61 CA        -13.3765   12.9870   23.5630 C.3       3 GLC5        0.0000 
     62 CA        -14.8850   13.3450   24.9850 C.3       6 GLP5        0.0000 
     63 CA         -7.3180   13.7670   19.5950 C.3       3 GLC5        0.0000 
     64 CA         -8.4820   13.2300   21.4390 C.3       9 GLL5        0.0000 
     65 CA         -6.1540   14.3040   17.7510 C.3       6 GLP5        0.0000 
     66 CA         -4.5172   13.8138   27.0610 C.3       3 GLC5        0.0000 
     67 CA         -3.2380   15.0910   27.0610 C.3       6 GLP5        0.0000 
     68 CA         -7.1102   14.0038   27.0920 C.3       3 GLC5        0.0000 
     69 CA         -3.8872   12.2863   26.3985 C.3       3 GLC5        0.0000 
     70 CA         -1.9780   12.0360   25.7360 C.3       6 GLP5        0.0000 
     71 CA         -7.2220   11.3652   23.7435 C.3       3 GLC5        0.0000 
     72 CA         -8.6080   12.4110   25.4930 C.3       9 GLL5        0.0000 
     73 CA         -9.2095   10.6567   24.1930 C.3       3 GLC5        0.0000 
     74 CA         -8.1880   12.7440   24.1110 C.3       9 GLL5        0.0000 
     75 CA        -10.8632   10.4242   25.1010 C.3       3 GLC5        0.0000 
     76 CA        -10.0430   12.1510   25.8080 C.3       9 GLL5        0.0000 
     77 CA         -9.9588   10.7125   23.3910 C.3       3 GLC5        0.0000 
     78 CA        -10.6230   12.5570   23.3610 C.3       9 GLL5        0.0000 
     79 CA         -7.4360   11.5892   22.4610 C.3       3 GLC5        0.0000 
     80 CA         -9.1700   12.8210   23.0350 C.3       9 GLL5        0.0000 
     81 CA        -10.7286   14.3304   23.5029 C.3       3 GLC5        0.0000 
     82 CA        -11.4560   16.0550   23.4610 C.3       6 GLP5        0.0000 
     83 CA         -8.5904   13.9917   26.0019 C.3       3 GLC5        0.0000 
@<TRIPOS>BOND
@<TRIPOS>SUBSTRUCTURE
     1 ALC1        4 GROUP        1 X    ALC  0     ROOT ALC X 1
     2 ASC3        9 GROUP        1 X    ASC  0     **** ASC X 3
     3 GLC5        1 GROUP        1 X    GLC  0     **** GLC X 6
     4 ALP1        6 GROUP        1 Y    ALP  0     ROOT ALP Y 8
     5 ASP3       11 GROUP        1 Y    ASP  0     **** ASP Y 10
     6 GLP5        3 GROUP        1 Y    GLP  0     **** GLP Y 13
     7 ALL1        5 GROUP        1 Z    ALL  0     ROOT ALL Z 15
     8 ASL3       10 GROUP        1 Z    ASL  0     **** ASL Z 17
     9 GLL5        2 GROUP        1 Z    GLL  0     **** GLL Z 20
@<TRIPOS>SET

