#    Name: 3rg9_WRA_2_ligand
#    Modification time : Tue Mar 25 11:24:36 2014

@<TRIPOS>MOLECULE
3rg9_WRA_2_ligand
   44    45     1     0     0
SMALL
NO_CHARGES


@<TRIPOS>ATOM
      1 C1         -6.4320    7.6970   26.5310 C.3       1 WRA702      0.0000 
      2 N2         -6.5020    6.2640   26.9410 N.pl3     1 WRA702      0.0000 
      3 C3         -5.6290    5.7080   27.8070 C.cat     1 WRA702      0.0000 
      4 N4         -4.6140    6.4510   28.3800 N.pl3     1 WRA702      0.0000 
      5 C5         -4.5060    7.8160   28.1680 C.cat     1 WRA702      0.0000 
      6 N6         -5.4460    8.4790   27.3820 N.pl3     1 WRA702      0.0000 
      7 O7         -5.2820    9.9220   27.1750 O.3       1 WRA702      0.0000 
      8 C8         -5.5850   10.9530   28.2340 C.3       1 WRA702      0.0000 
      9 C9         -5.3970   12.4270   27.7330 C.3       1 WRA702      0.0000 
     10 C10        -6.1960   12.6460   26.3890 C.3       1 WRA702      0.0000 
     11 O11        -7.6430   12.3420   26.5390 O.3       1 WRA702      0.0000 
     12 C12        -8.6080   12.4110   25.4930 C.ar      1 WRA702      0.0000 
     13 C13       -10.0430   12.1510   25.8080 C.ar      1 WRA702      0.0000 
     14 C14       -11.0420   12.2240   24.7480 C.ar      1 WRA702      0.0000 
     15 C15       -10.6230   12.5570   23.3610 C.ar      1 WRA702      0.0000 
     16 C16        -9.1700   12.8210   23.0350 C.ar      1 WRA702      0.0000 
     17 C17        -8.1880   12.7440   24.1110 C.ar      1 WRA702      0.0000 
     18 CM1        -7.8520    8.3090   26.5730 C.3       1 WRA702      0.0000 
     19 CM2        -5.8700    7.6960   25.0840 C.3       1 WRA702      0.0000 
     20 NH1        -5.7530    4.4000   28.0700 N.pl3     1 WRA702      0.0000 
     21 NH2        -3.5230    8.5090   28.6970 N.pl3     1 WRA702      0.0000 
     22 CL1       -10.5250   11.7700   27.4130 Cl        1 WRA702      0.0000 
     23 CL2       -11.8680   12.6290   22.1410 Cl        1 WRA702      0.0000 
     24 CL3        -8.4820   13.2300   21.4390 Cl        1 WRA702      0.0000 
     25 H          -7.2767    5.7207   26.5089 H         1 WRA702      0.0000 
     26 H          -3.9132    5.9750   28.9856 H         1 WRA702      0.0000 
     27 H          -4.9280   10.8079   29.1004 H         1 WRA702      0.0000 
     28 H          -6.6210   10.8464   28.5785 H         1 WRA702      0.0000 
     29 H          -4.3533   12.6067   27.5478 H         1 WRA702      0.0000 
     30 H          -5.7784   13.1040   28.4761 H         1 WRA702      0.0000 
     31 H          -5.7382   12.0028   25.6310 H         1 WRA702      0.0000 
     32 H          -6.0447   13.6872   26.0878 H         1 WRA702      0.0000 
     33 H         -12.0074   12.0530   24.9405 H         1 WRA702      0.0000 
     34 H          -7.2148   12.9167   23.9238 H         1 WRA702      0.0000 
     35 H          -5.0980    4.0183   28.7221 H         1 WRA702      0.0000 
     36 H          -6.4894    3.9227   27.5906 H         1 WRA702      0.0000 
     37 H          -3.5344    9.4934   28.5214 H         1 WRA702      0.0000 
     38 H          -2.8532    7.9888   29.2269 H         1 WRA702      0.0000 
     39 H          -7.8495    9.2719   26.3032 H         1 WRA702      0.0000 
     40 H          -8.4797    7.8335   25.9566 H         1 WRA702      0.0000 
     41 H          -8.2496    8.2624   27.4894 H         1 WRA702      0.0000 
     42 H          -4.9636    7.2761   25.0379 H         1 WRA702      0.0000 
     43 H          -6.4604    7.1883   24.4566 H         1 WRA702      0.0000 
     44 H          -5.7826    8.6229   24.7189 H         1 WRA702      0.0000 
@<TRIPOS>BOND
     1    2    1 1    
     2    6    1 1    
     3   18    1 1    
     4   19    1 1    
     5    3    2 ar   
     6   25    2 1    
     7    4    3 ar   
     8   20    3 ar   
     9    5    4 ar   
    10   26    4 1    
    11    6    5 ar   
    12   21    5 ar   
    13    7    6 1    
    14    8    7 1    
    15    9    8 1    
    16   27    8 1    
    17   28    8 1    
    18   10    9 1    
    19   29    9 1    
    20   30    9 1    
    21   11   10 1    
    22   31   10 1    
    23   32   10 1    
    24   12   11 1    
    25   13   12 ar   
    26   17   12 ar   
    27   14   13 ar   
    28   22   13 1    
    29   15   14 ar   
    30   33   14 1    
    31   16   15 ar   
    32   23   15 1    
    33   17   16 ar   
    34   24   16 1    
    35   34   17 1    
    36   39   18 1    
    37   40   18 1    
    38   41   18 1    
    39   42   19 1    
    40   43   19 1    
    41   44   19 1    
    42   35   20 1    
    43   36   20 1    
    44   37   21 1    
    45   38   21 1    
@<TRIPOS>SUBSTRUCTURE
     1 WRA702      1 GROUP   
@<TRIPOS>SET

