#    Name: 3vs0_VS0_2_INTS_M
#    Modification time : Tue Mar 25 01:23:52 2014

@<TRIPOS>MOLECULE
3vs0_VS0_2_INTS_M
   70     0     9     0     0
SMALL
NO_CHARGES


@<TRIPOS>ATOM
      1 CA        -31.7715   -7.6455  -71.6595 C.3       3 GLC5        0.0000 
      2 CA        -33.5010   -7.2140  -71.9430 C.3       9 GLL5        0.0000 
      3 CA        -30.0420   -8.0770  -71.3760 C.3       6 GLP5        0.0000 
      4 CA        -34.3890    4.2815  -73.2495 C.3       3 GLC5        0.0000 
      5 CA        -33.5870    2.7390  -74.5190 C.3       9 GLL5        0.0000 
      6 CA        -35.1910    5.8240  -71.9800 C.3       6 GLP5        0.0000 
      7 O         -36.1350    2.1220  -74.2690 O.2       1 ALC1        0.0000 
      8 O         -34.6140    1.9330  -74.1590 O.2       7 ALL1        0.0000 
      9 O         -37.6560    2.3110  -74.3790 O.2       4 ALP1        0.0000 
     10 N         -35.0890    4.7470  -74.6010 N.am      2 SEC2        0.0000 
     11 N         -33.8920    3.9440  -75.0450 N.am      8 SEL2        0.0000 
     12 N         -36.2860    5.5500  -74.1570 N.am      5 SEP2        0.0000 
     13 CA        -31.9990    4.4380  -77.1620 C.3       3 GLC5        0.0000 
     14 CA        -32.9350    4.7980  -75.4210 C.3       9 GLL5        0.0000 
     15 CA        -31.0630    4.0780  -78.9030 C.3       6 GLP5        0.0000 
     16 CA        -34.4265    5.6575  -74.2760 C.3       3 GLC5        0.0000 
     17 CA        -35.9180    6.5170  -73.1310 C.3       6 GLP5        0.0000 
     18 CA        -31.1695    3.6835  -76.8335 C.3       3 GLC5        0.0000 
     19 CA        -31.2760    3.2890  -74.7640 C.3       9 GLL5        0.0000 
     20 CA        -31.1990    3.1975  -72.6235 C.3       3 GLC5        0.0000 
     21 CA        -31.1220    3.1060  -70.4830 C.3       6 GLP5        0.0000 
     22 CA        -30.6615    2.3305  -72.2415 C.3       3 GLC5        0.0000 
     23 CA        -30.2010    1.5550  -74.0000 C.3       9 GLL5        0.0000 
     24 CA        -29.0755    5.6195  -73.2165 C.3       3 GLC5        0.0000 
     25 CA        -28.0080    3.7470  -73.5560 C.3       9 GLL5        0.0000 
     26 CA        -30.1430    7.4920  -72.8770 C.3       6 GLP5        0.0000 
     27 CA        -29.5650    3.4265  -72.0195 C.3       3 GLC5        0.0000 
     28 CA        -35.1655   -6.8230  -73.2590 C.3       3 GLC5        0.0000 
     29 CA        -34.0650   -5.9860  -71.6150 C.3       9 GLL5        0.0000 
     30 CA        -36.5480   -7.0460  -74.7390 C.3       6 GLP5        0.0000 
     31 CA        -32.9760   -5.8090  -70.3910 C.3       3 GLC5        0.0000 
     32 CA        -32.1690   -5.0180  -69.0030 C.3       6 GLP5        0.0000 
     33 CA        -33.2820   -6.6745  -69.8975 C.3       3 GLC5        0.0000 
     34 CA        -33.9100   -8.3680  -71.2880 C.3       9 GLL5        0.0000 
     35 CA        -32.5750   -8.6225  -69.9590 C.3       3 GLC5        0.0000 
     36 CA        -30.7550   -8.9140  -69.1260 C.3       6 GLP5        0.0000 
     37 CA        -37.1743   -6.4940  -70.2015 C.3       3 GLC5        0.0000 
     38 CA        -35.4400   -7.0660  -69.9590 C.3       9 GLL5        0.0000 
     39 CA        -39.1130   -6.5000  -70.1160 C.3       6 GLP5        0.0000 
     40 CA        -33.7022   -5.7530  -69.6450 C.3       3 GLC5        0.0000 
     41 CA        -31.3920   -3.5782  -73.2050 C.3       3 GLC5        0.0000 
     42 CA        -33.0060   -2.4300  -72.2150 C.3       9 GLL5        0.0000 
     43 CA        -30.3700   -5.0130  -74.4200 C.3       6 GLP5        0.0000 
     44 CA        -35.2625   -2.5280  -73.0850 C.3       3 GLC5        0.0000 
     45 CA        -37.1530   -2.9450  -73.4580 C.3       6 GLP5        0.0000 
     46 CA        -32.2915   -3.5808  -70.4965 C.3       3 GLC5        0.0000 
     47 CA        -31.8220   -1.8570  -71.7650 C.3       9 GLL5        0.0000 
     48 CA        -32.5018    0.4538  -71.4502 C.3       3 GLC5        0.0000 
     49 CA        -33.4120    2.1690  -70.8620 C.3       6 GLP5        0.0000 
     50 CA        -32.3267   -1.1174  -70.3515 C.3       3 GLC5        0.0000 
     51 CA        -31.3610   -0.6660  -72.3120 C.3       9 GLL5        0.0000 
     52 CA        -32.7660   -0.8300  -68.5520 C.3       6 GLP5        0.0000 
     53 CA        -33.0430    0.9263  -72.1997 C.3       3 GLC5        0.0000 
     54 CA        -32.0820   -0.0270  -73.3140 C.3       9 GLL5        0.0000 
     55 CA        -31.1048    1.5495  -75.9262 C.3       3 GLC5        0.0000 
     56 CA        -32.2450    2.3750  -74.3630 C.3       9 GLL5        0.0000 
     57 CA        -30.4490    0.2670  -77.2890 C.3       6 GLP5        0.0000 
     58 CA        -34.0800    1.9695  -75.8675 C.3       3 GLC5        0.0000 
     59 CA        -35.2440    1.3820  -77.2940 C.3       6 GLP5        0.0000 
     60 CA        -33.0775    2.2230  -72.5915 C.3       3 GLC5        0.0000 
     61 CA        -30.7291    0.6757  -75.5441 C.3       3 GLC5        0.0000 
     62 CA        -28.4925    3.2262  -77.2015 C.3       3 GLC5        0.0000 
     63 CA        -27.8760    2.6340  -75.7400 C.3       9 GLL5        0.0000 
     64 CA        -28.6560    3.4010  -79.1130 C.3       6 GLP5        0.0000 
     65 CA        -29.3890    1.6592  -76.2895 C.3       3 GLC5        0.0000 
     66 CA        -26.1777    1.6635  -76.7745 C.3       3 GLC5        0.0000 
     67 CA        -25.1560    0.7540  -78.1560 C.3       6 GLP5        0.0000 
     68 CA        -27.2405    4.3158  -71.8250 C.3       3 GLC5        0.0000 
     69 CA        -26.5420    3.4620  -73.8560 C.3       9 GLL5        0.0000 
     70 CA        -27.2060    5.0270  -69.9440 C.3       6 GLP5        0.0000 
@<TRIPOS>BOND
@<TRIPOS>SUBSTRUCTURE
     1 ALC1        7 GROUP        1 X    ALC  0     ROOT ALC X 1
     2 SEC2       10 GROUP        1 X    SEC  0     **** SEC X 2
     3 GLC5        1 GROUP        1 X    GLC  0     **** GLC X 6
     4 ALP1        9 GROUP        1 Y    ALP  0     ROOT ALP Y 8
     5 SEP2       12 GROUP        1 Y    SEP  0     **** SEP Y 9
     6 GLP5        3 GROUP        1 Y    GLP  0     **** GLP Y 13
     7 ALL1        8 GROUP        1 Z    ALL  0     ROOT ALL Z 15
     8 SEL2       11 GROUP        1 Z    SEL  0     **** SEL Z 16
     9 GLL5        2 GROUP        1 Z    GLL  0     **** GLL Z 20
@<TRIPOS>SET

