#    Name: 3vs0_VS0_2_ligand
#    Modification time : Tue Mar 25 01:23:52 2014

@<TRIPOS>MOLECULE
3vs0_VS0_2_ligand
   53    57     1     0     0
SMALL
NO_CHARGES


@<TRIPOS>ATOM
      1 O30       -33.3560   -4.8080  -73.5180 O.2       1 VS0602      0.0000 
      2 C19       -33.5990   -4.7480  -72.3270 C.2       1 VS0602      0.0000 
      3 C15       -34.0650   -5.9860  -71.6150 C.ar      1 VS0602      0.0000 
      4 C6        -33.5010   -7.2140  -71.9430 C.ar      1 VS0602      0.0000 
      5 C2        -33.9100   -8.3680  -71.2880 C.ar      1 VS0602      0.0000 
      6 C1        -34.8800   -8.2940  -70.2960 C.ar      1 VS0602      0.0000 
      7 C3        -35.4400   -7.0660  -69.9590 C.ar      1 VS0602      0.0000 
      8 C7        -35.0310   -5.9100  -70.6150 C.ar      1 VS0602      0.0000 
      9 N29       -33.4570   -3.6230  -71.6320 N.am      1 VS0602      0.0000 
     10 C16       -33.0060   -2.4300  -72.2150 C.ar      1 VS0602      0.0000 
     11 C8        -31.8220   -1.8570  -71.7650 C.ar      1 VS0602      0.0000 
     12 C4        -31.3610   -0.6660  -72.3120 C.ar      1 VS0602      0.0000 
     13 C13       -32.0820   -0.0270  -73.3140 C.ar      1 VS0602      0.0000 
     14 C5        -33.2660   -0.6060  -73.7610 C.ar      1 VS0602      0.0000 
     15 C9        -33.7380   -1.7920  -73.2090 C.ar      1 VS0602      0.0000 
     16 C14       -31.5530    1.2550  -73.8830 C.2       1 VS0602      0.0000 
     17 C12       -32.2450    2.3750  -74.3630 C.ar      1 VS0602      0.0000 
     18 C18       -33.5870    2.7390  -74.5190 C.ar      1 VS0602      0.0000 
     19 N28       -34.6140    1.9330  -74.1590 N.pl3     1 VS0602      0.0000 
     20 N26       -33.8920    3.9440  -75.0450 N.ar      1 VS0602      0.0000 
     21 C11       -32.9350    4.7980  -75.4210 C.ar      1 VS0602      0.0000 
     22 N25       -31.6440    4.4840  -75.2850 N.ar      1 VS0602      0.0000 
     23 C17       -31.2760    3.2890  -74.7640 C.ar      1 VS0602      0.0000 
     24 N27       -30.0630    2.7700  -74.5460 N.pl3     1 VS0602      0.0000 
     25 C10       -30.2010    1.5550  -74.0000 C.2       1 VS0602      0.0000 
     26 C24       -28.7820    3.4690  -74.8400 C.3       1 VS0602      0.0000 
     27 C23       -27.8760    2.6340  -75.7400 C.3       1 VS0602      0.0000 
     28 C21       -26.5230    2.5120  -75.0460 C.3       1 VS0602      0.0000 
     29 C20       -26.5420    3.4620  -73.8560 C.3       1 VS0602      0.0000 
     30 C22       -28.0080    3.7470  -73.5560 C.3       1 VS0602      0.0000 
     31 H         -32.7775   -7.2668  -72.6744 H         1 VS0602      0.0000 
     32 H         -33.4961   -9.2756  -71.5363 H         1 VS0602      0.0000 
     33 H         -35.1849   -9.1479  -69.8097 H         1 VS0602      0.0000 
     34 H         -36.1575   -7.0131  -69.2237 H         1 VS0602      0.0000 
     35 H         -35.4398   -5.0024  -70.3632 H         1 VS0602      0.0000 
     36 H         -33.6838   -3.5955  -70.6031 H         1 VS0602      0.0000 
     37 H         -31.2809   -2.3208  -71.0179 H         1 VS0602      0.0000 
     38 H         -30.4788   -0.2534  -71.9729 H         1 VS0602      0.0000 
     39 H         -33.8039   -0.1459  -74.5169 H         1 VS0602      0.0000 
     40 H         -34.6246   -2.1945  -73.5353 H         1 VS0602      0.0000 
     41 H         -34.3628    1.0636  -73.7337 H         1 VS0602      0.0000 
     42 H         -35.5326    2.2787  -74.3503 H         1 VS0602      0.0000 
     43 H         -33.2028    5.7301  -75.8296 H         1 VS0602      0.0000 
     44 H         -29.4928    0.9601  -73.7222 H         1 VS0602      0.0000 
     45 H         -28.9688    4.4108  -75.3285 H         1 VS0602      0.0000 
     46 H         -27.7522    3.1301  -76.6865 H         1 VS0602      0.0000 
     47 H         -28.3027    1.6555  -75.8725 H         1 VS0602      0.0000 
     48 H         -25.7426    2.7995  -75.7259 H         1 VS0602      0.0000 
     49 H         -26.3848    1.5038  -74.7018 H         1 VS0602      0.0000 
     50 H         -26.0425    4.3743  -74.1141 H         1 VS0602      0.0000 
     51 H         -26.0856    2.9895  -73.0093 H         1 VS0602      0.0000 
     52 H         -28.3518    3.0919  -72.7791 H         1 VS0602      0.0000 
     53 H         -28.1267    4.7768  -73.2796 H         1 VS0602      0.0000 
@<TRIPOS>BOND
     1    2    1 2    
     2    3    2 1    
     3    9    2 am   
     4    4    3 ar   
     5    8    3 ar   
     6    5    4 ar   
     7   31    4 1    
     8    6    5 ar   
     9   32    5 1    
    10    7    6 ar   
    11   33    6 1    
    12    8    7 ar   
    13   34    7 1    
    14   35    8 1    
    15   10    9 1    
    16   36    9 1    
    17   11   10 ar   
    18   15   10 ar   
    19   12   11 ar   
    20   37   11 1    
    21   13   12 ar   
    22   38   12 1    
    23   14   13 ar   
    24   16   13 1    
    25   15   14 ar   
    26   39   14 1    
    27   40   15 1    
    28   17   16 1    
    29   25   16 2    
    30   18   17 ar   
    31   23   17 ar   
    32   19   18 1    
    33   20   18 ar   
    34   41   19 1    
    35   42   19 1    
    36   21   20 ar   
    37   22   21 ar   
    38   43   21 1    
    39   23   22 ar   
    40   24   23 1    
    41   25   24 1    
    42   26   24 1    
    43   44   25 1    
    44   27   26 1    
    45   30   26 1    
    46   45   26 1    
    47   28   27 1    
    48   46   27 1    
    49   47   27 1    
    50   29   28 1    
    51   48   28 1    
    52   49   28 1    
    53   30   29 1    
    54   50   29 1    
    55   51   29 1    
    56   52   30 1    
    57   53   30 1    
@<TRIPOS>SUBSTRUCTURE
     1 VS0602      1 GROUP   
@<TRIPOS>SET

