#    Name: 3ax8_EIM_1_INTS_M
#    Modification time : Mon Mar 24 18:24:58 2014

@<TRIPOS>MOLECULE
3ax8_EIM_1_INTS_M
  130     0     9     0     0
SMALL
NO_CHARGES


@<TRIPOS>ATOM
      1 CA         10.5595   -0.9380  -35.5660 C.3       3 GLC5        0.0000 
      2 CA         11.7330   -0.9720  -33.8910 C.3       9 GLL5        0.0000 
      3 CA          9.3860   -0.9040  -37.2410 C.3       6 GLP5        0.0000 
      4 CA         11.4620   -2.5405  -36.1345 C.3       3 GLC5        0.0000 
      5 CA         12.7490   -1.8830  -34.6410 C.3       9 GLL5        0.0000 
      6 CA         10.1750   -3.1980  -37.6280 C.3       6 GLP5        0.0000 
      7 CA         14.8285   -1.1575  -34.4210 C.3       3 GLC5        0.0000 
      8 CA         16.9080   -0.4320  -34.2010 C.3       6 GLP5        0.0000 
      9 CA         15.6220   -1.8935  -33.5500 C.3       3 GLC5        0.0000 
     10 CA         13.9570   -2.3490  -33.7920 C.3       9 GLL5        0.0000 
     11 CA         17.2870   -1.4380  -33.3080 C.3       6 GLP5        0.0000 
     12 CA         15.3470   -1.9920  -32.1660 C.3       3 GLC5        0.0000 
     13 CA         13.5130   -2.7970  -32.4150 C.3       9 GLL5        0.0000 
     14 CA         17.1810   -1.1870  -31.9170 C.3       6 GLP5        0.0000 
     15 CA         14.7175   -0.8370  -31.5905 C.3       3 GLC5        0.0000 
     16 CA         12.7130   -1.7040  -31.7710 C.3       9 GLL5        0.0000 
     17 CA         16.7220    0.0300  -31.4100 C.3       6 GLP5        0.0000 
     18 CA         12.9505    0.4270  -30.0565 C.3       3 GLC5        0.0000 
     19 CA         12.3410   -1.4660  -30.3330 C.3       9 GLL5        0.0000 
     20 CA         13.5600    2.3200  -29.7800 C.3       6 GLP5        0.0000 
     21 CA          9.4645   -1.5845  -28.6400 C.3       3 GLC5        0.0000 
     22 CA         10.8480   -1.2740  -30.1530 C.3       9 GLL5        0.0000 
     23 CA          8.0810   -1.8950  -27.1270 C.3       6 GLP5        0.0000 
     24 CA         12.1255    0.9060  -30.6435 C.3       3 GLC5        0.0000 
     25 CA         10.6910   -0.5080  -31.5070 C.3       9 GLL5        0.0000 
     26 CA         13.4230   -8.0235  -33.8245 C.3       3 GLC5        0.0000 
     27 CA         15.2530   -7.3450  -33.2020 C.3       9 GLL5        0.0000 
     28 CA         11.5930   -8.7020  -34.4470 C.3       6 GLP5        0.0000 
     29 CA         17.0770   -9.9030  -33.0495 C.3       3 GLC5        0.0000 
     30 CA         15.8660   -8.4610  -32.3350 C.3       9 GLL5        0.0000 
     31 CA         18.2880  -11.3450  -33.7640 C.3       6 GLP5        0.0000 
     32 CA         16.4635   -7.2215  -30.6505 C.3       3 GLC5        0.0000 
     33 CA         17.0610   -5.9820  -28.9660 C.3       6 GLP5        0.0000 
     34 CA         13.2085   -8.9020  -32.9335 C.3       3 GLC5        0.0000 
     35 CA         14.8240   -9.1020  -31.4200 C.3       9 GLL5        0.0000 
     36 CA         14.2855   -8.3480  -28.6385 C.3       3 GLC5        0.0000 
     37 CA         14.0870   -8.1040  -30.5410 C.3       9 GLL5        0.0000 
     38 CA         14.4840   -8.5920  -26.7360 C.3       6 GLP5        0.0000 
     39 CA         15.5740   -7.0430  -29.7535 C.3       3 GLC5        0.0000 
     40 CA         12.5600   -7.8380  -32.9040 C.3       3 GLC5        0.0000 
     41 CA         13.5270   -6.9740  -31.3610 C.3       9 GLL5        0.0000 
     42 CA         11.5305   -6.9840  -32.8505 C.3       3 GLC5        0.0000 
     43 CA         12.2800   -6.5430  -31.1860 C.3       9 GLL5        0.0000 
     44 CA         10.7810   -7.4250  -34.5150 C.3       6 GLP5        0.0000 
     45 CA         11.1215   -8.1010  -30.3375 C.3       3 GLC5        0.0000 
     46 CA          9.9630   -9.6590  -29.4890 C.3       6 GLP5        0.0000 
     47 CA         11.6725   -5.5835  -29.6415 C.3       3 GLC5        0.0000 
     48 CA         11.0650   -4.6240  -28.0970 C.3       6 GLP5        0.0000 
     49 CA         11.0670   -4.5500  -33.8460 C.3       3 GLC5        0.0000 
     50 CA         10.5340   -2.7950  -32.6230 C.3       9 GLL5        0.0000 
     51 CA         11.6000   -6.3050  -35.0690 C.3       6 GLP5        0.0000 
     52 CA          9.0090   -3.6100  -32.1230 C.3       3 GLC5        0.0000 
     53 CA          7.4840   -4.4250  -31.6230 C.3       6 GLP5        0.0000 
     54 N          13.0210   -9.9495  -29.0870 N.am      2 SEC2        0.0000 
     55 N          13.0370   -8.8270  -29.8960 N.am      8 SEL2        0.0000 
     56 N          13.0050  -11.0720  -28.2780 N.am      5 SEP2        0.0000 
     57 O          11.7915   -9.1615  -30.3425 O.2       1 ALC1        0.0000 
     58 O          13.0370   -8.8270  -29.8960 O.2       7 ALL1        0.0000 
     59 O          10.5460   -9.4960  -30.7890 O.2       4 ALP1        0.0000 
     60 N          17.9205   -9.0485  -31.1555 N.am      2 SEC2        0.0000 
     61 N          16.9700   -7.9670  -31.5420 N.am      8 SEL2        0.0000 
     62 N          18.8710  -10.1300  -30.7690 N.am      5 SEP2        0.0000 
     63 O          17.8665   -7.2080  -32.1030 O.2       1 ALC1        0.0000 
     64 O          16.9700   -7.9670  -31.5420 O.2       7 ALL1        0.0000 
     65 O          18.7630   -6.4490  -32.6640 O.2       4 ALP1        0.0000 
     66 CA          9.8895    2.6865  -32.9505 C.3       3 GLC5        0.0000 
     67 CA          9.2210    1.5870  -31.4620 C.3       9 GLL5        0.0000 
     68 CA         10.5580    3.7860  -34.4390 C.3       6 GLP5        0.0000 
     69 CA          7.6510    2.5460  -32.2935 C.3       3 GLC5        0.0000 
     70 CA          6.0810    3.5050  -33.1250 C.3       6 GLP5        0.0000 
     71 CA          8.9905    3.2195  -30.4535 C.3       3 GLC5        0.0000 
     72 CA          8.7600    4.8520  -29.4450 C.3       6 GLP5        0.0000 
     73 CA          7.6635    1.6870  -29.9105 C.3       3 GLC5        0.0000 
     74 CA          6.1060    1.7870  -28.3590 C.3       6 GLP5        0.0000 
     75 CA          6.4535    1.6825  -32.6580 C.3       3 GLC5        0.0000 
     76 CA          6.8260   -0.1400  -32.1910 C.3       9 GLL5        0.0000 
     77 CA          3.4835   -0.3585  -35.0625 C.3       3 GLC5        0.0000 
     78 CA          4.0300   -0.3360  -33.5050 C.3       9 GLL5        0.0000 
     79 CA          2.9370   -0.3810  -36.6200 C.3       6 GLP5        0.0000 
     80 CA          5.0555    1.5845  -33.3150 C.3       3 GLC5        0.0000 
     81 CA          2.8665    1.2585  -33.8125 C.3       3 GLC5        0.0000 
     82 CA          1.7030    2.8530  -34.1200 C.3       6 GLP5        0.0000 
     83 CA          2.1345   -1.2065  -34.0810 C.3       3 GLC5        0.0000 
     84 CA          0.2390   -2.0770  -34.6570 C.3       6 GLP5        0.0000 
     85 CA          1.7635   -1.7940  -33.0595 C.3       3 GLC5        0.0000 
     86 CA          3.2880   -1.5110  -31.4620 C.3       9 GLL5        0.0000 
     87 CA          2.0335   -2.8185  -31.2545 C.3       3 GLC5        0.0000 
     88 CA          0.7790   -4.1260  -31.0470 C.3       6 GLP5        0.0000 
     89 CA          2.7300   -2.1835  -29.5555 C.3       3 GLC5        0.0000 
     90 CA          2.1720   -2.8560  -27.6490 C.3       6 GLP5        0.0000 
     91 N           4.6220    1.8740  -31.7885 N.am      2 SEC2        0.0000 
     92 N           4.0370    0.7640  -31.3810 N.am      8 SEL2        0.0000 
     93 N           5.2070    2.9840  -32.1960 N.am      5 SEP2        0.0000 
     94 N           4.5985    0.8080  -30.0330 N.am      2 SEC2        0.0000 
     95 N           5.1600    0.8520  -28.6850 N.am      5 SEP2        0.0000 
     96 CA         14.3435   -2.2135  -27.5820 C.3       3 GLC5        0.0000 
     97 CA         14.5340   -1.6010  -29.5560 C.3       9 GLL5        0.0000 
     98 CA         14.1530   -2.8260  -25.6080 C.3       6 GLP5        0.0000 
     99 CA         15.3355   -3.2200  -29.4720 C.3       3 GLC5        0.0000 
    100 CA         16.1370   -4.8390  -29.3880 C.3       6 GLP5        0.0000 
    101 CA         15.6280   -0.7855  -30.4830 C.3       3 GLC5        0.0000 
    102 CA         14.7385    0.0680  -28.6485 C.3       3 GLC5        0.0000 
    103 CA         14.9430    1.7370  -27.7410 C.3       6 GLP5        0.0000 
    104 CA         12.3710    0.5222  -34.8375 C.3       3 GLC5        0.0000 
    105 CA         12.5010    2.4720  -35.4090 C.3       6 GLP5        0.0000 
    106 CA         14.3270   -2.1885  -36.0067 C.3       3 GLC5        0.0000 
    107 CA         15.3010   -2.2610  -37.7970 C.3       6 GLP5        0.0000 
    108 CA         14.8867   -4.1245  -30.7712 C.3       3 GLC5        0.0000 
    109 CA         11.3298   -2.9970  -29.1700 C.3       3 GLC5        0.0000 
    110 CA         16.0520   -3.9005  -32.2257 C.3       3 GLC5        0.0000 
    111 CA         14.5220   -5.0570  -32.6070 C.3       9 GLL5        0.0000 
    112 CA         17.9630   -3.2610  -32.2010 C.3       6 GLP5        0.0000 
    113 CA         12.9375   -5.8847  -33.6914 C.3       3 GLC5        0.0000 
    114 CA         14.4090   -6.3890  -32.3770 C.3       9 GLL5        0.0000 
    115 CA         17.6547   -7.5810  -33.0232 C.3       3 GLC5        0.0000 
    116 CA         19.7500   -7.2590  -33.2780 C.3       6 GLP5        0.0000 
    117 CA         16.4857   -7.9435  -34.4382 C.3       3 GLC5        0.0000 
    118 CA         17.4120   -7.9840  -36.1080 C.3       6 GLP5        0.0000 
    119 CA         16.3330   -9.8788  -30.5158 C.3       3 GLC5        0.0000 
    120 CA         17.3210  -10.9760  -29.1540 C.3       6 GLP5        0.0000 
    121 CA         14.6849   -9.5823  -33.7756 C.3       3 GLC5        0.0000 
    122 CA         14.1780  -10.6620  -35.4570 C.3       6 GLP5        0.0000 
    123 CA         15.0666   -5.5938  -30.6573 C.3       3 GLC5        0.0000 
    124 CA          7.0240   -2.5611  -31.6940 C.3       3 GLC5        0.0000 
    125 CA          8.0880   -0.6270  -31.4690 C.3       9 GLL5        0.0000 
    126 CA          6.3350    0.5449  -30.0620 C.3       3 GLC5        0.0000 
    127 CA          5.6710   -1.0110  -31.7000 C.3       9 GLL5        0.0000 
    128 CA          2.1898   -0.0780  -30.7890 C.3       3 GLC5        0.0000 
    129 CA          4.2750   -0.5010  -32.0220 C.3       9 GLL5        0.0000 
    130 CA          0.5980    0.8500  -29.8360 C.3       6 GLP5        0.0000 
@<TRIPOS>BOND
@<TRIPOS>SUBSTRUCTURE
     1 ALC1       57 GROUP        1 X    ALC  0     ROOT ALC X 1
     2 SEC2       54 GROUP        1 X    SEC  0     **** SEC X 2
     3 GLC5        1 GROUP        1 X    GLC  0     **** GLC X 6
     4 ALP1       59 GROUP        1 Y    ALP  0     ROOT ALP Y 8
     5 SEP2       56 GROUP        1 Y    SEP  0     **** SEP Y 9
     6 GLP5        3 GROUP        1 Y    GLP  0     **** GLP Y 13
     7 ALL1       58 GROUP        1 Z    ALL  0     ROOT ALL Z 15
     8 SEL2       55 GROUP        1 Z    SEL  0     **** SEL Z 16
     9 GLL5        2 GROUP        1 Z    GLL  0     **** GLL Z 20
@<TRIPOS>SET

