#    Name: 3ax8_EIM_1_ligand
#    Modification time : Mon Mar 24 18:24:58 2014

@<TRIPOS>MOLECULE
3ax8_EIM_1_ligand
   76    78     1     0     0
SMALL
NO_CHARGES


@<TRIPOS>ATOM
      1 C1         11.7330   -0.9720  -33.8910 C.3       1 EIM1        0.0000 
      2 C2         12.7490   -1.8830  -34.6410 C.3       1 EIM1        0.0000 
      3 C3         13.9570   -2.3490  -33.7920 C.3       1 EIM1        0.0000 
      4 C4         13.5130   -2.7970  -32.4150 C.2       1 EIM1        0.0000 
      5 C5         12.7130   -1.7040  -31.7710 C.3       1 EIM1        0.0000 
      6 C6         11.3700   -1.4850  -32.4990 C.3       1 EIM1        0.0000 
      7 C7         12.3410   -1.4660  -30.3330 C.3       1 EIM1        0.0000 
      8 C8         10.8480   -1.2740  -30.1530 C.3       1 EIM1        0.0000 
      9 C9         10.6910   -0.5080  -31.5070 C.3       1 EIM1        0.0000 
     10 C10        13.7600   -4.0230  -31.8940 C.2       1 EIM1        0.0000 
     11 C11        14.5220   -5.0570  -32.6070 C.2       1 EIM1        0.0000 
     12 C12        14.4090   -6.3890  -32.3770 C.2       1 EIM1        0.0000 
     13 C13        15.2530   -7.3450  -33.2020 C.3       1 EIM1        0.0000 
     14 C14        15.8660   -8.4610  -32.3350 C.3       1 EIM1        0.0000 
     15 C15        14.8240   -9.1020  -31.4200 C.3       1 EIM1        0.0000 
     16 C16        14.0870   -8.1040  -30.5410 C.3       1 EIM1        0.0000 
     17 C17        13.5270   -6.9740  -31.3610 C.2       1 EIM1        0.0000 
     18 C18        12.2800   -6.5430  -31.1860 C.2       1 EIM1        0.0000 
     19 C19         9.3370    0.1240  -31.9280 C.3       1 EIM1        0.0000 
     20 C20        10.5340   -2.7950  -32.6230 C.3       1 EIM1        0.0000 
     21 O21        13.0370   -8.8270  -29.8960 O.3       1 EIM1        0.0000 
     22 O22        16.9700   -7.9670  -31.5420 O.3       1 EIM1        0.0000 
     23 C23         9.2210    1.5870  -31.4620 C.3       1 EIM1        0.0000 
     24 C24         8.0880   -0.6270  -31.4690 C.3       1 EIM1        0.0000 
     25 C25         6.8260   -0.1400  -32.1910 C.3       1 EIM1        0.0000 
     26 C26         5.6710   -1.0110  -31.7000 C.3       1 EIM1        0.0000 
     27 C27         4.2750   -0.5010  -32.0220 C.3       1 EIM1        0.0000 
     28 C28         4.0300   -0.3360  -33.5050 C.3       1 EIM1        0.0000 
     29 C29         3.2880   -1.5110  -31.4620 C.3       1 EIM1        0.0000 
     30 O30         4.0370    0.7640  -31.3810 O.3       1 EIM1        0.0000 
     31 O31        13.2480   -1.0690  -29.3300 O.3       1 EIM1        0.0000 
     32 C33        14.5340   -1.6010  -29.5560 C.3       1 EIM1        0.0000 
     33 H          10.8243   -0.8951  -34.5007 H         1 EIM1        0.0000 
     34 H          12.1665    0.0323  -33.8089 H         1 EIM1        0.0000 
     35 H          13.1232   -1.3371  -35.5212 H         1 EIM1        0.0000 
     36 H          12.2132   -2.7702  -35.0131 H         1 EIM1        0.0000 
     37 H          14.6583   -1.5207  -33.7038 H         1 EIM1        0.0000 
     38 H          14.4467   -3.1725  -34.3094 H         1 EIM1        0.0000 
     39 H          13.2483   -0.6809  -32.0875 H         1 EIM1        0.0000 
     40 H          12.2928   -2.7757  -30.0238 H         1 EIM1        0.0000 
     41 H          10.6537   -0.6309  -29.3844 H         1 EIM1        0.0000 
     42 H          10.3558   -2.1659  -30.2183 H         1 EIM1        0.0000 
     43 H          11.4636    0.3402  -31.4198 H         1 EIM1        0.0000 
     44 H          13.4134   -4.2909  -30.9464 H         1 EIM1        0.0000 
     45 H          15.1894   -4.6940  -33.3376 H         1 EIM1        0.0000 
     46 H          16.0619   -6.7937  -33.6873 H         1 EIM1        0.0000 
     47 H          14.6347   -7.8032  -33.9776 H         1 EIM1        0.0000 
     48 H          16.2241   -9.2436  -33.0169 H         1 EIM1        0.0000 
     49 H          15.3230   -9.8473  -30.7799 H         1 EIM1        0.0000 
     50 H          14.0930   -9.6460  -32.0395 H         1 EIM1        0.0000 
     51 H          14.7841   -7.7167  -29.8206 H         1 EIM1        0.0000 
     52 H           9.3139    0.1550  -33.0377 H         1 EIM1        0.0000 
     53 H           7.9589   -0.4867  -30.3924 H         1 EIM1        0.0000 
     54 H           8.2189   -1.6951  -31.6621 H         1 EIM1        0.0000 
     55 H           6.9486   -0.2649  -33.2483 H         1 EIM1        0.0000 
     56 H           6.6405    0.8840  -31.9349 H         1 EIM1        0.0000 
     57 H           5.7633   -1.1341  -30.5994 H         1 EIM1        0.0000 
     58 H           5.7888   -2.0296  -32.1283 H         1 EIM1        0.0000 
     59 H          11.0402   -3.5151  -33.0975 H         1 EIM1        0.0000 
     60 H          10.2778   -3.1583  -31.7272 H         1 EIM1        0.0000 
     61 H           9.6864   -2.6478  -33.1329 H         1 EIM1        0.0000 
     62 H           9.2855    1.6661  -30.4672 H         1 EIM1        0.0000 
     63 H           9.9446    2.1585  -31.8490 H         1 EIM1        0.0000 
     64 H           8.3490    1.9949  -31.7326 H         1 EIM1        0.0000 
     65 H           4.6701    0.3123  -33.9173 H         1 EIM1        0.0000 
     66 H           4.1313   -1.2009  -33.9967 H         1 EIM1        0.0000 
     67 H           3.1080    0.0022  -33.6937 H         1 EIM1        0.0000 
     68 H           3.4156   -2.4175  -31.8645 H         1 EIM1        0.0000 
     69 H           3.3834   -1.6138  -30.4719 H         1 EIM1        0.0000 
     70 H           2.3411   -1.2424  -31.6389 H         1 EIM1        0.0000 
     71 H          14.9107   -1.3021  -30.4328 H         1 EIM1        0.0000 
     72 H          15.1817   -1.3204  -28.8477 H         1 EIM1        0.0000 
     73 H          14.5258   -2.6009  -29.5661 H         1 EIM1        0.0000 
     74 H          12.3017   -8.8735  -30.5721 H         1 EIM1        0.0000 
     75 H          17.4373   -7.3080  -32.1314 H         1 EIM1        0.0000 
     76 H           3.0743    0.9645  -31.5624 H         1 EIM1        0.0000 
@<TRIPOS>BOND
     1    2    1 1    
     2    6    1 1    
     3   33    1 1    
     4   34    1 1    
     5    3    2 1    
     6   35    2 1    
     7   36    2 1    
     8    4    3 1    
     9   37    3 1    
    10   38    3 1    
    11    5    4 1    
    12   10    4 2    
    13    6    5 1    
    14    7    5 1    
    15   39    5 1    
    16    9    6 1    
    17   20    6 1    
    18    8    7 1    
    19   31    7 1    
    20   40    7 1    
    21    9    8 1    
    22   41    8 1    
    23   42    8 1    
    24   19    9 1    
    25   43    9 1    
    26   11   10 1    
    27   44   10 1    
    28   12   11 2    
    29   45   11 1    
    30   13   12 1    
    31   17   12 1    
    32   14   13 1    
    33   46   13 1    
    34   47   13 1    
    35   15   14 1    
    36   22   14 1    
    37   48   14 1    
    38   16   15 1    
    39   49   15 1    
    40   50   15 1    
    41   17   16 1    
    42   21   16 1    
    43   51   16 1    
    44   18   17 2    
    45   23   19 1    
    46   24   19 1    
    47   52   19 1    
    48   59   20 1    
    49   60   20 1    
    50   61   20 1    
    51   74   21 1    
    52   75   22 1    
    53   62   23 1    
    54   63   23 1    
    55   64   23 1    
    56   25   24 1    
    57   53   24 1    
    58   54   24 1    
    59   26   25 1    
    60   55   25 1    
    61   56   25 1    
    62   27   26 1    
    63   57   26 1    
    64   58   26 1    
    65   28   27 1    
    66   29   27 1    
    67   30   27 1    
    68   65   28 1    
    69   66   28 1    
    70   67   28 1    
    71   68   29 1    
    72   69   29 1    
    73   70   29 1    
    74   76   30 1    
    75   32   31 1    
    76   71   32 1    
    77   72   32 1    
    78   73   32 1    
@<TRIPOS>SUBSTRUCTURE
     1 EIM1        1 GROUP   
@<TRIPOS>SET

