#    Name: 1pjl_NAD_13_INTS_M
#    Modification time : Mon Mar 24 21:43:22 2014

@<TRIPOS>MOLECULE
1pjl_NAD_13_INTS_M
   70     0    12     0     0
SMALL
NO_CHARGES


@<TRIPOS>ATOM
      1 NZ        -50.3955   32.6930   10.3440 N.4       3 LYC4        0.0000 
      2 NZ        -51.8820   31.6750   11.1230 N.4      11 LYL4        0.0000 
      3 NZ        -48.9090   33.7110    9.5650 N.4       7 LYP4        0.0000 
      4 CA        -58.4365   30.5160   11.6790 C.3       4 GLC5        0.0000 
      5 CA        -56.5340   30.2610   10.8110 C.3      12 GLL5        0.0000 
      6 CA        -60.3390   30.7710   12.5470 C.3       8 GLP5        0.0000 
      7 N         -57.0830   29.3650   13.1580 N.am      2 SEC2        0.0000 
      8 N         -55.6810   28.6800   12.3830 N.am     10 SEL2        0.0000 
      9 N         -58.4850   30.0500   13.9330 N.am      6 SEP2        0.0000 
     10 CA        -57.8625   26.0330    9.8305 C.3       4 GLC5        0.0000 
     11 CA        -57.0080   27.9100   10.5020 C.3      12 GLL5        0.0000 
     12 CA        -58.7170   24.1560    9.1590 C.3       8 GLP5        0.0000 
     13 CA        -59.2795   29.7505   11.3295 C.3       4 GLC5        0.0000 
     14 CA        -58.2200   28.7300   10.1120 C.3      12 GLL5        0.0000 
     15 CA        -59.3775   30.1825    9.3680 C.3       4 GLC5        0.0000 
     16 CA        -60.5350   31.6350    8.6240 C.3       8 GLP5        0.0000 
     17 CA        -62.9075   28.7110    6.3125 C.3       4 GLC5        0.0000 
     18 CA        -61.3000   27.4430    6.5740 C.3      12 GLL5        0.0000 
     19 CA        -64.5150   29.9790    6.0510 C.3       8 GLP5        0.0000 
     20 CA        -63.8800   29.0005    9.3790 C.3       4 GLC5        0.0000 
     21 CA        -62.4220   27.7830    8.6550 C.3      12 GLL5        0.0000 
     22 CA        -65.3380   30.2180   10.1030 C.3       8 GLP5        0.0000 
     23 CA        -61.8020   26.2115    9.2155 C.3       4 GLC5        0.0000 
     24 CA        -61.1820   24.6400    9.7760 C.3       8 GLP5        0.0000 
     25 CA        -61.4785   29.7090    8.6395 C.3       4 GLC5        0.0000 
     26 CA        -63.4685   28.8810    7.3530 C.3       4 GLC5        0.0000 
     27 N         -51.6310   33.2840    9.4115 N.am      2 SEC2        0.0000 
     28 N         -53.1170   33.2190    9.5710 N.am     10 SEL2        0.0000 
     29 N         -50.1450   33.3490    9.2520 N.am      6 SEP2        0.0000 
     30 NZ        -51.1270   34.3215    9.9055 N.4       3 LYC4        0.0000 
     31 NZ        -52.1090   35.2940   10.5590 N.4      11 LYL4        0.0000 
     32 N         -51.1270   34.3215    9.9055 N.am      2 SEC2        0.0000 
     33 N         -52.1090   35.2940   10.5590 N.am     10 SEL2        0.0000 
     34 N         -53.9030   34.9470   12.8815 N.am      2 SEC2        0.0000 
     35 N         -54.3780   34.4170   11.4020 N.am     10 SEL2        0.0000 
     36 N         -53.4280   35.4770   14.3610 N.am      6 SEP2        0.0000 
     37 CA        -56.7250   35.1385   10.2895 C.3       4 GLC5        0.0000 
     38 CA        -55.4010   34.9950    8.5110 C.3      12 GLL5        0.0000 
     39 CA        -58.0490   35.2820   12.0680 C.3       8 GLP5        0.0000 
     40 N         -57.2180   37.8300    4.9955 N.am      2 SEC2        0.0000 
     41 N         -56.3260   36.5570    5.5740 N.am     10 SEL2        0.0000 
     42 N         -58.1100   39.1030    4.4170 N.am      6 SEP2        0.0000 
     43 CA        -58.1025   40.9380    9.5770 C.3       4 GLC5        0.0000 
     44 CA        -56.1910   40.8270    9.1070 C.3      12 GLL5        0.0000 
     45 CA        -60.0140   41.0490   10.0470 C.3       8 GLP5        0.0000 
     46 O         -56.3880   45.4310   10.5760 O.2       1 ALC1        0.0000 
     47 O         -55.4930   44.2290   10.5230 O.2       9 ALL1        0.0000 
     48 O         -57.2830   46.6330   10.6290 O.2       5 ALP1        0.0000 
     49 CA        -57.6562   31.5945    9.4443 C.3       4 GLC5        0.0000 
     50 CA        -59.2660   32.4960    8.4760 C.3       8 GLP5        0.0000 
     51 CA        -55.1419   30.3392   12.2329 C.3       4 GLC5        0.0000 
     52 CA        -55.5590   31.1250   10.0140 C.3      12 GLL5        0.0000 
     53 CA        -54.2770   30.8830   13.7570 C.3       8 GLP5        0.0000 
     54 CA        -60.3212   29.7822    8.2510 C.3       4 GLC5        0.0000 
     55 CA        -60.1420   27.7690    7.2310 C.3      12 GLL5        0.0000 
     56 CA        -61.2335   28.9535    5.7443 C.3       4 GLC5        0.0000 
     57 CA        -61.7460   30.3010    4.5860 C.3       8 GLP5        0.0000 
     58 CA        -60.2425   26.2395    8.2024 C.3       4 GLC5        0.0000 
     59 CA        -60.0880   24.6310    8.6910 C.3       8 GLP5        0.0000 
     60 CA        -57.1843   35.1375    6.1837 C.3       4 GLC5        0.0000 
     61 CA        -56.2580   36.1330    7.9350 C.3      12 GLL5        0.0000 
     62 CA        -58.4540   33.8290    5.0200 C.3       8 GLP5        0.0000 
     63 CA        -54.2855   41.0250   12.5545 C.3       4 GLC5        0.0000 
     64 CA        -53.9390   40.2240   10.7340 C.3      12 GLL5        0.0000 
     65 CA        -54.3740   41.1670   14.4020 C.3       8 GLP5        0.0000 
     66 CA        -54.5433   38.4057   11.7867 C.3       4 GLC5        0.0000 
     67 CA        -54.8450   37.0980   13.2180 C.3       8 GLP5        0.0000 
     68 CA        -57.7203   37.9381    6.8978 C.3       4 GLC5        0.0000 
     69 CA        -56.2920   38.4730    8.2680 C.3      12 GLL5        0.0000 
     70 CA        -59.5520   38.4780    6.2840 C.3       8 GLP5        0.0000 
@<TRIPOS>BOND
@<TRIPOS>SUBSTRUCTURE
     1 ALC1       46 GROUP        1 X    ALC  0     ROOT ALC X 1
     2 SEC2        7 GROUP        1 X    SEC  0     **** SEC X 2
     3 LYC4        1 GROUP        1 X    LYC  0     **** LYC X 4
     4 GLC5        4 GROUP        1 X    GLC  0     **** GLC X 6
     5 ALP1       48 GROUP        1 Y    ALP  0     ROOT ALP Y 8
     6 SEP2        9 GROUP        1 Y    SEP  0     **** SEP Y 9
     7 LYP4        3 GROUP        1 Y    LYP  0     **** LYP Y 11
     8 GLP5        6 GROUP        1 Y    GLP  0     **** GLP Y 13
     9 ALL1       47 GROUP        1 Z    ALL  0     ROOT ALL Z 15
    10 SEL2        8 GROUP        1 Z    SEL  0     **** SEL Z 16
    11 LYL4        2 GROUP        1 Z    LYL  0     **** LYL Z 18
    12 GLL5        5 GROUP        1 Z    GLL  0     **** GLL Z 20
@<TRIPOS>SET

