#    Name: 1pjl_NAD_13_ligand
#    Modification time : Mon Mar 24 21:43:22 2014

@<TRIPOS>MOLECULE
1pjl_NAD_13_ligand
   70    74     1     0     0
SMALL
NO_CHARGES


@<TRIPOS>ATOM
      1 PA        -52.9230   31.6910   10.0740 P.3       1 NAD6601     0.0000 
      2 O1A       -52.7500   30.8100    8.8740 O.co2     1 NAD6601     0.0000 
      3 O2A       -51.8820   31.6750   11.1230 O.co2     1 NAD6601     0.0000 
      4 O5B       -54.3610   31.3630   10.7950 O.3       1 NAD6601     0.0000 
      5 C5B       -55.5590   31.1250   10.0140 C.3       1 NAD6601     0.0000 
      6 C4B       -56.5340   30.2610   10.8110 C.3       1 NAD6601     0.0000 
      7 O4B       -57.8010   30.1230   10.0850 O.3       1 NAD6601     0.0000 
      8 C3B       -55.9670   28.8980   11.0050 C.3       1 NAD6601     0.0000 
      9 O3B       -55.6810   28.6800   12.3830 O.3       1 NAD6601     0.0000 
     10 C2B       -57.0080   27.9100   10.5020 C.3       1 NAD6601     0.0000 
     11 O2B       -57.3380   26.9530   11.5410 O.3       1 NAD6601     0.0000 
     12 C1B       -58.2200   28.7300   10.1120 C.3       1 NAD6601     0.0000 
     13 N9A       -58.7880   28.3230    8.7720 N.pl3     1 NAD6601     0.0000 
     14 C8A       -58.1050   28.1380    7.5810 C.2       1 NAD6601     0.0000 
     15 N7A       -58.9940   27.7810    6.6220 N.2       1 NAD6601     0.0000 
     16 C5A       -60.1420   27.7690    7.2310 C.ar      1 NAD6601     0.0000 
     17 C6A       -61.3000   27.4430    6.5740 C.ar      1 NAD6601     0.0000 
     18 N6A       -61.2980   27.1340    5.2780 N.pl3     1 NAD6601     0.0000 
     19 N1A       -62.4590   27.4520    7.3170 N.ar      1 NAD6601     0.0000 
     20 C2A       -62.4220   27.7830    8.6550 C.ar      1 NAD6601     0.0000 
     21 N3A       -61.2240   28.0970    9.2610 N.ar      1 NAD6601     0.0000 
     22 C4A       -60.0730   28.0900    8.5250 C.ar      1 NAD6601     0.0000 
     23 O3        -53.1170   33.2190    9.5710 O.3       1 NAD6601     0.0000 
     24 PN        -53.4080   34.6420   10.2860 P.3       1 NAD6601     0.0000 
     25 O1N       -52.1090   35.2940   10.5590 O.co2     1 NAD6601     0.0000 
     26 O2N       -54.3780   34.4170   11.4020 O.co2     1 NAD6601     0.0000 
     27 O5D       -54.1740   35.5130    9.1270 O.3       1 NAD6601     0.0000 
     28 C5D       -55.4010   34.9950    8.5110 C.3       1 NAD6601     0.0000 
     29 C4D       -56.2580   36.1330    7.9350 C.3       1 NAD6601     0.0000 
     30 O4D       -56.4620   37.1980    8.9420 O.3       1 NAD6601     0.0000 
     31 C3D       -55.5710   36.7590    6.7600 C.3       1 NAD6601     0.0000 
     32 O3D       -56.3260   36.5570    5.5740 O.3       1 NAD6601     0.0000 
     33 C2D       -55.4330   38.2280    7.0830 C.3       1 NAD6601     0.0000 
     34 O2D       -55.8270   39.0390    6.0030 O.3       1 NAD6601     0.0000 
     35 C1D       -56.2920   38.4730    8.2680 C.3       1 NAD6601     0.0000 
     36 N1N       -55.6760   39.5040    9.1490 N.pl3     1 NAD6601     0.0000 
     37 C2N       -56.1910   40.8270    9.1070 C.ar      1 NAD6601     0.0000 
     38 C3N       -55.5870   41.8520    9.8630 C.ar      1 NAD6601     0.0000 
     39 C7N       -56.1310   43.3160    9.7690 C.2       1 NAD6601     0.0000 
     40 O7N       -57.0850   43.5890    9.0370 O.2       1 NAD6601     0.0000 
     41 N7N       -55.4930   44.2290   10.5230 N.am      1 NAD6601     0.0000 
     42 C4N       -54.4550   41.5420   10.6800 C.ar      1 NAD6601     0.0000 
     43 C5N       -53.9390   40.2240   10.7340 C.ar      1 NAD6601     0.0000 
     44 C6N       -54.5440   39.2030    9.9770 C.ar      1 NAD6601     0.0000 
     45 H         -55.3266   30.6034    9.0811 H         1 NAD6601     0.0000 
     46 H         -56.0621   32.0636    9.7643 H         1 NAD6601     0.0000 
     47 H         -56.7014   30.7176   11.7660 H         1 NAD6601     0.0000 
     48 H         -55.0905   28.7980   10.3904 H         1 NAD6601     0.0000 
     49 H         -56.6216   27.4323    9.6266 H         1 NAD6601     0.0000 
     50 H         -58.9775   28.5962   10.8749 H         1 NAD6601     0.0000 
     51 H         -57.1586   28.2486    7.4708 H         1 NAD6601     0.0000 
     52 H         -60.4016   27.0941    4.8366 H         1 NAD6601     0.0000 
     53 H         -62.1931   26.9698    4.8634 H         1 NAD6601     0.0000 
     54 H         -63.2968   27.7958    9.2065 H         1 NAD6601     0.0000 
     55 H         -56.0070   34.4525    9.2465 H         1 NAD6601     0.0000 
     56 H         -55.1644   34.3018    7.6950 H         1 NAD6601     0.0000 
     57 H         -57.2019   35.7368    7.6237 H         1 NAD6601     0.0000 
     58 H         -54.5804   36.3397    6.6877 H         1 NAD6601     0.0000 
     59 H         -54.4035   38.4029    7.3718 H         1 NAD6601     0.0000 
     60 H         -57.2559   38.8308    7.9167 H         1 NAD6601     0.0000 
     61 H         -57.0055   41.0325    8.5230 H         1 NAD6601     0.0000 
     62 H         -54.7454   43.8854   11.0914 H         1 NAD6601     0.0000 
     63 H         -55.8231   45.1699   10.4479 H         1 NAD6601     0.0000 
     64 H         -54.0168   42.2852   11.2298 H         1 NAD6601     0.0000 
     65 H         -53.1305   40.0191   11.3214 H         1 NAD6601     0.0000 
     66 H         -54.1884   38.2508   10.0089 H         1 NAD6601     0.0000 
     67 H         -56.3041   27.9503   12.6642 H         1 NAD6601     0.0000 
     68 H         -58.3032   27.1158   11.7456 H         1 NAD6601     0.0000 
     69 H         -55.6477   36.3616    4.8656 H         1 NAD6601     0.0000 
     70 H         -56.4092   38.4536    5.4388 H         1 NAD6601     0.0000 
@<TRIPOS>BOND
     1    2    1 ar   
     2    3    1 ar   
     3    4    1 1    
     4   23    1 1    
     5    5    4 1    
     6    6    5 1    
     7   45    5 1    
     8   46    5 1    
     9    7    6 1    
    10    8    6 1    
    11   47    6 1    
    12   12    7 1    
    13    9    8 1    
    14   10    8 1    
    15   48    8 1    
    16   67    9 1    
    17   11   10 1    
    18   12   10 1    
    19   49   10 1    
    20   68   11 1    
    21   13   12 1    
    22   50   12 1    
    23   14   13 1    
    24   22   13 1    
    25   15   14 2    
    26   51   14 1    
    27   16   15 1    
    28   17   16 ar   
    29   22   16 ar   
    30   18   17 1    
    31   19   17 ar   
    32   52   18 1    
    33   53   18 1    
    34   20   19 ar   
    35   21   20 ar   
    36   54   20 1    
    37   22   21 ar   
    38   24   23 1    
    39   25   24 ar   
    40   26   24 ar   
    41   27   24 1    
    42   28   27 1    
    43   29   28 1    
    44   55   28 1    
    45   56   28 1    
    46   30   29 1    
    47   31   29 1    
    48   57   29 1    
    49   35   30 1    
    50   32   31 1    
    51   33   31 1    
    52   58   31 1    
    53   69   32 1    
    54   34   33 1    
    55   35   33 1    
    56   59   33 1    
    57   70   34 1    
    58   36   35 1    
    59   60   35 1    
    60   37   36 ar   
    61   44   36 ar   
    62   38   37 ar   
    63   61   37 1    
    64   39   38 1    
    65   42   38 ar   
    66   40   39 2    
    67   41   39 am   
    68   62   41 1    
    69   63   41 1    
    70   43   42 ar   
    71   64   42 1    
    72   44   43 ar   
    73   65   43 1    
    74   66   44 1    
@<TRIPOS>SUBSTRUCTURE
     1 NAD6601     1 GROUP   
@<TRIPOS>SET

