#    Name: 3gdv_TYR_GLN_PHE_3_INTS_M
#    Modification time : Tue Mar 25 07:37:11 2014

@<TRIPOS>MOLECULE
3gdv_TYR_GLN_PHE_3_INTS_M
   59     0     9     0     0
SMALL
NO_CHARGES


@<TRIPOS>ATOM
      1 O         -13.1970   76.6645    4.1695 O.2       1 ALC1        0.0000 
      2 O         -13.7300   75.2670    3.2930 O.2       7 ALL1        0.0000 
      3 O         -12.6640   78.0620    5.0460 O.2       4 ALP1        0.0000 
      4 N         -15.4640   76.9535    5.4940 N.am      2 SEC2        0.0000 
      5 N         -15.4880   75.4580    5.6040 N.am      8 SEL2        0.0000 
      6 N         -15.4400   78.4490    5.3840 N.am      5 SEP2        0.0000 
      7 CA        -12.8065   73.3770    6.9000 C.3       3 GLC5        0.0000 
      8 CA        -12.5960   74.6400    5.3750 C.3       9 GLL5        0.0000 
      9 CA        -13.0170   72.1140    8.4250 C.3       6 GLP5        0.0000 
     10 CA        -11.7155   72.7560    6.9445 C.3       3 GLC5        0.0000 
     11 CA        -10.4140   73.3980    5.4640 C.3       9 GLL5        0.0000 
     12 N         -15.5805   70.4280    8.2115 N.am      2 SEC2        0.0000 
     13 N         -16.0990   71.6380    7.6330 N.am      8 SEL2        0.0000 
     14 N         -15.0620   69.2180    8.7900 N.am      5 SEP2        0.0000 
     15 O         -17.5970   74.8410    7.8755 O.2       1 ALC1        0.0000 
     16 O         -17.1790   73.4450    8.4310 O.2       7 ALL1        0.0000 
     17 O         -18.0150   76.2370    7.3200 O.2       4 ALP1        0.0000 
     18 CA        -19.1025   72.2625   10.3520 C.3       3 GLC5        0.0000 
     19 CA        -17.0660   73.0130    9.8200 C.3       9 GLL5        0.0000 
     20 CA        -21.1390   71.5120   10.8840 C.3       6 GLP5        0.0000 
     21 N         -19.8330   74.2650   11.7650 N.am      2 SEC2        0.0000 
     22 N         -19.0960   74.2410   10.1990 N.am      8 SEL2        0.0000 
     23 N         -20.5700   74.2890   13.3310 N.am      5 SEP2        0.0000 
     24 N         -20.3550   74.7820   10.6110 N.am      2 SEC2        0.0000 
     25 N         -21.6140   75.3230   11.0230 N.am      5 SEP2        0.0000 
     26 N         -19.7765   75.4545    9.4480 N.am      2 SEC2        0.0000 
     27 N         -20.4570   76.6680    8.6970 N.am      5 SEP2        0.0000 
     28 CA        -13.5840   73.9715   10.6180 C.3       3 GLC5        0.0000 
     29 CA        -15.3320   74.8280   10.2880 C.3       9 GLL5        0.0000 
     30 CA        -11.8360   73.1150   10.9480 C.3       6 GLP5        0.0000 
     31 CA        -13.9940   73.7415    8.7455 C.3       3 GLC5        0.0000 
     32 CA        -14.9710   75.3690    9.0660 C.3       9 GLL5        0.0000 
     33 CA        -13.6340   74.5785   11.9115 C.3       3 GLC5        0.0000 
     34 CA        -15.3350   75.6490   11.4030 C.3       9 GLL5        0.0000 
     35 CA        -11.9330   73.5080   12.4200 C.3       6 GLP5        0.0000 
     36 CA        -14.5625   78.1135    7.2630 C.3       3 GLC5        0.0000 
     37 CA        -14.6360   76.7010    8.9570 C.3       9 GLL5        0.0000 
     38 CA        -14.4890   79.5260    5.5690 C.3       6 GLP5        0.0000 
     39 CA        -13.4910   77.3590   12.6790 C.3       3 GLC5        0.0000 
     40 CA        -14.9970   76.9830   11.2990 C.3       9 GLL5        0.0000 
     41 CA        -11.9850   77.7350   14.0590 C.3       6 GLP5        0.0000 
     42 CA        -12.8385   78.7330   10.5460 C.3       3 GLC5        0.0000 
     43 CA        -14.6520   77.5110   10.0760 C.3       9 GLL5        0.0000 
     44 CA        -11.0250   79.9550   11.0160 C.3       6 GLP5        0.0000 
     45 N         -19.4040   73.7965   12.6100 N.am      2 SEC2        0.0000 
     46 N         -18.2380   73.3040   11.8890 N.am      8 SEL2        0.0000 
     47 CA         -9.4755   71.4158    4.4361 C.3       3 GLC5        0.0000 
     48 CA         -9.6700   69.3980    4.3920 C.3       6 GLP5        0.0000 
     49 CA         -8.3845   72.7458    5.9211 C.3       3 GLC5        0.0000 
     50 CA         -9.1780   73.0700    4.9450 C.3       9 GLL5        0.0000 
     51 CA         -7.4880   72.0580    7.3620 C.3       6 GLP5        0.0000 
     52 CA        -14.6982   72.6530    9.2692 C.3       3 GLC5        0.0000 
     53 CA        -15.6930   73.3710   10.4070 C.3       9 GLL5        0.0000 
     54 CA        -15.2460   75.8765   13.3880 C.3       3 GLC5        0.0000 
     55 CA        -15.3260   75.4370   15.4250 C.3       6 GLP5        0.0000 
     56 CA        -16.2610   78.2535    8.9477 C.3       3 GLC5        0.0000 
     57 CA        -17.8780   79.4010    8.3790 C.3       6 GLP5        0.0000 
     58 CA        -16.3280   77.2527   11.8258 C.3       3 GLC5        0.0000 
     59 CA        -17.7470   77.5920   12.9380 C.3       6 GLP5        0.0000 
@<TRIPOS>BOND
@<TRIPOS>SUBSTRUCTURE
     1 ALC1        1 GROUP        1 X    ALC  0     ROOT ALC X 1
     2 SEC2        4 GROUP        1 X    SEC  0     **** SEC X 2
     3 GLC5        7 GROUP        1 X    GLC  0     **** GLC X 6
     4 ALP1        3 GROUP        1 Y    ALP  0     ROOT ALP Y 8
     5 SEP2        6 GROUP        1 Y    SEP  0     **** SEP Y 9
     6 GLP5        9 GROUP        1 Y    GLP  0     **** GLP Y 13
     7 ALL1        2 GROUP        1 Z    ALL  0     ROOT ALL Z 15
     8 SEL2        5 GROUP        1 Z    SEL  0     **** SEL Z 16
     9 GLL5        8 GROUP        1 Z    GLL  0     **** GLL Z 20
@<TRIPOS>SET

