#    Name: 3gdv_TYR_GLN_PHE_3_ligand
#    Modification time : Tue Mar 25 07:37:11 2014

@<TRIPOS>MOLECULE
3gdv_TYR_GLN_PHE_3_ligand
   62    63     3     0     0
SMALL
NO_CHARGES


@<TRIPOS>ATOM
      1 N         -13.7300   75.2670    3.2930 N.4       1 TYR408      0.0000
      2 CA        -13.7440   74.3370    4.4150 C.3       1 TYR408      0.0000
      3 C         -15.0660   74.3950    5.1590 C.2       1 TYR408      0.0000
      4 O         -15.4880   75.4580    5.6040 O.2       1 TYR408      0.0000
      5 CB        -12.5960   74.6400    5.3750 C.3       1 TYR408      0.0000
      6 CG        -11.2470   74.2900    4.8120 C.ar      1 TYR408      0.0000
      7 CD1       -10.4140   73.3980    5.4640 C.ar      1 TYR408      0.0000
      8 CD2       -10.8130   74.8370    3.6140 C.ar      1 TYR408      0.0000
      9 CE1        -9.1780   73.0700    4.9450 C.ar      1 TYR408      0.0000
     10 CE2        -9.5810   74.5170    3.0870 C.ar      1 TYR408      0.0000
     11 CZ         -8.7660   73.6330    3.7560 C.ar      1 TYR408      0.0000
     12 OH         -7.5360   73.3120    3.2330 O.3       1 TYR408      0.0000
     13 HA        -13.6074   73.3164    4.0543 H         1 TYR408      0.0000
     14 HB2       -12.7621   74.0814    6.3098 H         1 TYR408      0.0000
     15 HB3       -12.6232   75.7115    5.6292 H         1 TYR408      0.0000
     16 HD1       -10.7250   72.9698    6.3572 H         1 TYR408      0.0000
     17 HD2       -11.4320   75.5009    3.1068 H         1 TYR408      0.0000
     18 HE1        -8.5671   72.4080    5.4439 H         1 TYR408      0.0000
     19 HE2        -9.2730   74.9368    2.1987 H         1 TYR408      0.0000
     20 HNCA      -12.8640   75.2341    2.7941 H         1 TYR408      0.0000
     21 H         -14.4553   75.0657    2.6347 H         1 TYR408      0.0000
     22 H         -13.8600   76.2122    3.5924 H         1 TYR408      0.0000
     23 HH         -6.9023   73.9457    3.6766 H         1 TYR408      0.0000
     24 N         -15.7200   73.2480    5.2910 N.am      2 GLN409      0.0000
     25 CA        -16.9730   73.1840    6.0280 C.3       2 GLN409      0.0000
     26 C         -16.7170   72.6860    7.4420 C.2       2 GLN409      0.0000
     27 O         -16.0990   71.6380    7.6330 O.2       2 GLN409      0.0000
     28 CB        -17.9630   72.2640    5.3170 C.3       2 GLN409      0.0000
     29 CG        -18.1940   72.6200    3.8590 C.3       2 GLN409      0.0000
     30 CD        -18.8380   73.9850    3.6830 C.2       2 GLN409      0.0000
     31 OE1       -18.5520   74.6940    2.7170 O.2       2 GLN409      0.0000
     32 NE2       -19.7110   74.3600    4.6180 N.am      2 GLN409      0.0000
     33 HNCA      -15.3813   72.3571    4.8857 H         2 GLN409      0.0000
     34 HA        -17.4196   74.1700    6.0943 H         2 GLN409      0.0000
     35 HB2       -18.9260   72.2955    5.8538 H         2 GLN409      0.0000
     36 HB3       -17.5938   71.2267    5.3818 H         2 GLN409      0.0000
     37 HG2       -18.8372   71.8569    3.3992 H         2 GLN409      0.0000
     38 HG3       -17.2324   72.6048    3.3276 H         2 GLN409      0.0000
     39 HE21      -19.8313   73.7304    5.3856 H         2 GLN409      0.0000
     40 HE22      -20.1671   75.2372    4.4677 H         2 GLN409      0.0000
     41 N         -17.1790   73.4450    8.4310 N.am      3 PHE410      0.0000
     42 CA        -17.0660   73.0130    9.8200 C.3       3 PHE410      0.0000
     43 C         -18.1970   73.5550   10.6860 C.2       3 PHE410      0.0000
     44 O         -19.0960   74.2410   10.1990 O.2       3 PHE410      0.0000
     45 CB        -15.6930   73.3710   10.4070 C.3       3 PHE410      0.0000
     46 CG        -15.3320   74.8280   10.2880 C.ar      3 PHE410      0.0000
     47 CD1       -14.9710   75.3690    9.0660 C.ar      3 PHE410      0.0000
     48 CD2       -15.3350   75.6490   11.4030 C.ar      3 PHE410      0.0000
     49 CE1       -14.6360   76.7010    8.9570 C.ar      3 PHE410      0.0000
     50 CE2       -14.9970   76.9830   11.2990 C.ar      3 PHE410      0.0000
     51 CZ        -14.6520   77.5110   10.0760 C.ar      3 PHE410      0.0000
     52 OXT       -18.2380   73.3040   11.8890 O.3       3 PHE410      0.0000
     53 HNCA      -17.6327   74.3610    8.2729 H         3 PHE410      0.0000
     54 HA        -17.1388   71.9036    9.8553 H         3 PHE410      0.0000
     55 HB2       -14.9268   72.7580    9.8989 H         3 PHE410      0.0000
     56 HB3       -15.6811   73.0733   11.4711 H         3 PHE410      0.0000
     57 HD1       -14.9534   74.7629    8.2253 H         3 PHE410      0.0000
     58 HD2       -15.5945   75.2550   12.3260 H         3 PHE410      0.0000
     59 HE1       -14.3729   77.0951    8.0403 H         3 PHE410      0.0000
     60 HE2       -15.0035   77.5827   12.1390 H         3 PHE410      0.0000
     61 HZ        -14.4055   78.5088    9.9924 H         3 PHE410      0.0000
     62 H         -17.3164   72.9919   12.1197 H         3 PHE410      0.0000
@<TRIPOS>BOND
     1    2    1 1
     2   20    1 1
     3   21    1 1
     4   22    1 1
     5    3    2 1
     6    5    2 1
     7   13    2 1
     8    4    3 2
     9    6    5 1
    10   14    5 1
    11   15    5 1
    12    7    6 ar
    13    8    6 ar
    14    9    7 ar
    15   16    7 1
    16   10    8 ar
    17   17    8 1
    18   11    9 ar
    19   18    9 1
    20   11   10 ar
    21   19   10 1
    22   12   11 1
    23   23   12 1
    24   25   24 1
    25   33   24 1
    26   26   25 1
    27   28   25 1
    28   34   25 1
    29   27   26 2
    30   29   28 1
    31   35   28 1
    32   36   28 1
    33   30   29 1
    34   37   29 1
    35   38   29 1
    36   31   30 2
    37   32   30 am
    38   39   32 1
    39   40   32 1
    40   42   41 1
    41   53   41 1
    42   43   42 1
    43   45   42 1
    44   54   42 1
    45   44   43 2
    46   52   43 1
    47   46   45 1
    48   55   45 1
    49   56   45 1
    50   47   46 ar
    51   48   46 ar
    52   49   47 ar
    53   57   47 1
    54   50   48 ar
    55   58   48 1
    56   51   49 ar
    57   59   49 1
    58   51   50 ar
    59   60   50 1
    60   61   51 1
    61   62   52 1
    62   24    3 am
    63   41   26 am
@<TRIPOS>SUBSTRUCTURE
     1 TYR408      1 RESIDUE
     2 GLN409     24 RESIDUE
     3 PHE410     41 RESIDUE
@<TRIPOS>SET

