#    Name: 3qj0_QI3_1_INTS_M
#    Modification time : Mon Apr  7 19:36:01 2014

@<TRIPOS>MOLECULE
3qj0_QI3_1_INTS_M
   56     0    12     0     0
SMALL
NO_CHARGES


@<TRIPOS>ATOM
      1 Zn        -19.2315   34.9490   -5.9600 Zn        3 ZIC7        0.0000 
      2 Zn        -21.8870   35.4460   -5.7760 Zn       11 ZIL7        0.0000 
      3 Zn        -16.5760   34.4520   -6.1440 Zn        7 ZIP7        0.0000 
      4 Zn        -17.5910   35.2050   -5.7780 Zn        3 ZIC7        0.0000 
      5 Zn        -18.6060   35.9580   -5.4120 Zn       11 ZIL7        0.0000 
      6 CA        -23.9190   33.9550   -3.0875 C.3       4 GLC5        0.0000 
      7 CA        -22.4940   35.3060   -3.6200 C.3      12 GLL5        0.0000 
      8 CA        -25.3440   32.6040   -2.5550 C.3       8 GLP5        0.0000 
      9 Zn        -17.3920   33.8370   -6.1075 Zn        3 ZIC7        0.0000 
     10 Zn        -18.2080   33.2220   -6.0710 Zn       11 ZIL7        0.0000 
     11 O         -18.1850   31.7070   -6.8240 O.2       1 ALC1        0.0000 
     12 O         -18.2080   33.2220   -6.0710 O.2       9 ALL1        0.0000 
     13 O         -18.1620   30.1920   -7.5770 O.2       5 ALP1        0.0000 
     14 O         -18.7860   32.5810   -7.0740 O.2       1 ALC1        0.0000 
     15 O         -19.3640   31.9400   -8.0770 O.2       5 ALP1        0.0000 
     16 O         -20.5820   32.8825   -5.6185 O.2       1 ALC1        0.0000 
     17 O         -19.3640   33.7510   -5.7240 O.2       9 ALL1        0.0000 
     18 O         -21.8000   32.0140   -5.5130 O.2       5 ALP1        0.0000 
     19 CA        -22.6390   42.2920   -1.0665 C.3       4 GLC5        0.0000 
     20 CA        -20.7920   41.5100   -1.4490 C.3      12 GLL5        0.0000 
     21 CA        -24.4860   43.0740   -0.6840 C.3       8 GLP5        0.0000 
     22 CA        -19.1650   40.8740   -2.8620 C.3       4 GLC5        0.0000 
     23 CA        -17.5380   40.2380   -4.2750 C.3       8 GLP5        0.0000 
     24 CA        -26.9250   36.9825   -8.0915 C.3       4 GLC5        0.0000 
     25 CA        -25.2930   38.2490   -7.4350 C.3      12 GLL5        0.0000 
     26 CA        -28.5570   35.7160   -8.7480 C.3       8 GLP5        0.0000 
     27 N         -23.7700   33.2260   -6.9865 N.am      2 SEC2        0.0000 
     28 N         -23.1030   34.5220   -7.7130 N.am     10 SEL2        0.0000 
     29 N         -24.4370   31.9300   -6.2600 N.am      6 SEP2        0.0000 
     30 CA        -23.5730   41.7485   -8.4125 C.3       4 GLC5        0.0000 
     31 CA        -23.3470   39.5920   -7.9060 C.3      12 GLL5        0.0000 
     32 CA        -23.7990   43.9050   -8.9190 C.3       8 GLP5        0.0000 
     33 CA        -27.4935   40.7220   -7.5045 C.3       4 GLC5        0.0000 
     34 CA        -25.7250   40.8680   -7.8160 C.3      12 GLL5        0.0000 
     35 CA        -29.2620   40.5760   -7.1930 C.3       8 GLP5        0.0000 
     36 CA        -25.3380   40.5425   -9.5865 C.3       4 GLC5        0.0000 
     37 CA        -24.9510   40.2170  -11.3570 C.3       8 GLP5        0.0000 
     38 CA        -24.7585   42.3830   -7.6110 C.3       4 GLC5        0.0000 
     39 CA        -23.7920   43.8980   -7.4060 C.3       8 GLP5        0.0000 
     40 CA        -24.4975   33.6960   -4.9170 C.3       4 GLC5        0.0000 
     41 CA        -22.7370   34.6560   -4.9310 C.3      12 GLL5        0.0000 
     42 CA        -26.2580   32.7360   -4.9030 C.3       8 GLP5        0.0000 
     43 CA        -23.1115   32.8265   -5.8815 C.3       4 GLC5        0.0000 
     44 CA        -23.4860   30.9970   -6.8320 C.3       8 GLP5        0.0000 
     45 CA        -23.7076   39.2030   -3.5836 C.3       4 GLC5        0.0000 
     46 CA        -22.5460   37.6720   -3.2240 C.3      12 GLL5        0.0000 
     47 CA        -25.4050   39.3410   -3.5640 C.3       8 GLP5        0.0000 
     48 CA        -23.5315   39.3642   -1.9591 C.3       4 GLC5        0.0000 
     49 CA        -22.3850   37.8050   -1.8320 C.3      12 GLL5        0.0000 
     50 CA        -25.2770   39.4970   -2.0660 C.3       8 GLP5        0.0000 
     51 CA        -25.1455   38.5072   -5.4768 C.3       4 GLC5        0.0000 
     52 CA        -26.1540   39.1247   -9.3445 C.3       4 GLC5        0.0000 
     53 CA        -27.3100   39.3750  -11.1120 C.3       8 GLP5        0.0000 
     54 CA        -25.4675   40.4590   -5.9238 C.3       4 GLC5        0.0000 
     55 CA        -24.7030   39.5000   -7.7190 C.3      12 GLL5        0.0000 
     56 CA        -25.7210   40.7340   -4.0800 C.3       8 GLP5        0.0000 
@<TRIPOS>BOND
@<TRIPOS>SUBSTRUCTURE
     1 ALC1       11 GROUP        1 X    ALC  0     ROOT ALC X 1
     2 SEC2       27 GROUP        1 X    SEC  0     **** SEC X 2
     3 ZIC7        1 GROUP        1 X    ZIC  0     **** ZIC X 5
     4 GLC5        6 GROUP        1 X    GLC  0     **** GLC X 6
     5 ALP1       13 GROUP        1 Y    ALP  0     ROOT ALP Y 8
     6 SEP2       29 GROUP        1 Y    SEP  0     **** SEP Y 9
     7 ZIP7        3 GROUP        1 Y    ZIP  0     **** ZIP Y 12
     8 GLP5        8 GROUP        1 Y    GLP  0     **** GLP Y 13
     9 ALL1       12 GROUP        1 Z    ALL  0     ROOT ALL Z 15
    10 SEL2       28 GROUP        1 Z    SEL  0     **** SEL Z 16
    11 ZIL7        2 GROUP        1 Z    ZIL  0     **** ZIL Z 19
    12 GLL5        7 GROUP        1 Z    GLL  0     **** GLL Z 20
@<TRIPOS>SET

