#    Name: 3qj0_QI3_1_ligand
#    Modification time : Mon Apr  7 19:36:01 2014

@<TRIPOS>MOLECULE
3qj0_QI3_1_ligand
   43    45     1     0     0
SMALL
NO_CHARGES


@<TRIPOS>ATOM
      1 C1        -19.5130   35.1510   -5.3980 C.2       1 QI3432      0.0000 
      2 N1        -21.8870   35.4460   -5.7760 N.pl3     1 QI3432      0.0000 
      3 O1        -18.6060   35.9580   -5.4120 O.2       1 QI3432      0.0000 
      4 C2        -20.7510   35.8220   -5.0040 C.3       1 QI3432      0.0000 
      5 C3        -21.0430   35.4800   -3.5790 C.3       1 QI3432      0.0000 
      6 C4        -22.4940   35.3060   -3.6200 C.3       1 QI3432      0.0000 
      7 O2        -18.2080   33.2220   -6.0710 O.3       1 QI3432      0.0000 
      8 N2        -19.3640   33.7510   -5.7240 N.am      1 QI3432      0.0000 
      9 C5        -22.5460   37.6720   -3.2240 C.ar      1 QI3432      0.0000 
     10 C6        -22.2050   38.7260   -4.0910 C.ar      1 QI3432      0.0000 
     11 C7        -21.6450   39.9310   -3.5490 C.ar      1 QI3432      0.0000 
     12 C8        -22.3850   37.8050   -1.8320 C.ar      1 QI3432      0.0000 
     13 C9        -21.8250   39.0090   -1.2870 C.ar      1 QI3432      0.0000 
     14 C10       -21.4670   40.0560   -2.1450 C.ar      1 QI3432      0.0000 
     15 CL1       -20.7920   41.5100   -1.4490 Cl        1 QI3432      0.0000 
     16 O3        -20.9240   35.6640   -8.1520 O.2       1 QI3432      0.0000 
     17 S1        -22.2130   35.6380   -7.3520 S.o2      1 QI3432      0.0000 
     18 C11       -23.1410   37.1680   -7.5310 C.ar      1 QI3432      0.0000 
     19 C12       -24.4790   37.0980   -7.3440 C.ar      1 QI3432      0.0000 
     20 C13       -25.2930   38.2490   -7.4350 C.ar      1 QI3432      0.0000 
     21 O4        -23.1030   34.5220   -7.7130 O.2       1 QI3432      0.0000 
     22 C14       -22.5430   38.4250   -7.8140 C.ar      1 QI3432      0.0000 
     23 C15       -23.3470   39.5920   -7.9060 C.ar      1 QI3432      0.0000 
     24 C16       -24.7030   39.5000   -7.7190 C.ar      1 QI3432      0.0000 
     25 CL2       -25.7250   40.8680   -7.8160 Cl        1 QI3432      0.0000 
     26 O5        -23.1440   36.5150   -3.7520 O.3       1 QI3432      0.0000 
     27 C17       -22.7370   34.6560   -4.9310 C.3       1 QI3432      0.0000 
     28 H         -20.6054   36.9043   -5.0443 H         1 QI3432      0.0000 
     29 H         -20.7721   36.2926   -2.9510 H         1 QI3432      0.0000 
     30 H         -20.5555   34.5729   -3.3193 H         1 QI3432      0.0000 
     31 H         -22.8410   34.6959   -2.8633 H         1 QI3432      0.0000 
     32 H         -20.2429   33.1775   -5.6662 H         1 QI3432      0.0000 
     33 H         -22.3486   38.6475   -5.0917 H         1 QI3432      0.0000 
     34 H         -21.3794   40.6865   -4.1709 H         1 QI3432      0.0000 
     35 H         -22.6617   37.0550   -1.2020 H         1 QI3432      0.0000 
     36 H         -21.6953   39.0858   -0.2816 H         1 QI3432      0.0000 
     37 H         -24.9418   36.1921   -7.1280 H         1 QI3432      0.0000 
     38 H         -26.2992   38.1766   -7.2966 H         1 QI3432      0.0000 
     39 H         -21.5351   38.4894   -7.9512 H         1 QI3432      0.0000 
     40 H         -22.8958   40.4886   -8.1120 H         1 QI3432      0.0000 
     41 H         -22.4205   33.6409   -4.8927 H         1 QI3432      0.0000 
     42 H         -23.7619   34.7578   -5.1979 H         1 QI3432      0.0000 
     43 H         -18.4104   32.6624   -6.8747 H         1 QI3432      0.0000 
@<TRIPOS>BOND
     1    3    1 2    
     2    4    1 1    
     3    8    1 am   
     4    4    2 1    
     5   17    2 1    
     6   27    2 1    
     7    5    4 1    
     8   28    4 1    
     9    6    5 1    
    10   29    5 1    
    11   30    5 1    
    12   26    6 1    
    13   27    6 1    
    14   31    6 1    
    15    8    7 1    
    16   43    7 1    
    17   32    8 1    
    18   10    9 ar   
    19   12    9 ar   
    20   26    9 1    
    21   11   10 ar   
    22   33   10 1    
    23   14   11 ar   
    24   34   11 1    
    25   13   12 ar   
    26   35   12 1    
    27   14   13 ar   
    28   36   13 1    
    29   15   14 1    
    30   17   16 2    
    31   18   17 1    
    32   21   17 2    
    33   19   18 ar   
    34   22   18 ar   
    35   20   19 ar   
    36   37   19 1    
    37   24   20 ar   
    38   38   20 1    
    39   23   22 ar   
    40   39   22 1    
    41   24   23 ar   
    42   40   23 1    
    43   25   24 1    
    44   41   27 1    
    45   42   27 1    
@<TRIPOS>SUBSTRUCTURE
     1 QI3432      1 GROUP   
@<TRIPOS>SET

