#    Name: 3p0q_NNL_2_INTS_M
#    Modification time : Tue Mar 25 05:47:26 2014

@<TRIPOS>MOLECULE
3p0q_NNL_2_INTS_M
   47     0     9     0     0
SMALL
NO_CHARGES


@<TRIPOS>ATOM
      1 CA         11.8535  -45.8360  -17.4700 C.3       3 GLC5        0.0000 
      2 CA         12.1280  -45.2190  -15.5960 C.3       9 GLL5        0.0000 
      3 CA         11.5790  -46.4530  -19.3440 C.3       6 GLP5        0.0000 
      4 CA         11.1290  -46.5195  -15.4050 C.3       3 GLC5        0.0000 
      5 CA         10.1300  -47.8200  -15.2140 C.3       6 GLP5        0.0000 
      6 CA         12.8415  -43.8315  -16.2880 C.3       3 GLC5        0.0000 
      7 CA         13.5550  -42.4440  -16.9800 C.3       6 GLP5        0.0000 
      8 CA          7.1590  -41.4010  -25.2905 C.3       3 GLC5        0.0000 
      9 CA          8.9780  -42.2440  -25.6370 C.3       9 GLL5        0.0000 
     10 CA          5.3400  -40.5580  -24.9440 C.3       6 GLP5        0.0000 
     11 CA         10.8155  -42.4165  -24.3720 C.3       3 GLC5        0.0000 
     12 CA         12.6530  -42.5890  -23.1070 C.3       6 GLP5        0.0000 
     13 CA          8.5230  -44.7335  -21.1310 C.3       3 GLC5        0.0000 
     14 CA          7.6910  -42.8040  -21.8320 C.3       9 GLL5        0.0000 
     15 CA          9.3550  -46.6630  -20.4300 C.3       6 GLP5        0.0000 
     16 CA          8.9400  -44.6185  -19.6535 C.3       3 GLC5        0.0000 
     17 CA          8.5250  -42.5740  -18.8770 C.3       9 GLL5        0.0000 
     18 CA         10.3115  -41.8970  -18.6600 C.3       3 GLC5        0.0000 
     19 CA         12.0980  -41.2200  -18.4430 C.3       6 GLP5        0.0000 
     20 CA          9.3030  -40.3375  -18.6590 C.3       3 GLC5        0.0000 
     21 CA          7.8640  -41.4240  -19.6670 C.3       9 GLL5        0.0000 
     22 CA         10.7420  -39.2510  -17.6510 C.3       6 GLP5        0.0000 
     23 N           7.3860  -40.0345  -14.2015 N.am      2 SEC2        0.0000 
     24 N           8.2640  -41.2590  -13.5410 N.am      8 SEL2        0.0000 
     25 N           6.5080  -38.8100  -14.8620 N.am      5 SEP2        0.0000 
     26 N           8.2605  -40.3950  -12.5060 N.am      2 SEC2        0.0000 
     27 N           8.2570  -39.5310  -11.4710 N.am      5 SEP2        0.0000 
     28 N           7.3125  -40.0895  -14.8050 N.am      2 SEC2        0.0000 
     29 N           8.1170  -41.3690  -14.7480 N.am      8 SEL2        0.0000 
     30 O           7.8965  -40.8095  -17.4395 O.2       1 ALC1        0.0000 
     31 O           8.4300  -42.2440  -17.4410 O.2       7 ALL1        0.0000 
     32 O           7.3630  -39.3750  -17.4380 O.2       4 ALP1        0.0000 
     33 CA          9.9810  -41.0005  -17.0720 C.3       3 GLC5        0.0000 
     34 CA          9.2200  -42.7500  -16.4930 C.3       9 GLL5        0.0000 
     35 CA         10.2815  -39.1535  -22.7100 C.3       3 GLC5        0.0000 
     36 CA          8.8410  -40.6470  -21.9130 C.3       9 GLL5        0.0000 
     37 CA         11.6020  -37.5690  -22.8160 C.3       6 GLP5        0.0000 
     38 CA          9.0000  -44.6923  -15.9455 C.3       3 GLC5        0.0000 
     39 CA         10.2500  -43.7310  -16.6770 C.3       9 GLL5        0.0000 
     40 CA          8.2650  -46.1440  -15.3060 C.3       6 GLP5        0.0000 
     41 CA          6.5815  -40.1525  -20.0080 C.3       3 GLC5        0.0000 
     42 CA          5.1640  -38.7780  -19.5940 C.3       6 GLP5        0.0000 
     43 CA          8.0308  -39.3670  -22.0203 C.3       3 GLC5        0.0000 
     44 CA          9.0810  -40.8290  -23.2950 C.3       9 GLL5        0.0000 
     45 CA          7.5140  -37.5500  -22.1500 C.3       6 GLP5        0.0000 
     46 CA         10.1725  -42.3946  -22.1882 C.3       3 GLC5        0.0000 
     47 CA         11.9580  -42.9700  -21.8180 C.3       6 GLP5        0.0000 
@<TRIPOS>BOND
@<TRIPOS>SUBSTRUCTURE
     1 ALC1       30 GROUP        1 X    ALC  0     ROOT ALC X 1
     2 SEC2       23 GROUP        1 X    SEC  0     **** SEC X 2
     3 GLC5        1 GROUP        1 X    GLC  0     **** GLC X 6
     4 ALP1       32 GROUP        1 Y    ALP  0     ROOT ALP Y 8
     5 SEP2       25 GROUP        1 Y    SEP  0     **** SEP Y 9
     6 GLP5        3 GROUP        1 Y    GLP  0     **** GLP Y 13
     7 ALL1       31 GROUP        1 Z    ALL  0     ROOT ALL Z 15
     8 SEL2       24 GROUP        1 Z    SEL  0     **** SEL Z 16
     9 GLL5        2 GROUP        1 Z    GLL  0     **** GLL Z 20
@<TRIPOS>SET

