#    Name: 3p0q_NNL_2_ligand
#    Modification time : Tue Mar 25 05:47:26 2014

@<TRIPOS>MOLECULE
3p0q_NNL_2_ligand
   34    36     1     0     0
SMALL
NO_CHARGES


@<TRIPOS>ATOM
      1 CAA        12.1280  -45.2190  -15.5960 C.3       1 NNL2        0.0000 
      2 CL          8.9780  -42.2440  -25.6370 Cl        1 NNL2        0.0000 
      3 CAC         7.9410  -42.9970  -23.2030 C.ar      1 NNL2        0.0000 
      4 CAD         9.0810  -40.8290  -23.2950 C.ar      1 NNL2        0.0000 
      5 CAE         7.6910  -42.8040  -21.8320 C.ar      1 NNL2        0.0000 
      6 CAF         8.8410  -40.6470  -21.9130 C.ar      1 NNL2        0.0000 
      7 CAG         9.2330  -42.0620  -13.1000 C.2       1 NNL2        0.0000 
      8 CAH        10.2500  -43.7310  -16.6770 C.2       1 NNL2        0.0000 
      9 CAI         8.5250  -42.5740  -18.8770 C.3       1 NNL2        0.0000 
     10 CAJ         7.8640  -41.4240  -19.6670 C.3       1 NNL2        0.0000 
     11 NAK         8.2640  -41.2590  -13.5410 N.2       1 NNL2        0.0000 
     12 NAL         8.1170  -41.3690  -14.7480 N.2       1 NNL2        0.0000 
     13 NAM        10.6250  -43.5870  -14.2940 N.2       1 NNL2        0.0000 
     14 NAN         8.4300  -42.2440  -17.4410 N.pl3     1 NNL2        0.0000 
     15 CAO         8.6370  -42.0080  -23.9350 C.ar      1 NNL2        0.0000 
     16 CAP        10.9620  -44.1460  -15.5200 C.2       1 NNL2        0.0000 
     17 CAQ         8.1340  -41.6300  -21.1770 C.ar      1 NNL2        0.0000 
     18 CAR         9.2200  -42.7500  -16.4930 C.2       1 NNL2        0.0000 
     19 CAS         8.9760  -42.2500  -15.2130 C.2       1 NNL2        0.0000 
     20 NAT         9.7260  -42.7280  -14.1360 N.pl3     1 NNL2        0.0000 
     21 H           7.6226  -43.8461  -23.6697 H         1 NNL2        0.0000 
     22 H           9.5724  -40.1121  -23.8267 H         1 NNL2        0.0000 
     23 H           7.1834  -43.5183  -21.2989 H         1 NNL2        0.0000 
     24 H           9.1778  -39.8051  -21.4432 H         1 NNL2        0.0000 
     25 H           9.5253  -42.1427  -12.1760 H         1 NNL2        0.0000 
     26 H          10.4521  -44.1008  -17.5786 H         1 NNL2        0.0000 
     27 H           9.5557  -42.6526  -19.1898 H         1 NNL2        0.0000 
     28 H           7.9956  -43.4883  -19.1010 H         1 NNL2        0.0000 
     29 H           8.2908  -40.4854  -19.3556 H         1 NNL2        0.0000 
     30 H           6.8013  -41.4355  -19.4923 H         1 NNL2        0.0000 
     31 H           7.6639  -41.5527  -17.2051 H         1 NNL2        0.0000 
     32 H          12.8740  -44.9155  -16.1888 H         1 NNL2        0.0000 
     33 H          12.5243  -45.4012  -14.6961 H         1 NNL2        0.0000 
     34 H          11.8046  -46.0939  -15.9564 H         1 NNL2        0.0000 
@<TRIPOS>BOND
     1   16    1 1    
     2   32    1 1    
     3   33    1 1    
     4   34    1 1    
     5   15    2 1    
     6    5    3 ar   
     7   15    3 ar   
     8   21    3 1    
     9    6    4 ar   
    10   15    4 ar   
    11   22    4 1    
    12   17    5 ar   
    13   23    5 1    
    14   17    6 ar   
    15   24    6 1    
    16   11    7 2    
    17   20    7 1    
    18   25    7 1    
    19   16    8 1    
    20   18    8 2    
    21   26    8 1    
    22   10    9 1    
    23   14    9 1    
    24   27    9 1    
    25   28    9 1    
    26   17   10 1    
    27   29   10 1    
    28   30   10 1    
    29   12   11 1    
    30   19   12 2    
    31   16   13 2    
    32   20   13 1    
    33   18   14 1    
    34   31   14 1    
    35   19   18 1    
    36   20   19 1    
@<TRIPOS>SUBSTRUCTURE
     1 NNL2        1 GROUP   
@<TRIPOS>SET

