#    Name: 4asy_N5Y_3_INTS_M
#    Modification time : Tue Mar 25 06:12:03 2014

@<TRIPOS>MOLECULE
4asy_N5Y_3_INTS_M
   56     0     9     0     0
SMALL
NO_CHARGES


@<TRIPOS>ATOM
      1 CA          8.2085  -39.1995   40.9065 C.3       3 GLC5        0.0000 
      2 CA          6.0690  -38.8010   40.4110 C.3       9 GLL5        0.0000 
      3 CA         10.3480  -39.5980   41.4020 C.3       6 GLP5        0.0000 
      4 CA          8.4090  -37.2280   39.0465 C.3       3 GLC5        0.0000 
      5 CA          6.6230  -37.8460   39.5810 C.3       9 GLL5        0.0000 
      6 CA         10.1950  -36.6100   38.5120 C.3       6 GLP5        0.0000 
      7 CA          7.4000  -35.7200   38.3410 C.3       3 GLC5        0.0000 
      8 CA          5.8200  -36.8890   38.9640 C.3       9 GLL5        0.0000 
      9 CA          8.9800  -34.5510   37.7180 C.3       6 GLP5        0.0000 
     10 CA          2.0190  -34.7315   38.0895 C.3       3 GLC5        0.0000 
     11 CA          3.5570  -35.9520   38.6220 C.3       9 GLL5        0.0000 
     12 CA          0.4810  -33.5110   37.5570 C.3       6 GLP5        0.0000 
     13 O           5.7805  -32.1175   36.7015 O.2       1 ALC1        0.0000 
     14 O           5.1330  -33.2490   36.5210 O.2       7 ALL1        0.0000 
     15 O           6.4280  -30.9860   36.8820 O.2       4 ALP1        0.0000 
     16 N           6.1445  -31.8690   33.9395 N.am      2 SEC2        0.0000 
     17 N           5.0570  -32.8310   34.2620 N.am      8 SEL2        0.0000 
     18 N           7.2320  -30.9070   33.6170 N.am      5 SEP2        0.0000 
     19 N           5.7425  -31.9085   35.5720 N.am      2 SEC2        0.0000 
     20 N           6.4280  -30.9860   36.8820 N.am      5 SEP2        0.0000 
     21 N           2.4995  -35.8575   30.3860 N.am      2 SEC2        0.0000 
     22 N           3.4110  -35.4100   31.6060 N.am      8 SEL2        0.0000 
     23 N           1.5880  -36.3050   29.1660 N.am      5 SEP2        0.0000 
     24 CA          9.6690  -36.9865   32.0160 C.3       3 GLC5        0.0000 
     25 CA          8.1460  -35.8960   32.5890 C.3       9 GLL5        0.0000 
     26 CA         11.1920  -38.0770   31.4430 C.3       6 GLP5        0.0000 
     27 CA          8.3775  -33.2550   31.9430 C.3       3 GLC5        0.0000 
     28 CA          7.5580  -35.0700   31.6450 C.3       9 GLL5        0.0000 
     29 CA          9.1970  -31.4400   32.2410 C.3       6 GLP5        0.0000 
     30 CA          1.0305  -33.6930   32.1250 C.3       3 GLC5        0.0000 
     31 CA          1.9390  -34.7810   33.7180 C.3       9 GLL5        0.0000 
     32 CA          0.1220  -32.6050   30.5320 C.3       6 GLP5        0.0000 
     33 CA          0.7895  -34.2760   35.0175 C.3       3 GLC5        0.0000 
     34 CA         -0.3600  -33.7710   36.3170 C.3       6 GLP5        0.0000 
     35 CA          0.0805  -35.0345   33.0020 C.3       3 GLC5        0.0000 
     36 CA         -1.7780  -35.2880   32.2860 C.3       6 GLP5        0.0000 
     37 CA          5.5970  -32.8520   31.3485 C.3       3 GLC5        0.0000 
     38 CA          6.1810  -34.8640   31.6780 C.3       9 GLL5        0.0000 
     39 CA          5.0130  -30.8400   31.0190 C.3       6 GLP5        0.0000 
     40 CA          6.6410  -38.8132   38.3090 C.3       3 GLC5        0.0000 
     41 CA          6.9360  -39.3030   36.6220 C.3       6 GLP5        0.0000 
     42 CA          6.3068  -37.2895   41.6969 C.3       3 GLC5        0.0000 
     43 CA          6.6100  -36.2560   43.3380 C.3       6 GLP5        0.0000 
     44 CA          6.0352  -38.0932   37.8485 C.3       3 GLC5        0.0000 
     45 CA          4.4694  -35.6672   40.7926 C.3       3 GLC5        0.0000 
     46 CA          4.6620  -34.7960   42.6300 C.3       6 GLP5        0.0000 
     47 CA          2.1067  -34.2840   36.5850 C.3       3 GLC5        0.0000 
     48 CA          3.5460  -35.4320   36.1750 C.3       9 GLL5        0.0000 
     49 CA          6.5023  -38.0778   33.9052 C.3       3 GLC5        0.0000 
     50 CA          5.9990  -36.3060   33.5940 C.3       9 GLL5        0.0000 
     51 CA          6.3200  -39.7410   34.2300 C.3       6 GLP5        0.0000 
     52 CA          8.6185  -35.2913   34.6920 C.3       3 GLC5        0.0000 
     53 CA          7.3700  -36.5230   33.5670 C.3       9 GLL5        0.0000 
     54 CA          9.4790  -34.3730   36.3060 C.3       6 GLP5        0.0000 
     55 CA          9.4925  -34.7510   32.8255 C.3       3 GLC5        0.0000 
     56 CA         11.1330  -34.0190   33.5340 C.3       6 GLP5        0.0000 
@<TRIPOS>BOND
@<TRIPOS>SUBSTRUCTURE
     1 ALC1       13 GROUP        1 X    ALC  0     ROOT ALC X 1
     2 SEC2       16 GROUP        1 X    SEC  0     **** SEC X 2
     3 GLC5        1 GROUP        1 X    GLC  0     **** GLC X 6
     4 ALP1       15 GROUP        1 Y    ALP  0     ROOT ALP Y 8
     5 SEP2       18 GROUP        1 Y    SEP  0     **** SEP Y 9
     6 GLP5        3 GROUP        1 Y    GLP  0     **** GLP Y 13
     7 ALL1       14 GROUP        1 Z    ALL  0     ROOT ALL Z 15
     8 SEL2       17 GROUP        1 Z    SEL  0     **** SEL Z 16
     9 GLL5        2 GROUP        1 Z    GLL  0     **** GLL Z 20
@<TRIPOS>SET

