#    Name: 4asy_N5Y_3_ligand
#    Modification time : Tue Mar 25 06:12:03 2014

@<TRIPOS>MOLECULE
4asy_N5Y_3_ligand
   44    46     1     0     0
SMALL
NO_CHARGES


@<TRIPOS>ATOM
      1 CAY         3.8970  -37.8430   40.0400 C.ar      1 N5Y1294     0.0000 
      2 CAZ         4.6990  -38.7990   40.6500 C.ar      1 N5Y1294     0.0000 
      3 CBA         6.0690  -38.8010   40.4110 C.ar      1 N5Y1294     0.0000 
      4 CAX         6.6230  -37.8460   39.5810 C.ar      1 N5Y1294     0.0000 
      5 CAW         5.8200  -36.8890   38.9640 C.ar      1 N5Y1294     0.0000 
      6 CAV         4.4490  -36.8780   39.1860 C.ar      1 N5Y1294     0.0000 
      7 CAU         3.5570  -35.9520   38.6220 C.3       1 N5Y1294     0.0000 
      8 NAN         3.9900  -35.1280   37.4180 N.am      1 N5Y1294     0.0000 
      9 CAO         3.5460  -35.4320   36.1750 C.2       1 N5Y1294     0.0000 
     10 NAP         2.7780  -36.4960   35.9640 N.pl3     1 N5Y1294     0.0000 
     11 CAM         4.7540  -34.0380   37.6030 C.2       1 N5Y1294     0.0000 
     12 OAL         5.1400  -33.7550   38.7440 O.2       1 N5Y1294     0.0000 
     13 NAD         5.1330  -33.2490   36.5210 N.am      1 N5Y1294     0.0000 
     14 CAE         4.7100  -33.5420   35.2140 C.2       1 N5Y1294     0.0000 
     15 OAA         5.0570  -32.8310   34.2620 O.2       1 N5Y1294     0.0000 
     16 CAF         3.9190  -34.6820   35.0510 C.2       1 N5Y1294     0.0000 
     17 NAG         3.3940  -34.9780   33.8280 N.am      1 N5Y1294     0.0000 
     18 OAC         3.4110  -35.4100   31.6060 O.2       1 N5Y1294     0.0000 
     19 CA0         4.0390  -35.2560   32.6600 C.2       1 N5Y1294     0.0000 
     20 CAT         5.4060  -35.4600   32.6590 C.ar      1 N5Y1294     0.0000 
     21 CAS         5.9990  -36.3060   33.5940 C.ar      1 N5Y1294     0.0000 
     22 CAR         7.3700  -36.5230   33.5670 C.ar      1 N5Y1294     0.0000 
     23 CAI         8.1460  -35.8960   32.5890 C.ar      1 N5Y1294     0.0000 
     24 CAJ         7.5580  -35.0700   31.6450 C.ar      1 N5Y1294     0.0000 
     25 CAA         1.9390  -34.7810   33.7180 C.3       1 N5Y1294     0.0000 
     26 CAK         6.1810  -34.8640   31.6780 C.ar      1 N5Y1294     0.0000 
     27 H           2.8786  -37.8383   40.2145 H         1 N5Y1294     0.0000 
     28 H           4.2838  -39.5000   41.2735 H         1 N5Y1294     0.0000 
     29 H           6.6646  -39.5136   40.8532 H         1 N5Y1294     0.0000 
     30 H           7.6431  -37.8367   39.4125 H         1 N5Y1294     0.0000 
     31 H           6.2464  -36.1882   38.3415 H         1 N5Y1294     0.0000 
     32 H           3.1983  -35.2043   39.4085 H         1 N5Y1294     0.0000 
     33 H           2.5781  -36.4617   38.3249 H         1 N5Y1294     0.0000 
     34 H           2.4994  -36.6568   35.0171 H         1 N5Y1294     0.0000 
     35 H           2.5481  -37.0397   36.7711 H         1 N5Y1294     0.0000 
     36 H           5.7417  -32.4246   36.6775 H         1 N5Y1294     0.0000 
     37 H           5.4175  -36.7699   34.3052 H         1 N5Y1294     0.0000 
     38 H           7.8126  -37.1369   34.2566 H         1 N5Y1294     0.0000 
     39 H           9.1661  -36.0529   32.5740 H         1 N5Y1294     0.0000 
     40 H           8.1287  -34.6127   30.9269 H         1 N5Y1294     0.0000 
     41 H           5.7386  -34.2629   30.9655 H         1 N5Y1294     0.0000 
     42 H           1.6779  -33.8327   33.8983 H         1 N5Y1294     0.0000 
     43 H           1.6013  -35.0095   32.8049 H         1 N5Y1294     0.0000 
     44 H           1.4368  -35.3518   34.3676 H         1 N5Y1294     0.0000 
@<TRIPOS>BOND
     1    2    1 ar   
     2    6    1 ar   
     3   27    1 1    
     4    3    2 ar   
     5   28    2 1    
     6    4    3 ar   
     7   29    3 1    
     8    5    4 ar   
     9   30    4 1    
    10    6    5 ar   
    11   31    5 1    
    12    7    6 1    
    13    8    7 1    
    14   32    7 1    
    15   33    7 1    
    16    9    8 1    
    17   11    8 1    
    18   10    9 1    
    19   16    9 2    
    20   34   10 1    
    21   35   10 1    
    22   12   11 2    
    23   13   11 1    
    24   14   13 1    
    25   36   13 1    
    26   15   14 2    
    27   16   14 1    
    28   17   16 1    
    29   19   17 am   
    30   25   17 1    
    31   19   18 2    
    32   20   19 1    
    33   21   20 ar   
    34   26   20 ar   
    35   22   21 ar   
    36   37   21 1    
    37   23   22 ar   
    38   38   22 1    
    39   24   23 ar   
    40   39   23 1    
    41   26   24 ar   
    42   40   24 1    
    43   42   25 1    
    44   43   25 1    
    45   44   25 1    
    46   41   26 1    
@<TRIPOS>SUBSTRUCTURE
     1 N5Y1294     1 GROUP   
@<TRIPOS>SET

