#    Name: 2Z4T_1_CAVITY_N1_6.mol2
#    Modification time : Tue Mar 11 04:54:57 2014

@<TRIPOS>MOLECULE
2Z4T_1_CAVITY_N1_6.mol2
   93     0     6     0     0
SMALL
NO_CHARGES


@<TRIPOS>ATOM
      1 CA         32.4345  -30.5103  -10.6956 C.3       5 GLY6        0.0000 
      2 OG         32.6616  -29.4696  -11.7518 O.2       1 SER1        0.0000 
      3 OG         33.1159  -27.3883  -13.8640 O.2       1 SER1        0.0000 
      4 O          33.3431  -26.3476  -14.9201 O.2       2 ALA2        0.0000 
      5 N          34.2077  -28.2286  -14.4573 N.2       2 ALA2        0.0000 
      6 N          34.4348  -27.1879  -15.5134 N.2       2 ALA2        0.0000 
      7 OG         34.6620  -26.1473  -16.5695 O.2       1 SER1        0.0000 
      8 OG         34.8891  -25.1066  -17.6257 O.2       1 SER1        0.0000 
      9 OG         35.1163  -24.0659  -18.6818 O.2       1 SER1        0.0000 
     10 N          35.5265  -28.0283  -16.1066 N.2       2 ALA2        0.0000 
     11 O          35.7537  -26.9876  -17.1628 O.2       2 ALA2        0.0000 
     12 O          35.9808  -25.9469  -18.2189 O.2       2 ALA2        0.0000 
     13 DU         36.2080  -24.9063  -19.2750 H         6 CUB7        0.0000 
     14 CA         37.2997  -25.7466  -19.8683 C.3       5 GLY6        0.0000 
     15 CA         30.3395  -30.3487  -10.9871 C.3       5 GLY6        0.0000 
     16 OG         30.5667  -29.3081  -12.0432 O.2       1 SER1        0.0000 
     17 OG         30.7938  -28.2674  -13.0993 O.2       1 SER1        0.0000 
     18 CA         31.4312  -31.1891  -11.5803 C.3       5 GLY6        0.0000 
     19 OG         31.6584  -30.1484  -12.6364 O.2       1 SER1        0.0000 
     20 OG         31.8855  -29.1078  -13.6926 O.2       1 SER1        0.0000 
     21 OG         32.1127  -28.0671  -14.7487 O.2       1 SER1        0.0000 
     22 N          32.7501  -30.9888  -13.2297 N.2       2 ALA2        0.0000 
     23 N          32.9773  -29.9481  -14.2858 N.2       2 ALA2        0.0000 
     24 N          33.2044  -28.9074  -15.3419 N.2       2 ALA2        0.0000 
     25 OG         33.4315  -27.8668  -16.3981 O.2       1 SER1        0.0000 
     26 OG         33.6587  -26.8261  -17.4542 O.2       1 SER1        0.0000 
     27 OG         33.8858  -25.7854  -18.5103 O.2       1 SER1        0.0000 
     28 O          34.1130  -24.7448  -19.5665 O.2       2 ALA2        0.0000 
     29 N          34.5233  -28.7071  -16.9913 N.2       2 ALA2        0.0000 
     30 O          34.7504  -27.6665  -18.0474 O.2       2 ALA2        0.0000 
     31 O          34.9776  -26.6258  -19.1036 O.2       2 ALA2        0.0000 
     32 CA         35.2047  -25.5851  -20.1597 C.3       5 GLY6        0.0000 
     33 NZ         28.4717  -29.1466  -12.3346 N.2       3 LYS4        0.0000 
     34 NZ         29.3362  -31.0276  -11.8717 N.2       3 LYS4        0.0000 
     35 NZ         29.5634  -29.9869  -12.9279 N.2       3 LYS4        0.0000 
     36 CA         29.7905  -28.9462  -13.9840 C.3       5 GLY6        0.0000 
     37 OG         30.4280  -31.8679  -12.4650 O.2       1 SER1        0.0000 
     38 DU         30.6551  -30.8273  -13.5211 H         6 CUB7        0.0000 
     39 DU         30.8823  -29.7866  -14.5772 H         6 CUB7        0.0000 
     40 OG         31.1094  -28.7459  -15.6334 O.2       1 SER1        0.0000 
     41 OG         31.7468  -31.6676  -14.1143 O.2       1 SER1        0.0000 
     42 CA         31.9740  -30.6269  -15.1705 C.3       5 GLY6        0.0000 
     43 DU         32.2011  -29.5863  -16.2266 H         6 CUB7        0.0000 
     44 OG         32.4283  -28.5456  -17.2827 O.2       1 SER1        0.0000 
     45 NZ         32.6554  -27.5049  -18.3389 N.2       3 LYS4        0.0000 
     46 OG         33.0657  -31.4673  -15.7637 O.2       1 SER1        0.0000 
     47 N          33.2929  -30.4266  -16.8199 N.2       2 ALA2        0.0000 
     48 NZ         33.5200  -29.3860  -17.8760 N.2       3 LYS4        0.0000 
     49 NZ         33.7472  -28.3453  -18.9321 N.2       3 LYS4        0.0000 
     50 OG         34.1574  -32.3076  -16.3570 O.2       1 SER1        0.0000 
     51 CZ         34.3846  -31.2670  -17.4131 C.ar      4 PHE5        0.0000 
     52 CZ         34.6117  -30.2263  -18.4692 C.ar      4 PHE5        0.0000 
     53 O          34.8389  -29.1856  -19.5254 O.2       2 ALA2        0.0000 
     54 NZ         35.0660  -28.1450  -20.5815 N.2       3 LYS4        0.0000 
     55 O          35.9306  -30.0260  -20.1186 O.2       2 ALA2        0.0000 
     56 O          36.1578  -28.9853  -21.1747 O.2       2 ALA2        0.0000 
     57 N          37.6717  -24.1108  -13.9155 N.2       2 ALA2        0.0000 
     58 OG         38.7635  -24.9511  -14.5087 O.2       1 SER1        0.0000 
     59 N          35.5768  -23.9492  -14.2069 N.2       2 ALA2        0.0000 
     60 CA         35.8039  -22.9086  -15.2631 C.3       5 GLY6        0.0000 
     61 OG         36.4413  -25.8303  -13.7440 O.2       1 SER1        0.0000 
     62 N          36.6685  -24.7896  -14.8002 N.2       2 ALA2        0.0000 
     63 CA         36.8956  -23.7489  -15.8563 C.3       5 GLY6        0.0000 
     64 OG         37.7602  -25.6299  -15.3934 O.2       1 SER1        0.0000 
     65 DU         37.9874  -24.5893  -16.4496 H         6 CUB7        0.0000 
     66 N          38.8519  -26.4703  -15.9867 N.2       2 ALA2        0.0000 
     67 CA         39.0791  -25.4296  -17.0428 C.3       5 GLY6        0.0000 
     68 CA         34.3463  -25.6688  -14.0355 C.3       5 GLY6        0.0000 
     69 OG         34.5735  -24.6281  -15.0916 O.2       1 SER1        0.0000 
     70 N          35.2109  -27.5498  -13.5726 N.2       2 ALA2        0.0000 
     71 N          35.4381  -26.5091  -14.6287 N.2       2 ALA2        0.0000 
     72 DU         35.6652  -25.4684  -15.6848 H         6 CUB7        0.0000 
     73 OG         35.8924  -24.4278  -16.7410 O.2       1 SER1        0.0000 
     74 OG         36.1195  -23.3871  -17.7971 O.2       1 SER1        0.0000 
     75 N          36.5298  -27.3495  -15.2220 N.2       2 ALA2        0.0000 
     76 O          36.7569  -26.3088  -16.2781 O.2       2 ALA2        0.0000 
     77 O          36.9841  -25.2681  -17.3342 O.2       2 ALA2        0.0000 
     78 DU         37.2112  -24.2274  -18.3904 H         6 CUB7        0.0000 
     79 O          37.8487  -27.1491  -16.8713 O.2       2 ALA2        0.0000 
     80 CA         38.0758  -26.1085  -17.9275 C.3       5 GLY6        0.0000 
     81 NZ         28.5601  -30.6657  -13.8125 N.2       3 LYS4        0.0000 
     82 CA         28.7873  -29.6251  -14.8687 C.3       5 GLY6        0.0000 
     83 OG         29.4247  -32.5468  -13.3496 O.2       1 SER1        0.0000 
     84 CA         29.6519  -31.5061  -14.4058 C.3       5 GLY6        0.0000 
     85 CA         29.8790  -30.4654  -15.4619 C.3       5 GLY6        0.0000 
     86 CA         30.9707  -31.3058  -16.0552 C.3       5 GLY6        0.0000 
     87 N          31.1979  -30.2651  -17.1113 N.2       2 ALA2        0.0000 
     88 O          32.2896  -31.1055  -17.7045 O.2       2 ALA2        0.0000 
     89 NZ         32.5167  -30.0648  -18.7607 N.2       3 LYS4        0.0000 
     90 CA         33.3813  -31.9458  -18.2978 C.3       5 GLY6        0.0000 
     91 CA         33.6085  -30.9051  -19.3539 C.3       5 GLY6        0.0000 
     92 CA         34.7002  -31.7455  -19.9472 C.3       5 GLY6        0.0000 
     93 NZ         34.9273  -30.7048  -21.0033 N.2       3 LYS4        0.0000 
@<TRIPOS>BOND
@<TRIPOS>SUBSTRUCTURE
     1 SER1        2 GROUP   
     2 ALA2        4 GROUP   
     3 LYS4       33 GROUP   
     4 PHE5       51 GROUP   
     5 GLY6        1 GROUP   
     6 CUB7       13 GROUP   
@<TRIPOS>SET

