#    Name: 2z4t_C5P_1_INTS_M
#    Modification time : Tue Mar 25 09:58:15 2014

@<TRIPOS>MOLECULE
2z4t_C5P_1_INTS_M
   54     0     9     0     0
SMALL
NO_CHARGES


@<TRIPOS>ATOM
      1 N          33.0780  -27.1710  -12.4970 N.am      2 SEC2        0.0000 
      2 N          34.0420  -27.6640  -13.3580 N.am      8 SEL2        0.0000 
      3 N          32.1140  -26.6780  -11.6360 N.am      5 SEP2        0.0000 
      4 N          34.9195  -29.4390  -14.8720 N.am      2 SEC2        0.0000 
      5 N          34.1890  -28.5360  -15.6180 N.am      8 SEL2        0.0000 
      6 N          35.6500  -30.3420  -14.1260 N.am      5 SEP2        0.0000 
      7 N          31.9165  -25.6940  -14.3385 N.am      2 SEC2        0.0000 
      8 N          32.7400  -26.4230  -15.0900 N.am      8 SEL2        0.0000 
      9 N          31.0930  -24.9650  -13.5870 N.am      5 SEP2        0.0000 
     10 N          31.6925  -26.1215  -15.6335 N.am      2 SEC2        0.0000 
     11 N          30.6450  -25.8200  -16.1770 N.am      5 SEP2        0.0000 
     12 N          32.0700  -27.6460  -12.9885 N.am      2 SEC2        0.0000 
     13 N          32.0260  -28.6140  -14.3410 N.am      8 SEL2        0.0000 
     14 CA         30.4995  -32.0445  -15.4485 C.3       3 GLC5        0.0000 
     15 CA         30.3900  -30.2470  -14.6530 C.3       9 GLL5        0.0000 
     16 CA         30.6090  -33.8420  -16.2440 C.3       6 GLP5        0.0000 
     17 O          27.1080  -29.1780  -12.9410 O.2       1 ALC1        0.0000 
     18 O          28.3070  -29.2200  -13.8610 O.2       7 ALL1        0.0000 
     19 O          25.9090  -29.1360  -12.0210 O.2       4 ALP1        0.0000 
     20 O          27.4170  -30.2075  -12.9255 O.2       1 ALC1        0.0000 
     21 O          26.5270  -31.1950  -11.9900 O.2       4 ALP1        0.0000 
     22 N          28.1815  -33.1735  -13.3090 N.am      2 SEC2        0.0000 
     23 N          28.4700  -31.8200  -13.2350 N.am      8 SEL2        0.0000 
     24 N          27.8930  -34.5270  -13.3830 N.am      5 SEP2        0.0000 
     25 O          27.4985  -31.5075  -12.6125 O.2       1 ALC1        0.0000 
     26 O          28.4700  -31.8200  -13.2350 O.2       7 ALL1        0.0000 
     27 CA         30.6600  -32.7515  -14.5170 C.3       3 GLC5        0.0000 
     28 CA         30.7110  -31.6610  -12.7900 C.3       9 GLL5        0.0000 
     29 CA         31.9525  -33.2460  -12.8270 C.3       3 GLC5        0.0000 
     30 CA         33.1940  -34.8310  -12.8640 C.3       6 GLP5        0.0000 
     31 N          32.2365  -33.1870   -9.0340 N.am      2 SEC2        0.0000 
     32 N          32.2490  -31.7760   -9.3900 N.am      8 SEL2        0.0000 
     33 N          32.2240  -34.5980   -8.6780 N.am      5 SEP2        0.0000 
     34 N          29.2225  -33.0395   -9.8420 N.am      2 SEC2        0.0000 
     35 N          30.5160  -32.8560  -10.2890 N.am      8 SEL2        0.0000 
     36 N          27.9290  -33.2230   -9.3950 N.am      5 SEP2        0.0000 
     37 O          35.1960  -29.7500   -8.6760 O.2       1 ALC1        0.0000 
     38 O          34.0580  -30.6440   -8.4310 O.2       7 ALL1        0.0000 
     39 O          36.3340  -28.8560   -8.9210 O.2       4 ALP1        0.0000 
     40 O          34.3685  -31.1780   -7.1685 O.2       1 ALC1        0.0000 
     41 O          34.6790  -31.7120   -5.9060 O.2       4 ALP1        0.0000 
     42 CA         29.9074  -27.8614  -14.7369 C.3       3 GLC5        0.0000 
     43 CA         29.6110  -26.0120  -15.2290 C.3       6 GLP5        0.0000 
     44 CA         29.2080  -28.9465  -11.5390 C.3       3 GLC5        0.0000 
     45 CA         29.5920  -29.7010  -13.4830 C.3       9 GLL5        0.0000 
     46 CA         28.9120  -27.5770  -10.0180 C.3       6 GLP5        0.0000 
     47 CA         34.5097  -30.2712  -12.0285 C.3       3 GLC5        0.0000 
     48 CA         32.6020  -30.4380  -11.8020 C.3       9 GLL5        0.0000 
     49 CA         35.9950  -30.2400  -12.8000 C.3       6 GLP5        0.0000 
     50 CA         33.5712  -32.0962  -11.6665 C.3       3 GLC5        0.0000 
     51 CA         33.4470  -30.1670  -10.7120 C.3       9 GLL5        0.0000 
     52 CA         34.1180  -33.8900  -12.0760 C.3       6 GLP5        0.0000 
     53 CA         32.0143  -29.2398   -9.9680 C.3       3 GLC5        0.0000 
     54 CA         31.0040  -28.1770   -8.6790 C.3       6 GLP5        0.0000 
@<TRIPOS>BOND
@<TRIPOS>SUBSTRUCTURE
     1 ALC1       17 GROUP        1 X    ALC  0     ROOT ALC X 1
     2 SEC2        1 GROUP        1 X    SEC  0     **** SEC X 2
     3 GLC5       14 GROUP        1 X    GLC  0     **** GLC X 6
     4 ALP1       19 GROUP        1 Y    ALP  0     ROOT ALP Y 8
     5 SEP2        3 GROUP        1 Y    SEP  0     **** SEP Y 9
     6 GLP5       16 GROUP        1 Y    GLP  0     **** GLP Y 13
     7 ALL1       18 GROUP        1 Z    ALL  0     ROOT ALL Z 15
     8 SEL2        2 GROUP        1 Z    SEL  0     **** SEL Z 16
     9 GLL5       15 GROUP        1 Z    GLL  0     **** GLL Z 20
@<TRIPOS>SET

