#    Name: 2z4t_C5P_1_ligand
#    Modification time : Tue Mar 25 09:58:15 2014

@<TRIPOS>MOLECULE
2z4t_C5P_1_ligand
   33    34     1     0     0
SMALL
NO_CHARGES


@<TRIPOS>ATOM
      1 O3P        34.0420  -27.6640  -13.3580 O.co2     1 C5P1427     0.0000 
      2 P          33.3160  -27.7530  -14.6480 P.3       1 C5P1427     0.0000 
      3 O1P        34.1890  -28.5360  -15.6180 O.co2     1 C5P1427     0.0000 
      4 O2P        32.7400  -26.4230  -15.0900 O.co2     1 C5P1427     0.0000 
      5 O5'        32.0260  -28.6140  -14.3410 O.3       1 C5P1427     0.0000 
      6 C5'        31.2410  -29.1940  -15.3600 C.3       1 C5P1427     0.0000 
      7 C4'        30.3900  -30.2470  -14.6530 C.3       1 C5P1427     0.0000 
      8 O4'        31.2380  -31.2370  -14.0540 O.3       1 C5P1427     0.0000 
      9 C3'        29.5920  -29.7010  -13.4830 C.3       1 C5P1427     0.0000 
     10 O3'        28.3070  -29.2200  -13.8610 O.3       1 C5P1427     0.0000 
     11 C2'        29.4160  -30.9310  -12.6370 C.3       1 C5P1427     0.0000 
     12 O2'        28.4700  -31.8200  -13.2350 O.3       1 C5P1427     0.0000 
     13 C1'        30.7110  -31.6610  -12.7900 C.3       1 C5P1427     0.0000 
     14 N1         31.6010  -31.3470  -11.6750 N.am      1 C5P1427     0.0000 
     15 C2         31.4260  -32.0280  -10.4390 C.2       1 C5P1427     0.0000 
     16 N3         32.2490  -31.7760   -9.3900 N.2       1 C5P1427     0.0000 
     17 C4         33.2490  -30.8600   -9.4990 C.2       1 C5P1427     0.0000 
     18 C5         33.4470  -30.1670  -10.7120 C.2       1 C5P1427     0.0000 
     19 C6         32.6020  -30.4380  -11.8020 C.2       1 C5P1427     0.0000 
     20 O2         30.5160  -32.8560  -10.2890 O.2       1 C5P1427     0.0000 
     21 N4         34.0580  -30.6440   -8.4310 N.pl3     1 C5P1427     0.0000 
     22 H          31.8354  -29.6957  -16.1087 H         1 C5P1427     0.0000 
     23 H          30.5729  -28.4850  -15.8252 H         1 C5P1427     0.0000 
     24 H          29.7177  -30.7023  -15.3453 H         1 C5P1427     0.0000 
     25 H          30.1813  -29.0123  -12.9536 H         1 C5P1427     0.0000 
     26 H          29.2414  -30.7092  -11.6590 H         1 C5P1427     0.0000 
     27 H          30.4896  -32.7181  -12.8142 H         1 C5P1427     0.0000 
     28 H          34.1924  -29.4806  -10.7941 H         1 C5P1427     0.0000 
     29 H          32.7595  -29.9356  -12.6887 H         1 C5P1427     0.0000 
     30 H          34.7518  -29.9323   -8.5413 H         1 C5P1427     0.0000 
     31 H          33.8888  -31.2156   -7.6281 H         1 C5P1427     0.0000 
     32 H          27.7526  -29.2837  -13.0312 H         1 C5P1427     0.0000 
     33 H          27.5907  -31.3492  -13.1623 H         1 C5P1427     0.0000 
@<TRIPOS>BOND
     1    2    1 ar   
     2    3    2 ar   
     3    4    2 ar   
     4    5    2 1    
     5    6    5 1    
     6    7    6 1    
     7   22    6 1    
     8   23    6 1    
     9    8    7 1    
    10    9    7 1    
    11   24    7 1    
    12   13    8 1    
    13   10    9 1    
    14   11    9 1    
    15   25    9 1    
    16   32   10 1    
    17   12   11 1    
    18   13   11 1    
    19   26   11 1    
    20   33   12 1    
    21   14   13 1    
    22   27   13 1    
    23   15   14 am   
    24   19   14 1    
    25   16   15 1    
    26   20   15 2    
    27   17   16 2    
    28   18   17 1    
    29   21   17 1    
    30   19   18 2    
    31   28   18 1    
    32   29   19 1    
    33   30   21 1    
    34   31   21 1    
@<TRIPOS>SUBSTRUCTURE
     1 C5P1427     1 GROUP   
@<TRIPOS>SET

