#    Name: 3dgz_FAD_2_INTS_M
#    Modification time : Mon Mar 24 23:21:13 2014

@<TRIPOS>MOLECULE
3dgz_FAD_2_INTS_M
  125     0     9     0     0
SMALL
NO_CHARGES


@<TRIPOS>ATOM
      1 N          89.5710  101.3535  -50.8525 N.am      2 SEC2        0.0000 
      2 N          89.5170  102.7360  -50.9670 N.am      8 SEL2        0.0000 
      3 N          89.6250   99.9710  -50.7380 N.am      5 SEP2        0.0000 
      4 N          88.1995  102.0385  -50.0575 N.am      2 SEC2        0.0000 
      5 N          86.8820  101.3410  -49.1480 N.am      5 SEP2        0.0000 
      6 N          92.1020  101.6165  -51.2815 N.am      2 SEC2        0.0000 
      7 N          91.8680  102.7680  -51.7000 N.am      8 SEL2        0.0000 
      8 N          92.3360  100.4650  -50.8630 N.am      5 SEP2        0.0000 
      9 CA         91.6825  104.7185  -55.5410 C.3       3 GLC5        0.0000 
     10 CA         90.6710  103.3630  -54.4980 C.3       9 GLL5        0.0000 
     11 CA         92.6940  106.0740  -56.5840 C.3       6 GLP5        0.0000 
     12 CA         92.3450  104.2450  -53.7960 C.3       3 GLC5        0.0000 
     13 CA         94.0190  105.1270  -53.0940 C.3       6 GLP5        0.0000 
     14 O          88.5695  100.7795  -56.8555 O.2       1 ALC1        0.0000 
     15 O          89.2250  100.3820  -55.7680 O.2       7 ALL1        0.0000 
     16 O          87.9140  101.1770  -57.9430 O.2       4 ALP1        0.0000 
     17 O          91.3665   99.3060  -58.4095 O.2       1 ALC1        0.0000 
     18 O          91.6560   99.5990  -56.9200 O.2       7 ALL1        0.0000 
     19 O          91.0770   99.0130  -59.8990 O.2       4 ALP1        0.0000 
     20 CA         89.7610  103.4720  -57.8025 C.3       3 GLC5        0.0000 
     21 CA         90.9090  101.8270  -57.5840 C.3       9 GLL5        0.0000 
     22 CA         88.6130  105.1170  -58.0210 C.3       6 GLP5        0.0000 
     23 CA         91.5405  105.1130  -62.0560 C.3       3 GLC5        0.0000 
     24 CA         92.4610  103.3340  -61.9940 C.3       9 GLL5        0.0000 
     25 CA         90.6200  106.8920  -62.1180 C.3       6 GLP5        0.0000 
     26 CA         93.7280  105.0555  -62.2840 C.3       3 GLC5        0.0000 
     27 CA         94.9950  106.7770  -62.5740 C.3       6 GLP5        0.0000 
     28 O          93.6530  104.1585  -64.0750 O.2       1 ALC1        0.0000 
     29 O          93.5470  103.5870  -62.7610 O.2       7 ALL1        0.0000 
     30 O          93.7590  104.7300  -65.3890 O.2       4 ALP1        0.0000 
     31 N          91.3345  103.1370  -64.1665 N.am      2 SEC2        0.0000 
     32 N          91.2550  103.1000  -62.6130 N.am      8 SEL2        0.0000 
     33 N          91.4140  103.1740  -65.7200 N.am      5 SEP2        0.0000 
     34 CA         90.3785  104.7700  -62.0345 C.3       3 GLC5        0.0000 
     35 CA         90.1370  102.6480  -61.9510 C.3       9 GLL5        0.0000 
     36 CA         88.4595  103.5545  -63.0530 C.3       3 GLC5        0.0000 
     37 CA         86.7820  104.4610  -64.1550 C.3       6 GLP5        0.0000 
     38 CA         88.5185  101.9645  -61.3790 C.3       3 GLC5        0.0000 
     39 CA         86.9000  101.2810  -60.8070 C.3       6 GLP5        0.0000 
     40 CA         90.1585  100.7610  -62.3955 C.3       3 GLC5        0.0000 
     41 CA         90.1800   98.8740  -62.8400 C.3       6 GLP5        0.0000 
     42 CA         90.7830  101.6895  -63.7825 C.3       3 GLC5        0.0000 
     43 CA         91.4290  100.7310  -65.6140 C.3       6 GLP5        0.0000 
     44 N          89.4640  101.0480  -60.8380 N.am      2 SEC2        0.0000 
     45 N          90.2350  102.3480  -60.6110 N.am      8 SEL2        0.0000 
     46 N          88.6930   99.7480  -61.0650 N.am      5 SEP2        0.0000 
     47 CA         90.0230  103.8205  -58.9890 C.3       3 GLC5        0.0000 
     48 CA         91.4330  102.5240  -59.9570 C.3       9 GLL5        0.0000 
     49 N          89.4940  105.5375  -42.5505 N.am      2 SEC2        0.0000 
     50 N          89.6360  104.7760  -41.2410 N.am      8 SEL2        0.0000 
     51 N          89.3520  106.2990  -43.8600 N.am      5 SEP2        0.0000 
     52 N          91.1950   99.6330  -39.2230 N.am      2 SEC2        0.0000 
     53 N          90.4460  100.7140  -39.3730 N.am      8 SEL2        0.0000 
     54 N          91.9440   98.5520  -39.0730 N.am      5 SEP2        0.0000 
     55 N          92.0800   99.3025  -40.2565 N.am      2 SEC2        0.0000 
     56 N          92.2160  100.0530  -41.4400 N.am      8 SEL2        0.0000 
     57 CA         91.0270   99.0875  -42.3430 C.3       3 GLC5        0.0000 
     58 CA         92.9470   99.7490  -42.5810 C.3       9 GLL5        0.0000 
     59 CA         89.1070   98.4260  -42.1050 C.3       6 GLP5        0.0000 
     60 CA         93.0070   97.0370  -41.0905 C.3       3 GLC5        0.0000 
     61 CA         93.6190   98.5250  -42.6380 C.3       9 GLL5        0.0000 
     62 CA         92.3950   95.5490  -39.5430 C.3       6 GLP5        0.0000 
     63 CA         96.0920   95.5965  -44.8570 C.3       3 GLC5        0.0000 
     64 CA         94.9130   96.8030  -43.8930 C.3       9 GLL5        0.0000 
     65 CA         97.2710   94.3900  -45.8210 C.3       6 GLP5        0.0000 
     66 CA         94.0760   94.9895  -44.3000 C.3       3 GLC5        0.0000 
     67 CA         93.2390   93.1760  -44.7070 C.3       6 GLP5        0.0000 
     68 CA         96.8530   96.6730  -43.3530 C.3       3 GLC5        0.0000 
     69 CA         98.7930   96.5430  -42.8130 C.3       6 GLP5        0.0000 
     70 CA         96.8000  100.0075  -46.7735 C.3       3 GLC5        0.0000 
     71 CA         95.4360   98.7890  -45.9470 C.3       9 GLL5        0.0000 
     72 CA         98.1640  101.2260  -47.6000 C.3       6 GLP5        0.0000 
     73 CA         90.8910  100.8525  -43.4065 C.3       3 GLC5        0.0000 
     74 CA         93.0780  100.6610  -43.6270 C.3       9 GLL5        0.0000 
     75 CA         88.7040  101.0440  -43.1860 C.3       6 GLP5        0.0000 
     76 CA         89.6270  102.0695  -45.7820 C.3       3 GLC5        0.0000 
     77 CA         91.5260  103.1490  -45.3940 C.3       9 GLL5        0.0000 
     78 CA         87.7280  100.9900  -46.1700 C.3       6 GLP5        0.0000 
     79 CA         90.1150  102.0965  -44.2900 C.3       3 GLC5        0.0000 
     80 CA         89.5110  103.9880  -44.9070 C.3       3 GLC5        0.0000 
     81 CA         87.4960  104.8270  -44.4200 C.3       6 GLP5        0.0000 
     82 CA         91.6760  105.6815  -44.8390 C.3       3 GLC5        0.0000 
     83 CA         91.8360  104.1750  -46.4610 C.3       9 GLL5        0.0000 
     84 CA         91.5160  107.1880  -43.2170 C.3       6 GLP5        0.0000 
     85 O          93.1925  106.0630  -46.6950 O.2       1 ALC1        0.0000 
     86 O          92.3270  105.3280  -45.7780 O.2       7 ALL1        0.0000 
     87 O          94.0580  106.7980  -47.6120 O.2       4 ALP1        0.0000 
     88 CA         89.4325  105.3100  -46.0500 C.3       3 GLC5        0.0000 
     89 CA         90.6950  104.3950  -47.4560 C.3       9 GLL5        0.0000 
     90 CA         88.1700  106.2250  -44.6440 C.3       6 GLP5        0.0000 
     91 N          89.6715  101.5685  -47.9440 N.am      2 SEC2        0.0000 
     92 N          90.1740  103.2020  -48.0220 N.am      8 SEL2        0.0000 
     93 N          89.1690   99.9350  -47.8660 N.am      5 SEP2        0.0000 
     94 CA         93.0850  105.9980  -49.2225 C.3       3 GLC5        0.0000 
     95 CA         91.1650  105.2420  -48.6390 C.3       9 GLL5        0.0000 
     96 CA         95.0050  106.7540  -49.8060 C.3       6 GLP5        0.0000 
     97 N          87.7360  107.2265  -51.0570 N.am      2 SEC2        0.0000 
     98 N          89.0330  106.9000  -51.3090 N.am      8 SEL2        0.0000 
     99 N          86.4390  107.5530  -50.8050 N.am      5 SEP2        0.0000 
    100 N          92.4570  107.9135  -50.2310 N.am      2 SEC2        0.0000 
    101 N          91.3620  107.0890  -50.8290 N.am      8 SEL2        0.0000 
    102 N          93.5520  108.7380  -49.6330 N.am      5 SEP2        0.0000 
    103 CA         89.4665  104.0258  -56.5185 C.3       3 GLC5        0.0000 
    104 CA         88.4755  103.2728  -54.0910 C.3       3 GLC5        0.0000 
    105 CA         89.9690  102.5060  -55.5340 C.3       9 GLL5        0.0000 
    106 CA         86.6310  103.6110  -53.1660 C.3       6 GLP5        0.0000 
    107 CA         89.0422  100.9828  -53.9495 C.3       3 GLC5        0.0000 
    108 CA         87.8970  100.1780  -52.4230 C.3       6 GLP5        0.0000 
    109 CA         92.3915  104.6621  -59.8900 C.3       3 GLC5        0.0000 
    110 CA         92.5570  103.0190  -60.6280 C.3       9 GLL5        0.0000 
    111 CA         92.8120  106.4740  -59.1460 C.3       6 GLP5        0.0000 
    112 CA         92.2645   98.2665  -43.8518 C.3       3 GLC5        0.0000 
    113 CA         91.2460   97.3960  -45.0940 C.3       6 GLP5        0.0000 
    114 CA         92.9480   97.4530  -44.4617 C.3       3 GLC5        0.0000 
    115 CA         94.3870   98.2170  -43.7660 C.3       9 GLL5        0.0000 
    116 CA         93.1100   98.1783  -45.2440 C.3       3 GLC5        0.0000 
    117 CA         96.5444   98.8129  -43.7711 C.3       3 GLC5        0.0000 
    118 CA         98.1460   98.8940  -42.4170 C.3       6 GLP5        0.0000 
    119 CA         93.5505   99.7199  -46.8443 C.3       3 GLC5        0.0000 
    120 CA         94.5120   99.1320  -44.8410 C.3       9 GLL5        0.0000 
    121 CA         92.6770   99.7710  -48.5910 C.3       6 GLP5        0.0000 
    122 CA         92.3610   98.9575  -44.6540 C.3       3 GLC5        0.0000 
    123 CA         93.8740  100.3770  -44.8010 C.3       9 GLL5        0.0000 
    124 CA         88.8240  105.1238  -48.3423 C.3       3 GLC5        0.0000 
    125 CA         86.7180  105.4290  -48.6370 C.3       6 GLP5        0.0000 
@<TRIPOS>BOND
@<TRIPOS>SUBSTRUCTURE
     1 ALC1       14 GROUP        1 X    ALC  0     ROOT ALC X 1
     2 SEC2        1 GROUP        1 X    SEC  0     **** SEC X 2
     3 GLC5        9 GROUP        1 X    GLC  0     **** GLC X 6
     4 ALP1       16 GROUP        1 Y    ALP  0     ROOT ALP Y 8
     5 SEP2        3 GROUP        1 Y    SEP  0     **** SEP Y 9
     6 GLP5       11 GROUP        1 Y    GLP  0     **** GLP Y 13
     7 ALL1       15 GROUP        1 Z    ALL  0     ROOT ALL Z 15
     8 SEL2        2 GROUP        1 Z    SEL  0     **** SEL Z 16
     9 GLL5       10 GROUP        1 Z    GLL  0     **** GLL Z 20
@<TRIPOS>SET

