#    Name: 3dgz_FAD_2_ligand
#    Modification time : Mon Mar 24 23:21:13 2014

@<TRIPOS>MOLECULE
3dgz_FAD_2_ligand
   84    89     1     0     0
SMALL
NO_CHARGES


@<TRIPOS>ATOM
      1 PA         90.5110  103.3640  -51.8760 P.3       1 FAD500      0.0000 
      2 O1A        89.5170  102.7360  -50.9670 O.co2     1 FAD500      0.0000 
      3 O2A        91.8680  102.7680  -51.7000 O.co2     1 FAD500      0.0000 
      4 O5B        89.9280  103.1880  -53.3590 O.3       1 FAD500      0.0000 
      5 C5B        90.6710  103.3630  -54.4980 C.3       1 FAD500      0.0000 
      6 C4B        89.9690  102.5060  -55.5340 C.3       1 FAD500      0.0000 
      7 O4B        90.4310  102.9110  -56.8190 O.3       1 FAD500      0.0000 
      8 C3B        90.4060  101.0690  -55.4180 C.3       1 FAD500      0.0000 
      9 O3B        89.2250  100.3820  -55.7680 O.3       1 FAD500      0.0000 
     10 C2B        91.4970  100.9360  -56.5020 C.3       1 FAD500      0.0000 
     11 O2B        91.6560   99.5990  -56.9200 O.3       1 FAD500      0.0000 
     12 C1B        90.9090  101.8270  -57.5840 C.3       1 FAD500      0.0000 
     13 N9A        91.8040  102.3420  -58.6570 N.pl3     1 FAD500      0.0000 
     14 C8A        93.1430  102.6990  -58.5450 C.2       1 FAD500      0.0000 
     15 N7A        93.5700  103.0980  -59.7260 N.2       1 FAD500      0.0000 
     16 C5A        92.5570  103.0190  -60.6280 C.ar      1 FAD500      0.0000 
     17 C6A        92.4610  103.3340  -61.9940 C.ar      1 FAD500      0.0000 
     18 N6A        93.5470  103.5870  -62.7610 N.pl3     1 FAD500      0.0000 
     19 N1A        91.2550  103.1000  -62.6130 N.ar      1 FAD500      0.0000 
     20 C2A        90.1370  102.6480  -61.9510 C.ar      1 FAD500      0.0000 
     21 N3A        90.2350  102.3480  -60.6110 N.ar      1 FAD500      0.0000 
     22 C4A        91.4330  102.5240  -59.9570 C.ar      1 FAD500      0.0000 
     23 N1         91.0300  103.3950  -42.3410 N.2       1 FAD500      0.0000 
     24 C2         90.1980  103.6910  -41.2540 C.2       1 FAD500      0.0000 
     25 O2         89.6360  104.7760  -41.2410 O.2       1 FAD500      0.0000 
     26 N3         90.0250  102.7810  -40.1960 N.am      1 FAD500      0.0000 
     27 C4         90.7020  101.5680  -40.2210 C.2       1 FAD500      0.0000 
     28 O4         90.4460  100.7140  -39.3730 O.2       1 FAD500      0.0000 
     29 C4X        91.5370  101.2600  -41.3360 C.2       1 FAD500      0.0000 
     30 N5         92.2160  100.0530  -41.4400 N.2       1 FAD500      0.0000 
     31 C5X        92.9470   99.7490  -42.5810 C.ar      1 FAD500      0.0000 
     32 C6         93.6190   98.5250  -42.6380 C.ar      1 FAD500      0.0000 
     33 C7         94.3870   98.2170  -43.7660 C.ar      1 FAD500      0.0000 
     34 C7M        94.9130   96.8030  -43.8930 C.3       1 FAD500      0.0000 
     35 C8         94.5120   99.1320  -44.8410 C.ar      1 FAD500      0.0000 
     36 C8M        95.4360   98.7890  -45.9470 C.3       1 FAD500      0.0000 
     37 C9         93.8740  100.3770  -44.8010 C.ar      1 FAD500      0.0000 
     38 C9A        93.0780  100.6610  -43.6270 C.ar      1 FAD500      0.0000 
     39 N10        92.4250  101.8820  -43.5100 N.pl3     1 FAD500      0.0000 
     40 C10        91.6710  102.1760  -42.4040 C.2       1 FAD500      0.0000 
     41 C1'        92.7730  102.9630  -44.5300 C.3       1 FAD500      0.0000 
     42 C2'        91.5260  103.1490  -45.3940 C.3       1 FAD500      0.0000 
     43 O2'        91.1730  101.9210  -45.9860 O.3       1 FAD500      0.0000 
     44 C3'        91.8360  104.1750  -46.4610 C.3       1 FAD500      0.0000 
     45 O3'        92.3270  105.3280  -45.7780 O.3       1 FAD500      0.0000 
     46 C4'        90.6950  104.3950  -47.4560 C.3       1 FAD500      0.0000 
     47 O4'        90.1740  103.2020  -48.0220 O.3       1 FAD500      0.0000 
     48 C5'        91.1650  105.2420  -48.6390 C.3       1 FAD500      0.0000 
     49 O5'        90.0800  105.4040  -49.5200 O.3       1 FAD500      0.0000 
     50 P          90.2310  106.1290  -50.9150 P.3       1 FAD500      0.0000 
     51 O1P        89.0330  106.9000  -51.3090 O.co2     1 FAD500      0.0000 
     52 O2P        91.3620  107.0890  -50.8290 O.co2     1 FAD500      0.0000 
     53 O3P        90.7060  104.9730  -51.8830 O.3       1 FAD500      0.0000 
     54 H          91.6888  103.0036  -54.4112 H         1 FAD500      0.0000 
     55 H          90.6717  104.3826  -54.8628 H         1 FAD500      0.0000 
     56 H          88.9331  102.5800  -55.4417 H         1 FAD500      0.0000 
     57 H          90.7741  100.8890  -54.4900 H         1 FAD500      0.0000 
     58 H          92.3678  101.4038  -56.1269 H         1 FAD500      0.0000 
     59 H          90.0563  101.3056  -58.0115 H         1 FAD500      0.0000 
     60 H          93.6403  102.6479  -57.7194 H         1 FAD500      0.0000 
     61 H          94.4346  103.5044  -62.3079 H         1 FAD500      0.0000 
     62 H          93.3655  103.8341  -63.7129 H         1 FAD500      0.0000 
     63 H          89.2466  102.5364  -62.4462 H         1 FAD500      0.0000 
     64 H          89.4049  103.0170  -39.4187 H         1 FAD500      0.0000 
     65 H          93.5506   97.8619  -41.8647 H         1 FAD500      0.0000 
     66 H          93.9499  101.0475  -45.5307 H         1 FAD500      0.0000 
     67 H          93.5872  102.6341  -45.1405 H         1 FAD500      0.0000 
     68 H          92.9988  103.8775  -44.0235 H         1 FAD500      0.0000 
     69 H          90.7452  103.5377  -44.7646 H         1 FAD500      0.0000 
     70 H          92.6958  103.7286  -47.0457 H         1 FAD500      0.0000 
     71 H          89.9081  104.9641  -46.9627 H         1 FAD500      0.0000 
     72 H          92.0058  104.7216  -49.1029 H         1 FAD500      0.0000 
     73 H          91.5251  106.1930  -48.2404 H         1 FAD500      0.0000 
     74 H          95.4518   96.6806  -44.7265 H         1 FAD500      0.0000 
     75 H          95.5024   96.5555  -43.1240 H         1 FAD500      0.0000 
     76 H          94.1719   96.1322  -43.9219 H         1 FAD500      0.0000 
     77 H          96.3760   98.6776  -45.6246 H         1 FAD500      0.0000 
     78 H          95.1768   97.9338  -46.3958 H         1 FAD500      0.0000 
     79 H          95.4501   99.4976  -46.6524 H         1 FAD500      0.0000 
     80 H          88.9122  100.8184  -56.6116 H         1 FAD500      0.0000 
     81 H          91.4170   99.6014  -57.8910 H         1 FAD500      0.0000 
     82 H          90.7585  102.1660  -46.8625 H         1 FAD500      0.0000 
     83 H          92.8836  105.8114  -46.4537 H         1 FAD500      0.0000 
     84 H          90.0791  103.3986  -48.9979 H         1 FAD500      0.0000 
@<TRIPOS>BOND
     1    2    1 ar   
     2    3    1 ar   
     3    4    1 1    
     4   53    1 1    
     5    5    4 1    
     6    6    5 1    
     7   54    5 1    
     8   55    5 1    
     9    7    6 1    
    10    8    6 1    
    11   56    6 1    
    12   12    7 1    
    13    9    8 1    
    14   10    8 1    
    15   57    8 1    
    16   80    9 1    
    17   11   10 1    
    18   12   10 1    
    19   58   10 1    
    20   81   11 1    
    21   13   12 1    
    22   59   12 1    
    23   14   13 1    
    24   22   13 1    
    25   15   14 2    
    26   60   14 1    
    27   16   15 1    
    28   17   16 ar   
    29   22   16 ar   
    30   18   17 1    
    31   19   17 ar   
    32   61   18 1    
    33   62   18 1    
    34   20   19 ar   
    35   21   20 ar   
    36   63   20 1    
    37   22   21 ar   
    38   24   23 1    
    39   40   23 2    
    40   25   24 2    
    41   26   24 am   
    42   27   26 am   
    43   64   26 1    
    44   28   27 2    
    45   29   27 1    
    46   30   29 2    
    47   40   29 1    
    48   31   30 1    
    49   32   31 ar   
    50   38   31 ar   
    51   33   32 ar   
    52   65   32 1    
    53   34   33 1    
    54   35   33 ar   
    55   74   34 1    
    56   75   34 1    
    57   76   34 1    
    58   36   35 1    
    59   37   35 ar   
    60   77   36 1    
    61   78   36 1    
    62   79   36 1    
    63   38   37 ar   
    64   66   37 1    
    65   39   38 1    
    66   40   39 1    
    67   41   39 1    
    68   42   41 1    
    69   67   41 1    
    70   68   41 1    
    71   43   42 1    
    72   44   42 1    
    73   69   42 1    
    74   82   43 1    
    75   45   44 1    
    76   46   44 1    
    77   70   44 1    
    78   83   45 1    
    79   47   46 1    
    80   48   46 1    
    81   71   46 1    
    82   84   47 1    
    83   49   48 1    
    84   72   48 1    
    85   73   48 1    
    86   50   49 1    
    87   51   50 ar   
    88   52   50 ar   
    89   53   50 1    
@<TRIPOS>SUBSTRUCTURE
     1 FAD500      1 GROUP   
@<TRIPOS>SET

