#    Name: 4gol_SA8_1_INTS_M
#    Modification time : Mon Mar 24 23:26:36 2014

@<TRIPOS>MOLECULE
4gol_SA8_1_INTS_M
   65     0    12     0     0
SMALL
NO_CHARGES


@<TRIPOS>ATOM
      1 OD1        68.3055    1.4175   60.4110 O.co2     3 ASC3        0.0000 
      2 OD1        69.3130    2.1450   60.8610 O.co2    11 ASL3        0.0000 
      3 OD1        67.2980    0.6900   59.9610 O.co2     7 ASP3        0.0000 
      4 OD1        67.5290    2.1460   60.2335 O.co2     3 ASC3        0.0000 
      5 OD1        65.7450    2.1470   59.6060 O.co2     7 ASP3        0.0000 
      6 O          68.3055    1.4175   60.4110 O.2       1 ALC1        0.0000 
      7 O          69.3130    2.1450   60.8610 O.2       9 ALL1        0.0000 
      8 O          67.2980    0.6900   59.9610 O.2       5 ALP1        0.0000 
      9 O          69.2905    0.8605   61.8905 O.2       1 ALC1        0.0000 
     10 O          69.2680   -0.4240   62.9200 O.2       5 ALP1        0.0000 
     11 CA         70.7230    3.5870   60.3590 C.3       4 GLC5        0.0000 
     12 CA         69.0950    3.4900   61.3740 C.3      12 GLL5        0.0000 
     13 CA         72.3510    3.6840   59.3440 C.3       8 GLP5        0.0000 
     14 N          71.5345    1.8445   63.2980 N.am      2 SEC2        0.0000 
     15 N          70.8890    3.0470   62.9600 N.am     10 SEL2        0.0000 
     16 N          72.1800    0.6420   63.6360 N.am      6 SEP2        0.0000 
     17 CA         68.8490    1.6640   64.2130 C.3       4 GLC5        0.0000 
     18 CA         67.3000    2.7470   63.1820 C.3      12 GLL5        0.0000 
     19 CA         70.3980    0.5810   65.2440 C.3       8 GLP5        0.0000 
     20 CA         64.9065    6.1435   64.3685 C.3       4 GLC5        0.0000 
     21 CA         66.0410    4.5450   64.1530 C.3      12 GLL5        0.0000 
     22 CA         63.7720    7.7420   64.5840 C.3       8 GLP5        0.0000 
     23 CA         67.3135    6.2960   63.7440 C.3       4 GLC5        0.0000 
     24 CA         68.5860    8.0470   63.3350 C.3       8 GLP5        0.0000 
     25 CA         67.5155    0.8450   65.9170 C.3       4 GLC5        0.0000 
     26 CA         66.2640    2.4530   65.2950 C.3      12 GLL5        0.0000 
     27 CA         68.7670   -0.7630   66.5390 C.3       8 GLP5        0.0000 
     28 N          63.8220    5.7690   66.4775 N.am      2 SEC2        0.0000 
     29 N          63.9490    4.2910   67.0830 N.am     10 SEL2        0.0000 
     30 N          63.6950    7.2470   65.8720 N.am      6 SEP2        0.0000 
     31 O          62.7970    3.6810   67.3295 O.2       1 ALC1        0.0000 
     32 O          63.9490    4.2910   67.0830 O.2       9 ALL1        0.0000 
     33 O          61.6450    3.0710   67.5760 O.2       5 ALP1        0.0000 
     34 O          63.1195    3.6320   69.5620 O.2       1 ALC1        0.0000 
     35 O          64.5020    3.9160   69.3440 O.2       9 ALL1        0.0000 
     36 O          61.7370    3.3480   69.7800 O.2       5 ALP1        0.0000 
     37 O          63.0735    3.4935   68.4600 O.2       1 ALC1        0.0000 
     38 CA         64.8550    0.0230   67.4620 C.3       4 GLC5        0.0000 
     39 CA         64.8580    1.7290   68.3530 C.3      12 GLL5        0.0000 
     40 CA         64.8520   -1.6830   66.5710 C.3       8 GLP5        0.0000 
     41 CA         64.4970    1.6395   70.5550 C.3       4 GLC5        0.0000 
     42 CA         64.1360    1.5500   72.7570 C.3       8 GLP5        0.0000 
     43 CA         64.1225   -0.9225   72.0330 C.3       4 GLC5        0.0000 
     44 CA         65.1580   -2.3000   71.0480 C.3      12 GLL5        0.0000 
     45 CA         63.0870    0.4550   73.0180 C.3       8 GLP5        0.0000 
     46 CA         63.3805   -3.4085   71.8640 C.3       4 GLC5        0.0000 
     47 CA         61.6030   -4.5170   72.6800 C.3       8 GLP5        0.0000 
     48 N          63.0910   -4.1495   70.6535 N.am      2 SEC2        0.0000 
     49 N          63.9230   -2.7200   70.7260 N.am     10 SEL2        0.0000 
     50 N          62.2590   -5.5790   70.5810 N.am      6 SEP2        0.0000 
     51 CA         61.4640   -0.5980   69.6640 C.3       4 GLC5        0.0000 
     52 CA         63.1010   -2.0050   69.9180 C.3      12 GLL5        0.0000 
     53 CA         59.8270    0.8090   69.4100 C.3       8 GLP5        0.0000 
     54 CA         63.0940   -0.7750   71.4680 C.3       4 GLC5        0.0000 
     55 CA         62.3520   -3.2610   71.2990 C.3       4 GLC5        0.0000 
     56 CA         62.5750   -4.1535   69.6180 C.3       4 GLC5        0.0000 
     57 CA         62.0490   -6.3020   69.3180 C.3       8 GLP5        0.0000 
     58 N          62.3945    0.0095   70.3590 N.am      2 SEC2        0.0000 
     59 N          63.4710   -0.8460   69.3900 N.am     10 SEL2        0.0000 
     60 N          61.3180    0.8650   71.3280 N.am      6 SEP2        0.0000 
     61 CA         64.6132    0.8927   65.1993 C.3       4 GLC5        0.0000 
     62 CA         65.1550    2.4840   66.2120 C.3      12 GLL5        0.0000 
     63 CA         63.5170   -0.6830   64.6450 C.3       8 GLP5        0.0000 
     64 CA         64.6522    0.4052   71.4135 C.3       4 GLC5        0.0000 
     65 CA         64.7270   -0.3800   69.6410 C.3      12 GLL5        0.0000 
@<TRIPOS>BOND
@<TRIPOS>SUBSTRUCTURE
     1 ALC1        6 GROUP        1 X    ALC  0     ROOT ALC X 1
     2 SEC2       14 GROUP        1 X    SEC  0     **** SEC X 2
     3 ASC3        1 GROUP        1 X    ASC  0     **** ASC X 3
     4 GLC5       11 GROUP        1 X    GLC  0     **** GLC X 6
     5 ALP1        8 GROUP        1 Y    ALP  0     ROOT ALP Y 8
     6 SEP2       16 GROUP        1 Y    SEP  0     **** SEP Y 9
     7 ASP3        3 GROUP        1 Y    ASP  0     **** ASP Y 10
     8 GLP5       13 GROUP        1 Y    GLP  0     **** GLP Y 13
     9 ALL1        7 GROUP        1 Z    ALL  0     ROOT ALL Z 15
    10 SEL2       15 GROUP        1 Z    SEL  0     **** SEL Z 16
    11 ASL3        2 GROUP        1 Z    ASL  0     **** ASL Z 17
    12 GLL5       12 GROUP        1 Z    GLL  0     **** GLL Z 20
@<TRIPOS>SET

