#    Name: 4gol_SA8_1_ligand
#    Modification time : Mon Mar 24 23:26:36 2014

@<TRIPOS>MOLECULE
4gol_SA8_1_ligand
   50    52     1     0     0
SMALL
NO_CHARGES


@<TRIPOS>ATOM
      1 N          69.3130    2.1450   60.8610 N.4       1 SA8301      0.0000 
      2 CA         69.0950    3.4900   61.3740 C.3       1 SA8301      0.0000 
      3 C          70.1770    3.9220   62.3720 C.2       1 SA8301      0.0000 
      4 O          70.3660    5.1700   62.6330 O.co2     1 SA8301      0.0000 
      5 OXT        70.8890    3.0470   62.9600 O.co2     1 SA8301      0.0000 
      6 CB         67.6920    3.6010   61.9450 C.3       1 SA8301      0.0000 
      7 CG         67.3000    2.7470   63.1820 C.3       1 SA8301      0.0000 
      8 ND         66.0790    3.0940   63.9740 N.3       1 SA8301      0.0000 
      9 CE         66.0410    4.5450   64.1530 C.3       1 SA8301      0.0000 
     10 C5'        66.2640    2.4530   65.2950 C.3       1 SA8301      0.0000 
     11 C4'        65.1550    2.4840   66.2120 C.3       1 SA8301      0.0000 
     12 O4'        65.1940    1.3080   67.0580 O.3       1 SA8301      0.0000 
     13 C3'        65.1600    3.6710   67.1310 C.3       1 SA8301      0.0000 
     14 O3'        63.9490    4.2910   67.0830 O.3       1 SA8301      0.0000 
     15 C2'        65.3040    3.1640   68.4990 C.3       1 SA8301      0.0000 
     16 O2'        64.5020    3.9160   69.3440 O.3       1 SA8301      0.0000 
     17 C1'        64.8580    1.7290   68.3530 C.3       1 SA8301      0.0000 
     18 N9         65.4280    0.7230   69.2710 N.pl3     1 SA8301      0.0000 
     19 C8         66.6530    0.7040   69.8540 C.2       1 SA8301      0.0000 
     20 N7         66.7570   -0.4000   70.6170 N.2       1 SA8301      0.0000 
     21 C5         65.6100   -1.0990   70.4990 C.ar      1 SA8301      0.0000 
     22 C6         65.1580   -2.3000   71.0480 C.ar      1 SA8301      0.0000 
     23 N6         66.0110   -3.0340   71.9060 N.pl3     1 SA8301      0.0000 
     24 N1         63.9230   -2.7200   70.7260 N.ar      1 SA8301      0.0000 
     25 C2         63.1010   -2.0050   69.9180 C.ar      1 SA8301      0.0000 
     26 N3         63.4710   -0.8460   69.3900 N.ar      1 SA8301      0.0000 
     27 C4         64.7270   -0.3800   69.6410 C.ar      1 SA8301      0.0000 
     28 H          69.1450    4.2022   60.5185 H         1 SA8301      0.0000 
     29 H          66.9496    3.3744   61.1292 H         1 SA8301      0.0000 
     30 H          67.4888    4.6788   62.2005 H         1 SA8301      0.0000 
     31 H          68.1973    2.7303   63.8703 H         1 SA8301      0.0000 
     32 H          67.2240    1.6740   62.8326 H         1 SA8301      0.0000 
     33 H          67.1762    2.9142   65.7847 H         1 SA8301      0.0000 
     34 H          66.5861    1.3800   65.1229 H         1 SA8301      0.0000 
     35 H          64.2088    2.4852   65.6703 H         1 SA8301      0.0000 
     36 H          65.9765    4.2980   66.8935 H         1 SA8301      0.0000 
     37 H          66.3391    3.1676   68.7523 H         1 SA8301      0.0000 
     38 H          63.7577    1.7048   68.4454 H         1 SA8301      0.0000 
     39 H          67.3376    1.3787   69.7363 H         1 SA8301      0.0000 
     40 H          66.9278   -2.6583   72.0417 H         1 SA8301      0.0000 
     41 H          65.6247   -3.8662   72.3039 H         1 SA8301      0.0000 
     42 H          62.1394   -2.3942   69.7108 H         1 SA8301      0.0000 
     43 H          69.3109    1.4635   61.5929 H         1 SA8301      0.0000 
     44 H          68.6040    1.8768   60.2088 H         1 SA8301      0.0000 
     45 H          70.1909    2.0654   60.3888 H         1 SA8301      0.0000 
     46 H          66.8455    4.8799   64.6435 H         1 SA8301      0.0000 
     47 H          66.0102    5.0266   63.2771 H         1 SA8301      0.0000 
     48 H          65.2383    4.8339   64.6748 H         1 SA8301      0.0000 
     49 H          63.2854    3.5810   67.3187 H         1 SA8301      0.0000 
     50 H          63.5968    3.4954   69.2836 H         1 SA8301      0.0000 
@<TRIPOS>BOND
     1    2    1 1    
     2   43    1 1    
     3   44    1 1    
     4   45    1 1    
     5    3    2 1    
     6    6    2 1    
     7   28    2 1    
     8    4    3 ar   
     9    5    3 ar   
    10    7    6 1    
    11   29    6 1    
    12   30    6 1    
    13    8    7 1    
    14   31    7 1    
    15   32    7 1    
    16    9    8 1    
    17   10    8 1    
    18   46    9 1    
    19   47    9 1    
    20   48    9 1    
    21   11   10 1    
    22   33   10 1    
    23   34   10 1    
    24   12   11 1    
    25   13   11 1    
    26   35   11 1    
    27   17   12 1    
    28   14   13 1    
    29   15   13 1    
    30   36   13 1    
    31   49   14 1    
    32   16   15 1    
    33   17   15 1    
    34   37   15 1    
    35   50   16 1    
    36   18   17 1    
    37   38   17 1    
    38   19   18 1    
    39   27   18 1    
    40   20   19 2    
    41   39   19 1    
    42   21   20 1    
    43   22   21 ar   
    44   27   21 ar   
    45   23   22 1    
    46   24   22 ar   
    47   40   23 1    
    48   41   23 1    
    49   25   24 ar   
    50   26   25 ar   
    51   42   25 1    
    52   27   26 ar   
@<TRIPOS>SUBSTRUCTURE
     1 SA8301      1 GROUP   
@<TRIPOS>SET

