#    Name: 3b68_B68_1_INTS_M
#    Modification time : Mon Mar 24 18:54:28 2014

@<TRIPOS>MOLECULE
3b68_B68_1_INTS_M
   90     0     9     0     0
SMALL
NO_CHARGES


@<TRIPOS>ATOM
      1 CA         30.1150    1.7210   13.0325 C.3       3 GLC5        0.0000 
      2 CA         29.5300   -0.1530   14.0740 C.3       9 GLL5        0.0000 
      3 CA         30.7000    3.5950   11.9910 C.3       6 GLP5        0.0000 
      4 CA         31.4300    0.5975   14.3405 C.3       3 GLC5        0.0000 
      5 CA         33.3300    1.3480   14.6070 C.3       6 GLP5        0.0000 
      6 CA         30.4920   -0.9170   15.5915 C.3       3 GLC5        0.0000 
      7 CA         31.4540   -1.6810   17.1090 C.3       6 GLP5        0.0000 
      8 CA         29.9815   -1.8910   13.2340 C.3       3 GLC5        0.0000 
      9 CA         30.4330   -3.6290   12.3940 C.3       6 GLP5        0.0000 
     10 O          28.0530    0.9825   12.3385 O.2       1 ALC1        0.0000 
     11 O          29.2660    0.5970   11.7970 O.2       7 ALL1        0.0000 
     12 O          26.8400    1.3680   12.8800 O.2       4 ALP1        0.0000 
     13 CA         32.6240    0.9320    9.0670 C.3       3 GLC5        0.0000 
     14 CA         30.7030    0.3490    9.9050 C.3       9 GLL5        0.0000 
     15 CA         34.5450    1.5150    8.2290 C.3       6 GLP5        0.0000 
     16 CA         28.2165   -0.0315    6.6430 C.3       3 GLC5        0.0000 
     17 CA         29.9660    0.3720    5.6340 C.3       9 GLL5        0.0000 
     18 CA         26.4670   -0.4350    7.6520 C.3       6 GLP5        0.0000 
     19 CA         30.4565   -1.2915    6.3340 C.3       3 GLC5        0.0000 
     20 CA         30.9470   -2.9550    7.0340 C.3       6 GLP5        0.0000 
     21 CA         31.4065    1.7555    6.2120 C.3       3 GLC5        0.0000 
     22 CA         32.8470    3.1390    6.7900 C.3       6 GLP5        0.0000 
     23 N          31.9395    1.0495    3.5340 N.am      2 SEC2        0.0000 
     24 N          30.8080    1.6700    3.7880 N.am      8 SEL2        0.0000 
     25 N          33.0710    0.4290    3.2800 N.am      5 SEP2        0.0000 
     26 CA         30.1720   -1.1980    1.4590 C.3       3 GLC5        0.0000 
     27 CA         29.6590   -0.4110    3.2890 C.3       9 GLL5        0.0000 
     28 CA         30.6850   -1.9850   -0.3710 C.3       6 GLP5        0.0000 
     29 CA         29.0235   -2.3070    2.3630 C.3       3 GLC5        0.0000 
     30 CA         28.3880   -4.2030    1.4370 C.3       6 GLP5        0.0000 
     31 O          29.7820    3.6635    3.1685 O.2       1 ALC1        0.0000 
     32 O          28.5640    2.8920    3.8460 O.2       7 ALL1        0.0000 
     33 O          31.0000    4.4350    2.4910 O.2       4 ALP1        0.0000 
     34 CA         25.7285    2.1855    5.7470 C.3       3 GLC5        0.0000 
     35 CA         26.2350    3.4430    3.9690 C.3       9 GLL5        0.0000 
     36 CA         25.2220    0.9280    7.5250 C.3       6 GLP5        0.0000 
     37 CA         28.5495    6.8700    2.6050 C.3       3 GLC5        0.0000 
     38 CA         27.8860    5.0910    3.4350 C.3       9 GLL5        0.0000 
     39 CA         29.2130    8.6490    1.7750 C.3       6 GLP5        0.0000 
     40 CA         27.5130    7.1490    2.0720 C.3       3 GLC5        0.0000 
     41 CA         26.8720    6.0420    3.3750 C.3       9 GLL5        0.0000 
     42 CA         28.1540    8.2560    0.7690 C.3       6 GLP5        0.0000 
     43 N          25.8460    9.0355    3.5830 N.am      2 SEC2        0.0000 
     44 N          25.1230    8.0190    3.2620 N.am      8 SEL2        0.0000 
     45 N          26.5690   10.0520    3.9040 N.am      5 SEP2        0.0000 
     46 N          24.0775    9.1025    2.8960 N.am      2 SEC2        0.0000 
     47 N          23.0320   10.1860    2.5300 N.am      5 SEP2        0.0000 
     48 CA         26.0350    4.5940    5.6870 C.3       3 GLC5        0.0000 
     49 CA         25.2030    4.3800    3.9100 C.3       9 GLL5        0.0000 
     50 CA         26.8670    4.8080    7.4640 C.3       6 GLP5        0.0000 
     51 CA         24.2610    2.6275    6.4175 C.3       3 GLC5        0.0000 
     52 CA         23.3000    4.3270    5.3100 C.3       9 GLL5        0.0000 
     53 CA         21.7460    4.6275    5.9365 C.3       3 GLC5        0.0000 
     54 CA         20.1920    4.9280    6.5630 C.3       6 GLP5        0.0000 
     55 CA         21.5545    4.6190    4.8770 C.3       3 GLC5        0.0000 
     56 CA         22.9170    4.3100    3.1910 C.3       9 GLL5        0.0000 
     57 CA         21.6725    4.5600    1.9515 C.3       3 GLC5        0.0000 
     58 CA         20.4280    4.8100    0.7120 C.3       6 GLP5        0.0000 
     59 CA         24.4465    1.7500    5.8390 C.3       3 GLC5        0.0000 
     60 CA         23.6710    2.5720    4.1530 C.3       9 GLL5        0.0000 
     61 CA         23.0330    1.1605    4.7555 C.3       3 GLC5        0.0000 
     62 CA         22.3950   -0.2510    5.3580 C.3       6 GLP5        0.0000 
     63 CA         27.7652    0.3558    8.8867 C.3       3 GLC5        0.0000 
     64 CA         28.5950    1.4870    9.7360 C.3       9 GLL5        0.0000 
     65 CA         32.1420   -0.7578    9.6088 C.3       3 GLC5        0.0000 
     66 CA         30.9330    0.5700    8.5500 C.3       9 GLL5        0.0000 
     67 CA         33.4660   -1.9750    9.9900 C.3       6 GLP5        0.0000 
     68 CA         31.6545    2.0240    7.4780 C.3       3 GLC5        0.0000 
     69 CA         27.7873    3.2027    8.2610 C.3       3 GLC5        0.0000 
     70 CA         28.8200    1.7080    8.3800 C.3       9 GLL5        0.0000 
     71 CA         27.9363    0.5215    7.8665 C.3       3 GLC5        0.0000 
     72 CA         30.6758   -1.0506    7.7694 C.3       3 GLC5        0.0000 
     73 CA         29.9910    1.2480    7.7820 C.3       9 GLL5        0.0000 
     74 CA         27.1306    4.5789    5.5548 C.3       3 GLC5        0.0000 
     75 CA         27.5700    3.7740    3.7430 C.3       9 GLL5        0.0000 
     76 CA         27.5175    4.5156    1.5885 C.3       3 GLC5        0.0000 
     77 CA         27.7350    3.7940   -0.3050 C.3       6 GLP5        0.0000 
     78 CA         28.9640    5.7556    4.5095 C.3       3 GLC5        0.0000 
     79 CA         30.6280    6.2740    5.5370 C.3       6 GLP5        0.0000 
     80 CA         26.5832    6.2045    5.3785 C.3       3 GLC5        0.0000 
     81 CA         26.9590    6.5350    7.2600 C.3       6 GLP5        0.0000 
     82 CA         23.8918    5.2970    6.1072 C.3       3 GLC5        0.0000 
     83 CA         24.2550    6.4810    7.4910 C.3       6 GLP5        0.0000 
     84 CA         22.2770    2.8752    5.5355 C.3       3 GLC5        0.0000 
     85 CA         23.7570    3.8990    4.1370 C.3       9 GLL5        0.0000 
     86 CA         20.8400    2.5150    6.9260 C.3       6 GLP5        0.0000 
     87 CA         23.7415    3.6176    2.0687 C.3       3 GLC5        0.0000 
     88 CA         23.9790    3.8970    0.2290 C.3       6 GLP5        0.0000 
     89 CA         21.7650    2.6211    3.4817 C.3       3 GLC5        0.0000 
     90 CA         20.0260    1.9040    3.0550 C.3       6 GLP5        0.0000 
@<TRIPOS>BOND
@<TRIPOS>SUBSTRUCTURE
     1 ALC1       10 GROUP        1 X    ALC  0     ROOT ALC X 1
     2 SEC2       23 GROUP        1 X    SEC  0     **** SEC X 2
     3 GLC5        1 GROUP        1 X    GLC  0     **** GLC X 6
     4 ALP1       12 GROUP        1 Y    ALP  0     ROOT ALP Y 8
     5 SEP2       25 GROUP        1 Y    SEP  0     **** SEP Y 9
     6 GLP5        3 GROUP        1 Y    GLP  0     **** GLP Y 13
     7 ALL1       11 GROUP        1 Z    ALL  0     ROOT ALL Z 15
     8 SEL2       24 GROUP        1 Z    SEL  0     **** SEL Z 16
     9 GLL5        2 GROUP        1 Z    GLL  0     **** GLL Z 20
@<TRIPOS>SET

