#    Name: 3b68_B68_1_ligand
#    Modification time : Mon Mar 24 18:54:28 2014

@<TRIPOS>MOLECULE
3b68_B68_1_ligand
   49    50     1     0     0
SMALL
NO_CHARGES


@<TRIPOS>ATOM
      1 C24        29.5300   -0.1530   14.0740 C.3       1 B681        0.0000 
      2 C23        30.0740   -0.0310   12.6490 C.2       1 B681        0.0000 
      3 O23        31.1890   -0.4680   12.3650 O.2       1 B681        0.0000 
      4 N22        29.2660    0.5970   11.7970 N.am      1 B681        0.0000 
      5 C19        29.5320    0.8060   10.5070 C.ar      1 B681        0.0000 
      6 C18        30.7030    0.3490    9.9050 C.ar      1 B681        0.0000 
      7 C17        30.9330    0.5700    8.5500 C.ar      1 B681        0.0000 
      8 C20        28.5950    1.4870    9.7360 C.ar      1 B681        0.0000 
      9 C21        28.8200    1.7080    8.3800 C.ar      1 B681        0.0000 
     10 C16        29.9910    1.2480    7.7820 C.ar      1 B681        0.0000 
     11 O14        30.2290    1.5120    6.4680 O.3       1 B681        0.0000 
     12 C13        29.9660    0.3720    5.6340 C.3       1 B681        0.0000 
     13 C11        29.7360    0.8170    4.1980 C.3       1 B681        0.0000 
     14 O11        30.8080    1.6700    3.7880 O.3       1 B681        0.0000 
     15 C12        29.6590   -0.4110    3.2890 C.3       1 B681        0.0000 
     16 C10        28.4240    1.6000    4.1380 C.2       1 B681        0.0000 
     17 O10        27.3540    1.0420    4.3760 O.2       1 B681        0.0000 
     18 N9         28.5640    2.8920    3.8460 N.am      1 B681        0.0000 
     19 C6         27.5700    3.7740    3.7430 C.ar      1 B681        0.0000 
     20 C5         26.2350    3.4430    3.9690 C.ar      1 B681        0.0000 
     21 C1         27.8860    5.0910    3.4350 C.ar      1 B681        0.0000 
     22 C2         26.8720    6.0420    3.3750 C.ar      1 B681        0.0000 
     23 C3         25.5430    5.7060    3.6190 C.ar      1 B681        0.0000 
     24 N8         24.6680    6.7110    3.5770 N.pl3     1 B681        0.0000 
     25 O1         23.3010    6.5660    3.9340 O.2       1 B681        0.0000 
     26 O2         25.1230    8.0190    3.2620 O.2       1 B681        0.0000 
     27 C4         25.2030    4.3800    3.9100 C.ar      1 B681        0.0000 
     28 C7         23.7570    3.8990    4.1370 C.3       1 B681        0.0000 
     29 F2         23.3000    4.3270    5.3100 F         1 B681        0.0000 
     30 F1         22.9170    4.3100    3.1910 F         1 B681        0.0000 
     31 F3         23.6710    2.5720    4.1530 F         1 B681        0.0000 
     32 H          28.3242    0.9651   12.1785 H         1 B681        0.0000 
     33 H          31.4034   -0.1563   10.4679 H         1 B681        0.0000 
     34 H          31.8019    0.2311    8.1151 H         1 B681        0.0000 
     35 H          27.7258    1.8313   10.1727 H         1 B681        0.0000 
     36 H          28.1209    2.2116    7.8186 H         1 B681        0.0000 
     37 H          29.0734   -0.1715    5.9682 H         1 B681        0.0000 
     38 H          30.8075   -0.3320    5.6407 H         1 B681        0.0000 
     39 H          29.5716    3.2575    3.6778 H         1 B681        0.0000 
     40 H          25.9958    2.4486    4.1927 H         1 B681        0.0000 
     41 H          28.8575    5.3612    3.2533 H         1 B681        0.0000 
     42 H          27.1117    7.0256    3.1428 H         1 B681        0.0000 
     43 H          29.4587   -1.1074   14.3639 H         1 B681        0.0000 
     44 H          30.1173    0.3115   14.7368 H         1 B681        0.0000 
     45 H          28.6179    0.2481   14.1589 H         1 B681        0.0000 
     46 H          30.5017   -0.9485    3.3187 H         1 B681        0.0000 
     47 H          28.9123   -1.0218    3.5524 H         1 B681        0.0000 
     48 H          29.5069   -0.1571    2.3338 H         1 B681        0.0000 
     49 H          30.7359    1.7154    2.7917 H         1 B681        0.0000 
@<TRIPOS>BOND
     1    2    1 1    
     2   43    1 1    
     3   44    1 1    
     4   45    1 1    
     5    3    2 2    
     6    4    2 am   
     7    5    4 1    
     8   32    4 1    
     9    6    5 ar   
    10    8    5 ar   
    11    7    6 ar   
    12   33    6 1    
    13   10    7 ar   
    14   34    7 1    
    15    9    8 ar   
    16   35    8 1    
    17   10    9 ar   
    18   36    9 1    
    19   11   10 1    
    20   12   11 1    
    21   13   12 1    
    22   37   12 1    
    23   38   12 1    
    24   14   13 1    
    25   15   13 1    
    26   16   13 1    
    27   49   14 1    
    28   46   15 1    
    29   47   15 1    
    30   48   15 1    
    31   17   16 2    
    32   18   16 am   
    33   19   18 1    
    34   39   18 1    
    35   20   19 ar   
    36   21   19 ar   
    37   27   20 ar   
    38   40   20 1    
    39   22   21 ar   
    40   41   21 1    
    41   23   22 ar   
    42   42   22 1    
    43   24   23 1    
    44   27   23 ar   
    45   25   24 2    
    46   26   24 2    
    47   28   27 1    
    48   29   28 1    
    49   30   28 1    
    50   31   28 1    
@<TRIPOS>SUBSTRUCTURE
     1 B681        1 GROUP   
@<TRIPOS>SET

