#    Name: 3tba_ADP_2_INTS_M
#    Modification time : Mon Mar 24 19:27:55 2014

@<TRIPOS>MOLECULE
3tba_ADP_2_INTS_M
   54     0     9     0     0
SMALL
NO_CHARGES


@<TRIPOS>ATOM
      1 N          28.2525   52.8935   14.7280 N.am      2 SEC2        0.0000 
      2 N          28.1690   52.6040   16.4290 N.am      8 SEL2        0.0000 
      3 N          28.3360   53.1830   13.0270 N.am      5 SEP2        0.0000 
      4 N          29.3060   53.2890   15.6525 N.am      2 SEC2        0.0000 
      5 N          30.4430   53.9740   14.8760 N.am      5 SEP2        0.0000 
      6 N          29.4665   52.3385   16.6705 N.am      2 SEC2        0.0000 
      7 N          30.7640   52.0730   16.9120 N.am      5 SEP2        0.0000 
      8 N          27.4015   54.3585   19.6160 N.am      2 SEC2        0.0000 
      9 N          27.0680   53.0470   18.6890 N.am      8 SEL2        0.0000 
     10 N          27.7350   55.6700   20.5430 N.am      5 SEP2        0.0000 
     11 N          26.9890   55.6390   17.2470 N.am      2 SEC2        0.0000 
     12 N          26.5580   54.4990   16.6700 N.am      8 SEL2        0.0000 
     13 N          27.4200   56.7790   17.8240 N.am      5 SEP2        0.0000 
     14 N          26.6575   54.8340   15.1925 N.am      2 SEC2        0.0000 
     15 N          26.7570   55.1690   13.7150 N.am      5 SEP2        0.0000 
     16 CA         24.1260   48.0150   17.0400 C.3       3 GLC5        0.0000 
     17 CA         23.3520   49.6260   17.7870 C.3       9 GLL5        0.0000 
     18 CA         24.9000   46.4040   16.2930 C.3       6 GLP5        0.0000 
     19 CA         22.7010   51.2185   20.8985 C.3       3 GLC5        0.0000 
     20 CA         22.6010   50.0280   19.0530 C.3       9 GLL5        0.0000 
     21 CA         22.8010   52.4090   22.7440 C.3       6 GLP5        0.0000 
     22 CA         23.9200   49.3970   20.6535 C.3       3 GLC5        0.0000 
     23 CA         25.2390   48.7660   22.2540 C.3       6 GLP5        0.0000 
     24 CA         21.1590   49.0165   21.1815 C.3       3 GLC5        0.0000 
     25 CA         21.2340   49.3670   19.0930 C.3       9 GLL5        0.0000 
     26 CA         21.0840   48.6660   23.2700 C.3       6 GLP5        0.0000 
     27 O          22.1445   47.5085   20.1445 O.2       1 ALC1        0.0000 
     28 O          21.1630   48.5280   20.2510 O.2       7 ALL1        0.0000 
     29 O          23.1260   46.4890   20.0380 O.2       4 ALP1        0.0000 
     30 CA         18.4835   51.6810   19.5260 C.3       3 GLC5        0.0000 
     31 CA         20.2190   50.5130   19.1040 C.3       9 GLL5        0.0000 
     32 CA         16.7480   52.8490   19.9480 C.3       6 GLP5        0.0000 
     33 CA         18.6010   49.6875   18.3930 C.3       3 GLC5        0.0000 
     34 CA         16.9830   48.8620   17.6820 C.3       6 GLP5        0.0000 
     35 O          19.6115   51.4105   21.3310 O.2       1 ALC1        0.0000 
     36 O          19.4500   50.5550   20.3270 O.2       7 ALL1        0.0000 
     37 O          19.7730   52.2660   22.3350 O.2       4 ALP1        0.0000 
     38 CA         21.9215   52.0980   20.8040 C.3       3 GLC5        0.0000 
     39 CA         21.0420   51.7870   18.8640 C.3       9 GLL5        0.0000 
     40 CA         17.2270   53.9000   14.7105 C.3       3 GLC5        0.0000 
     41 CA         19.1690   54.3380   14.9730 C.3       9 GLL5        0.0000 
     42 CA         15.2850   53.4620   14.4480 C.3       6 GLP5        0.0000 
     43 CA         17.4330   53.7860   18.5080 C.3       3 GLC5        0.0000 
     44 CA         18.1180   54.7230   17.0680 C.3       9 GLL5        0.0000 
     45 CA         16.7015   54.0925   15.7580 C.3       3 GLC5        0.0000 
     46 CA         17.6240   52.9085   16.7765 C.3       3 GLC5        0.0000 
     47 CA         17.1300   51.0940   16.4850 C.3       6 GLP5        0.0000 
     48 CA         18.3375   53.0145   18.5155 C.3       3 GLC5        0.0000 
     49 CA         19.9270   53.1800   17.0830 C.3       9 GLL5        0.0000 
     50 CA         21.8822   48.8665   17.0315 C.3       3 GLC5        0.0000 
     51 CA         20.7880   47.9060   15.6430 C.3       6 GLP5        0.0000 
     52 CA         20.7573   48.9230   17.3708 C.3       3 GLC5        0.0000 
     53 CA         18.4564   52.3069   16.3382 C.3       3 GLC5        0.0000 
     54 CA         20.1080   53.3810   15.6270 C.3       9 GLL5        0.0000 
@<TRIPOS>BOND
@<TRIPOS>SUBSTRUCTURE
     1 ALC1       27 GROUP        1 X    ALC  0     ROOT ALC X 1
     2 SEC2        1 GROUP        1 X    SEC  0     **** SEC X 2
     3 GLC5       16 GROUP        1 X    GLC  0     **** GLC X 6
     4 ALP1       29 GROUP        1 Y    ALP  0     ROOT ALP Y 8
     5 SEP2        3 GROUP        1 Y    SEP  0     **** SEP Y 9
     6 GLP5       18 GROUP        1 Y    GLP  0     **** GLP Y 13
     7 ALL1       28 GROUP        1 Z    ALL  0     ROOT ALL Z 15
     8 SEL2        2 GROUP        1 Z    SEL  0     **** SEL Z 16
     9 GLL5       17 GROUP        1 Z    GLL  0     **** GLL Z 20
@<TRIPOS>SET

