#    Name: 3tba_ADP_2_ligand
#    Modification time : Mon Mar 24 19:27:55 2014

@<TRIPOS>MOLECULE
3tba_ADP_2_ligand
   39    41     1     0     0
SMALL
NO_CHARGES


@<TRIPOS>ATOM
      1 PB         26.9680   53.1360   17.1770 P.3       1 ADP891      0.0000 
      2 O1B        28.1690   52.6040   16.4290 O.co2     1 ADP891      0.0000 
      3 O2B        27.0680   53.0470   18.6890 O.co2     1 ADP891      0.0000 
      4 O3B        26.5580   54.4990   16.6700 O.co2     1 ADP891      0.0000 
      5 PA         25.5910   50.5440   16.6310 P.3       1 ADP891      0.0000 
      6 O1A        24.8550   50.2320   15.3380 O.co2     1 ADP891      0.0000 
      7 O2A        26.8880   49.8420   16.9440 O.co2     1 ADP891      0.0000 
      8 O3A        25.7110   52.1770   16.7430 O.3       1 ADP891      0.0000 
      9 O5'        24.6780   50.1680   17.9040 O.3       1 ADP891      0.0000 
     10 C5'        23.3520   49.6260   17.7870 C.3       1 ADP891      0.0000 
     11 C4'        22.6010   50.0280   19.0530 C.3       1 ADP891      0.0000 
     12 O4'        22.4150   51.4480   19.0910 O.3       1 ADP891      0.0000 
     13 C3'        21.2340   49.3670   19.0930 C.3       1 ADP891      0.0000 
     14 O3'        21.1630   48.5280   20.2510 O.3       1 ADP891      0.0000 
     15 C2'        20.2190   50.5130   19.1040 C.3       1 ADP891      0.0000 
     16 O2'        19.4500   50.5550   20.3270 O.3       1 ADP891      0.0000 
     17 C1'        21.0420   51.7870   18.8640 C.3       1 ADP891      0.0000 
     18 N9         20.8610   52.2930   17.4620 N.pl3     1 ADP891      0.0000 
     19 C8         21.5830   51.9560   16.3610 C.2       1 ADP891      0.0000 
     20 N7         21.1430   52.6020   15.2470 N.2       1 ADP891      0.0000 
     21 C5         20.1080   53.3810   15.6270 C.ar      1 ADP891      0.0000 
     22 C6         19.1690   54.3380   14.9730 C.ar      1 ADP891      0.0000 
     23 N6         19.2530   54.5970   13.6470 N.pl3     1 ADP891      0.0000 
     24 N1         18.2220   54.9520   15.7370 N.ar      1 ADP891      0.0000 
     25 C2         18.1180   54.7230   17.0680 C.ar      1 ADP891      0.0000 
     26 N3         18.9350   53.8700   17.7280 N.ar      1 ADP891      0.0000 
     27 C4         19.9270   53.1800   17.0830 C.ar      1 ADP891      0.0000 
     28 H          23.3624   48.5449   17.7282 H         1 ADP891      0.0000 
     29 H          22.8233   50.0350   16.9352 H         1 ADP891      0.0000 
     30 H          23.1642   49.6900   19.9076 H         1 ADP891      0.0000 
     31 H          21.1144   48.8183   18.1791 H         1 ADP891      0.0000 
     32 H          19.5826   50.3786   18.2315 H         1 ADP891      0.0000 
     33 H          20.7105   52.5302   19.5642 H         1 ADP891      0.0000 
     34 H          22.3348   51.3205   16.3676 H         1 ADP891      0.0000 
     35 H          19.9777   54.1192   13.1504 H         1 ADP891      0.0000 
     36 H          18.5829   55.2431   13.2816 H         1 ADP891      0.0000 
     37 H          17.3669   55.2323   17.6133 H         1 ADP891      0.0000 
     38 H          21.8423   47.8113   20.0932 H         1 ADP891      0.0000 
     39 H          19.4892   51.5089   20.6246 H         1 ADP891      0.0000 
@<TRIPOS>BOND
     1    2    1 ar   
     2    3    1 ar   
     3    4    1 ar   
     4    8    1 1    
     5    6    5 ar   
     6    7    5 ar   
     7    8    5 1    
     8    9    5 1    
     9   10    9 1    
    10   11   10 1    
    11   28   10 1    
    12   29   10 1    
    13   12   11 1    
    14   13   11 1    
    15   30   11 1    
    16   17   12 1    
    17   14   13 1    
    18   15   13 1    
    19   31   13 1    
    20   38   14 1    
    21   16   15 1    
    22   17   15 1    
    23   32   15 1    
    24   39   16 1    
    25   18   17 1    
    26   33   17 1    
    27   19   18 1    
    28   27   18 1    
    29   20   19 2    
    30   34   19 1    
    31   21   20 1    
    32   22   21 ar   
    33   27   21 ar   
    34   23   22 1    
    35   24   22 ar   
    36   35   23 1    
    37   36   23 1    
    38   25   24 ar   
    39   26   25 ar   
    40   37   25 1    
    41   27   26 ar   
@<TRIPOS>SUBSTRUCTURE
     1 ADP891      1 GROUP   
@<TRIPOS>SET

