#    Name: 2qs4_LY5_1_INTS_M
#    Modification time : Mon Mar 24 22:42:27 2014

@<TRIPOS>MOLECULE
2qs4_LY5_1_INTS_M
   65     0     9     0     0
SMALL
NO_CHARGES


@<TRIPOS>ATOM
      1 CA        -16.8755   28.2145  -14.5395 C.3       3 GLC5        0.0000 
      2 CA        -18.4920   26.9950  -15.4450 C.3       9 GLL5        0.0000 
      3 CA        -15.2590   29.4340  -13.6340 C.3       6 GLP5        0.0000 
      4 CA        -17.8415   26.3520  -13.4140 C.3       3 GLC5        0.0000 
      5 CA        -17.1910   25.7090  -11.3830 C.3       6 GLP5        0.0000 
      6 N         -21.4370   26.0595  -13.6780 N.am      1 SEC2        0.0000 
      7 N         -20.6850   26.9950  -14.4020 N.am      7 SEL2        0.0000 
      8 N         -22.1890   25.1240  -12.9540 N.am      4 SEP2        0.0000 
      9 N         -21.8900   27.5500  -13.5915 N.am      1 SEC2        0.0000 
     10 N         -23.0950   28.1050  -12.7810 N.am      4 SEP2        0.0000 
     11 N         -19.8560   28.3185  -12.3925 N.am      1 SEC2        0.0000 
     12 N         -19.1060   27.8060  -13.2780 N.am      7 SEL2        0.0000 
     13 N         -20.6060   28.8310  -11.5070 N.am      4 SEP2        0.0000 
     14 N         -18.1125   27.9415  -12.3380 N.am      1 SEC2        0.0000 
     15 N         -17.1190   28.0770  -11.3980 N.am      4 SEP2        0.0000 
     16 CA        -17.6880   25.1975  -13.2095 C.3       3 GLC5        0.0000 
     17 CA        -18.1850   24.6860  -15.0360 C.3       9 GLL5        0.0000 
     18 CA        -16.3890   20.2615  -16.7415 C.3       3 GLC5        0.0000 
     19 CA        -17.3550   20.9930  -15.0640 C.3       9 GLL5        0.0000 
     20 CA        -15.4230   19.5300  -18.4190 C.3       6 GLP5        0.0000 
     21 CA        -15.3075   20.1010  -15.0490 C.3       3 GLC5        0.0000 
     22 CA        -13.2600   19.2090  -15.0340 C.3       6 GLP5        0.0000 
     23 CA        -17.0975   20.4315  -12.9050 C.3       3 GLC5        0.0000 
     24 CA        -16.8400   19.8700  -10.7460 C.3       6 GLP5        0.0000 
     25 CA        -17.8820   18.6325  -13.5345 C.3       3 GLC5        0.0000 
     26 CA        -19.2140   20.2650  -13.4560 C.3       9 GLL5        0.0000 
     27 CA        -16.5500   17.0000  -13.6130 C.3       6 GLP5        0.0000 
     28 CA        -18.6750   19.9005  -11.8765 C.3       3 GLC5        0.0000 
     29 CA        -18.1360   19.5360  -10.2970 C.3       6 GLP5        0.0000 
     30 CA        -21.5730   18.6295  -15.4450 C.3       3 GLC5        0.0000 
     31 CA        -21.6100   20.3030  -14.1530 C.3       9 GLL5        0.0000 
     32 CA        -21.5360   16.9560  -16.7370 C.3       6 GLP5        0.0000 
     33 CA        -22.2020   19.6800  -12.1580 C.3       3 GLC5        0.0000 
     34 CA        -22.7940   19.0570  -10.1630 C.3       6 GLP5        0.0000 
     35 CA        -20.8845   19.6845  -17.1095 C.3       3 GLC5        0.0000 
     36 CA        -21.1830   20.5640  -15.6090 C.3       9 GLL5        0.0000 
     37 CA        -20.5860   18.8050  -18.6100 C.3       6 GLP5        0.0000 
     38 NZ        -24.5720   18.6715  -13.6220 N.4       2 LYC4        0.0000 
     39 NZ        -23.9140   19.9570  -14.6080 N.4       8 LYL4        0.0000 
     40 NZ        -26.2630   17.3920  -13.4760 N.4       5 LYP4        0.0000 
     41 N         -24.5720   18.6715  -13.6220 N.am      1 SEC2        0.0000 
     42 N         -23.9140   19.9570  -14.6080 N.am      7 SEL2        0.0000 
     43 N         -25.2300   17.3860  -12.6360 N.am      4 SEP2        0.0000 
     44 N         -25.0550   19.0120  -14.6150 N.am      1 SEC2        0.0000 
     45 N         -26.1960   18.0670  -14.6220 N.am      4 SEP2        0.0000 
     46 NZ        -24.0250   17.8560  -13.1225 N.4       2 LYC4        0.0000 
     47 NZ        -22.8200   18.3260  -13.6090 N.4       8 LYL4        0.0000 
     48 N         -22.4715   17.6345  -12.4100 N.am      1 SEC2        0.0000 
     49 N         -22.8200   18.3260  -13.6090 N.am      7 SEL2        0.0000 
     50 N         -22.1230   16.9430  -11.2110 N.am      4 SEP2        0.0000 
     51 N         -24.0250   17.8560  -13.1225 N.am      1 SEC2        0.0000 
     52 CA        -15.7007   28.4733  -16.9183 C.3       3 GLC5        0.0000 
     53 CA        -16.3350   27.2840  -17.5510 C.3       9 GLL5        0.0000 
     54 CA        -14.4090   29.7650  -16.2390 C.3       6 GLP5        0.0000 
     55 CA        -16.1786   27.9851  -19.0949 C.3       3 GLC5        0.0000 
     56 CA        -17.8780   27.3490  -18.8920 C.3       9 GLL5        0.0000 
     57 CA        -14.9220   28.7050  -19.9450 C.3       6 GLP5        0.0000 
     58 CA        -18.5080   29.3227  -18.0408 C.3       3 GLC5        0.0000 
     59 CA        -17.6500   27.0790  -17.6440 C.3       9 GLL5        0.0000 
     60 CA        -18.8860   31.0850  -18.6140 C.3       6 GLP5        0.0000 
     61 CA        -17.2828   18.7967  -15.0367 C.3       3 GLC5        0.0000 
     62 CA        -16.4980   16.8970  -15.0890 C.3       6 GLP5        0.0000 
     63 CA        -19.5138   19.4435  -16.5710 C.3       3 GLC5        0.0000 
     64 CA        -18.7800   20.4000  -14.9050 C.3       9 GLL5        0.0000 
     65 CA        -19.7420   18.1010  -17.8100 C.3       6 GLP5        0.0000 
@<TRIPOS>BOND
@<TRIPOS>SUBSTRUCTURE
     1 SEC2        6 GROUP        1 X    SEC  0     ROOT SEC X 2
     2 LYC4       38 GROUP        1 X    LYC  0     **** LYC X 4
     3 GLC5        1 GROUP        1 X    GLC  0     **** GLC X 6
     4 SEP2        8 GROUP        1 Y    SEP  0     ROOT SEP Y 9
     5 LYP4       40 GROUP        1 Y    LYP  0     **** LYP Y 11
     6 GLP5        3 GROUP        1 Y    GLP  0     **** GLP Y 13
     7 SEL2        7 GROUP        1 Z    SEL  0     ROOT SEL Z 16
     8 LYL4       39 GROUP        1 Z    LYL  0     **** LYL Z 18
     9 GLL5        2 GROUP        1 Z    GLL  0     **** GLL Z 20
@<TRIPOS>SET

