#    Name: 2qs4_LY5_1_ligand
#    Modification time : Mon Mar 24 22:42:27 2014

@<TRIPOS>MOLECULE
2qs4_LY5_1_ligand
   45    47     1     0     0
SMALL
NO_CHARGES


@<TRIPOS>ATOM
      1 F2        -16.3350   27.2840  -17.5510 F         1 LY5260      0.0000 
      2 C15       -17.6500   27.0790  -17.6440 C.3       1 LY5260      0.0000 
      3 F1        -17.8780   27.3490  -18.8920 F         1 LY5260      0.0000 
      4 C14       -18.4960   27.9070  -16.6670 C.3       1 LY5260      0.0000 
      5 C12       -18.4920   26.9950  -15.4450 C.3       1 LY5260      0.0000 
      6 C13       -19.4940   27.3020  -14.3270 C.2       1 LY5260      0.0000 
      7 O4        -20.6850   26.9950  -14.4020 O.co2     1 LY5260      0.0000 
      8 O3        -19.1060   27.8060  -13.2780 O.co2     1 LY5260      0.0000 
      9 C16       -17.9890   25.6170  -17.3090 C.3       1 LY5260      0.0000 
     10 N2        -18.6980   25.6460  -16.0120 N.3       1 LY5260      0.0000 
     11 C11       -18.1850   24.6860  -15.0360 C.3       1 LY5260      0.0000 
     12 C7        -18.3190   23.2500  -15.5320 C.3       1 LY5260      0.0000 
     13 C6        -19.7260   22.6500  -15.3360 C.3       1 LY5260      0.0000 
     14 C8        -17.3300   22.4790  -14.6550 C.3       1 LY5260      0.0000 
     15 C9        -17.3550   20.9930  -15.0640 C.3       1 LY5260      0.0000 
     16 C4        -18.7800   20.4000  -14.9050 C.3       1 LY5260      0.0000 
     17 C5        -19.7910   21.1720  -15.7590 C.3       1 LY5260      0.0000 
     18 C3        -19.2140   20.2650  -13.4560 C.3       1 LY5260      0.0000 
     19 N1        -20.5450   19.5720  -13.3960 N.4       1 LY5260      0.0000 
     20 C1        -21.6100   20.3030  -14.1530 C.3       1 LY5260      0.0000 
     21 C2        -21.1830   20.5640  -15.6090 C.3       1 LY5260      0.0000 
     22 C10       -22.8500   19.4610  -14.1030 C.2       1 LY5260      0.0000 
     23 O1        -23.9140   19.9570  -14.6080 O.co2     1 LY5260      0.0000 
     24 O2        -22.8200   18.3260  -13.6090 O.co2     1 LY5260      0.0000 
     25 H         -19.4707   28.0069  -17.0397 H         1 LY5260      0.0000 
     26 H         -18.0044   28.8065  -16.4477 H         1 LY5260      0.0000 
     27 H         -17.4726   27.0160  -15.0293 H         1 LY5260      0.0000 
     28 H         -17.0732   25.0603  -17.2357 H         1 LY5260      0.0000 
     29 H         -18.6198   25.2244  -18.0849 H         1 LY5260      0.0000 
     30 H         -18.7289   24.7720  -14.0831 H         1 LY5260      0.0000 
     31 H         -17.1224   24.8778  -14.8235 H         1 LY5260      0.0000 
     32 H         -18.0084   23.1788  -16.5322 H         1 LY5260      0.0000 
     33 H         -20.4417   23.2229  -15.9288 H         1 LY5260      0.0000 
     34 H         -20.0034   22.7327  -14.2833 H         1 LY5260      0.0000 
     35 H         -17.6202   22.5661  -13.6197 H         1 LY5260      0.0000 
     36 H         -16.3353   22.8697  -14.8016 H         1 LY5260      0.0000 
     37 H         -16.6701   20.4358  -14.4337 H         1 LY5260      0.0000 
     38 H         -17.0497   20.9011  -16.1009 H         1 LY5260      0.0000 
     39 H         -18.7304   19.3665  -15.3352 H         1 LY5260      0.0000 
     40 H         -19.4748   21.0990  -16.7902 H         1 LY5260      0.0000 
     41 H         -19.2920   21.2541  -13.0125 H         1 LY5260      0.0000 
     42 H         -18.4714   19.6867  -12.9128 H         1 LY5260      0.0000 
     43 H         -21.8048   21.2447  -13.6723 H         1 LY5260      0.0000 
     44 H         -21.2219   19.6106  -16.1628 H         1 LY5260      0.0000 
     45 H         -21.9225   21.2359  -16.0769 H         1 LY5260      0.0000 
@<TRIPOS>BOND
     1    2    1 1    
     2    3    2 1    
     3    4    2 1    
     4    9    2 1    
     5    5    4 1    
     6   25    4 1    
     7   26    4 1    
     8    6    5 1    
     9   10    5 1    
    10   27    5 1    
    11    7    6 ar   
    12    8    6 ar   
    13   10    9 1    
    14   28    9 1    
    15   29    9 1    
    16   11   10 1    
    17   12   11 1    
    18   30   11 1    
    19   31   11 1    
    20   13   12 1    
    21   14   12 1    
    22   32   12 1    
    23   17   13 1    
    24   33   13 1    
    25   34   13 1    
    26   15   14 1    
    27   35   14 1    
    28   36   14 1    
    29   16   15 1    
    30   37   15 1    
    31   38   15 1    
    32   17   16 1    
    33   18   16 1    
    34   39   16 1    
    35   21   17 1    
    36   40   17 1    
    37   19   18 1    
    38   41   18 1    
    39   42   18 1    
    40   20   19 1    
    41   21   20 1    
    42   22   20 1    
    43   43   20 1    
    44   44   21 1    
    45   45   21 1    
    46   23   22 ar   
    47   24   22 ar   
@<TRIPOS>SUBSTRUCTURE
     1 LY5260      1 GROUP   
@<TRIPOS>SET

