#    Name: 1b6m_PI6_1_INTS_M
#    Modification time : Mon Mar 24 19:25:52 2014

@<TRIPOS>MOLECULE
1b6m_PI6_1_INTS_M
   99     0    12     0     0
SMALL
NO_CHARGES


@<TRIPOS>ATOM
      1 CA         -0.9375    0.2620   12.2955 C.3       4 GLC5        0.0000 
      2 CA          1.0770    0.3200   12.6340 C.3      12 GLL5        0.0000 
      3 CA         -2.9520    0.2040   11.9570 C.3       8 GLP5        0.0000 
      4 CA          0.3825   -1.0030   14.0600 C.3       4 GLC5        0.0000 
      5 CA         -0.3120   -2.3260   15.4860 C.3       8 GLP5        0.0000 
      6 CA          0.8325   -1.7485   12.0530 C.3       4 GLC5        0.0000 
      7 CA          0.5880   -3.8170   11.4720 C.3       8 GLP5        0.0000 
      8 CA         -1.0500    3.8605   11.5420 C.3       4 GLC5        0.0000 
      9 CA          0.5560    2.4860   11.5390 C.3      12 GLL5        0.0000 
     10 CA         -2.6560    5.2350   11.5450 C.3       8 GLP5        0.0000 
     11 CA         -1.1980    1.3450   11.7480 C.3       4 GLC5        0.0000 
     12 CA         -0.0635    0.4600    9.4130 C.3       4 GLC5        0.0000 
     13 CA          1.8090    0.7650   10.2580 C.3      12 GLL5        0.0000 
     14 CA         -1.9360    0.1550    8.5680 C.3       8 GLP5        0.0000 
     15 CA          3.5245   -0.1470    9.5760 C.3       4 GLC5        0.0000 
     16 CA          5.2400   -1.0590    8.8940 C.3       8 GLP5        0.0000 
     17 CA          1.7285   -1.1915    9.7960 C.3       4 GLC5        0.0000 
     18 CA          1.6480   -3.1480    9.3340 C.3       8 GLP5        0.0000 
     19 O           5.0250    2.9895   13.9680 O.2       1 ALC1        0.0000 
     20 O           4.8280    1.7130   13.0680 O.2       9 ALL1        0.0000 
     21 O           5.2220    4.2660   14.8680 O.2       5 ALP1        0.0000 
     22 CA          5.8585    2.4135   16.0580 C.3       4 GLC5        0.0000 
     23 CA          6.0080    0.5390   14.9040 C.3      12 GLL5        0.0000 
     24 CA          5.7090    4.2880   17.2120 C.3       8 GLP5        0.0000 
     25 O           7.3590    0.1380   16.4330 O.2       1 ALC1        0.0000 
     26 O           7.2050   -0.1890   15.1920 O.2       9 ALL1        0.0000 
     27 O           7.5130    0.4650   17.6740 O.2       5 ALP1        0.0000 
     28 CA          8.0785    3.3090   14.2925 C.3       4 GLC5        0.0000 
     29 CA          7.2750    1.8050   13.1830 C.3      12 GLL5        0.0000 
     30 CA          8.8820    4.8130   15.4020 C.3       8 GLP5        0.0000 
     31 CA          9.0025    0.9315   13.7510 C.3       4 GLC5        0.0000 
     32 CA         10.7300    0.0580   14.3190 C.3       8 GLP5        0.0000 
     33 CA          8.4875   -0.8655   11.4295 C.3       4 GLC5        0.0000 
     34 CA          7.8650    1.1460   10.8500 C.3      12 GLL5        0.0000 
     35 CA          9.1100   -2.8770   12.0090 C.3       8 GLP5        0.0000 
     36 OD1         4.3085    0.5605   17.4825 O.co2     3 ASC3        0.0000 
     37 OD1         4.8920   -0.7540   16.6000 O.co2    11 ASL3        0.0000 
     38 OD1         3.7250    1.8750   18.3650 O.co2     7 ASP3        0.0000 
     39 OD1         3.7825   -0.3565   17.2170 O.co2     3 ASC3        0.0000 
     40 OD1         2.6730    0.0410   17.8340 O.co2     7 ASP3        0.0000 
     41 OD1         5.5635    0.3405   17.8785 O.co2     3 ASC3        0.0000 
     42 OD1         6.2350    1.4350   19.1570 O.co2     7 ASP3        0.0000 
     43 OD1         6.2025   -0.1445   17.1370 O.co2     3 ASC3        0.0000 
     44 OD1         7.5130    0.4650   17.6740 O.co2     7 ASP3        0.0000 
     45 CA          4.6605   -1.5580   18.9235 C.3       4 GLC5        0.0000 
     46 CA          4.6730   -2.2010   16.8610 C.3      12 GLL5        0.0000 
     47 CA          4.6480   -0.9150   20.9860 C.3       8 GLP5        0.0000 
     48 O           5.7165   -3.5005   18.5190 O.2       1 ALC1        0.0000 
     49 O           6.1870   -4.0500   17.1690 O.2       9 ALL1        0.0000 
     50 O           5.2460   -2.9510   19.8690 O.2       5 ALP1        0.0000 
     51 CA          7.5720   -3.8470   18.5085 C.3       4 GLC5        0.0000 
     52 CA          7.1520   -5.1000   16.8150 C.3      12 GLL5        0.0000 
     53 CA          7.9920   -2.5940   20.2020 C.3       8 GLP5        0.0000 
     54 N           7.8030   -5.3120   20.1580 N.am      2 SEC2        0.0000 
     55 N           7.0470   -5.9220   19.0640 N.am     10 SEL2        0.0000 
     56 N           8.5590   -4.7020   21.2520 N.am      6 SEP2        0.0000 
     57 CA         11.0810   -6.3730   15.3730 C.3       4 GLC5        0.0000 
     58 CA          9.5670   -5.8310   16.6960 C.3      12 GLL5        0.0000 
     59 CA         12.5950   -6.9150   14.0500 C.3       8 GLP5        0.0000 
     60 CA         11.9995   -3.6760   15.5580 C.3       4 GLC5        0.0000 
     61 CA         10.3440   -3.3980   15.4840 C.3      12 GLL5        0.0000 
     62 CA         13.6550   -3.9540   15.6320 C.3       8 GLP5        0.0000 
     63 CA         11.4695   -5.1565   14.7670 C.3       4 GLC5        0.0000 
     64 O           6.6745   -7.5760   16.0125 O.2       1 ALC1        0.0000 
     65 O           6.5080   -7.3620   17.4150 O.2       9 ALL1        0.0000 
     66 O           6.8410   -7.7900   14.6100 O.2       5 ALP1        0.0000 
     67 CA          1.1725    2.3384   13.7147 C.3       4 GLC5        0.0000 
     68 CA          1.4010    3.0110   15.5900 C.3       8 GLP5        0.0000 
     69 CA          9.3265    3.0462   11.6115 C.3       4 GLC5        0.0000 
     70 CA          7.4750    2.1320   11.7460 C.3      12 GLL5        0.0000 
     71 CA         11.2980    3.3180   11.7120 C.3       8 GLP5        0.0000 
     72 CA          6.5905    0.1158    9.5365 C.3       4 GLC5        0.0000 
     73 CA          9.6195    2.3043   10.9455 C.3       4 GLC5        0.0000 
     74 CA          8.0170    1.4350    9.5080 C.3      12 GLL5        0.0000 
     75 CA          9.4383    3.2690   10.6010 C.3       4 GLC5        0.0000 
     76 CA          7.7720    2.7230    9.0460 C.3      12 GLL5        0.0000 
     77 CA          9.5213    1.6950    8.4490 C.3       4 GLC5        0.0000 
     78 CA         11.1480    1.3110    7.6210 C.3       8 GLP5        0.0000 
     79 CA          1.3205   -5.1195   17.7417 C.3       4 GLC5        0.0000 
     80 CA          3.1210   -4.1510   16.5700 C.3      12 GLL5        0.0000 
     81 CA         -0.4650   -5.7800   18.2870 C.3       8 GLP5        0.0000 
     82 CA          1.4348   -3.2544   15.7297 C.3       4 GLC5        0.0000 
     83 CA          3.1690   -4.9630   15.4390 C.3      12 GLL5        0.0000 
     84 CA          4.4200   -5.9455   14.0605 C.3       4 GLC5        0.0000 
     85 CA          5.6510   -6.2400   12.6280 C.3       8 GLP5        0.0000 
     86 CA          2.3775   -4.2268   19.3298 C.3       4 GLC5        0.0000 
     87 CA          3.1310   -6.1480   17.9420 C.3      12 GLL5        0.0000 
     88 CA          1.6440   -2.9960   20.7770 C.3       8 GLP5        0.0000 
     89 CA          1.9425   -4.8905   14.3269 C.3       4 GLC5        0.0000 
     90 CA          0.7080   -4.3330   12.8780 C.3       8 GLP5        0.0000 
     91 CA          1.3498   -6.1590   17.8278 C.3       4 GLC5        0.0000 
     92 CA          3.1980   -6.9280   16.7950 C.3      12 GLL5        0.0000 
     93 CA          1.8207   -7.3688   15.5110 C.3       4 GLC5        0.0000 
     94 CA          0.4480   -8.4480   14.8780 C.3       8 GLP5        0.0000 
     95 CA          9.3655   -3.1793   13.8353 C.3       4 GLC5        0.0000 
     96 CA          8.8980   -3.5650   15.8390 C.3      12 GLL5        0.0000 
     97 CA         10.1755   -1.7118   14.9902 C.3       4 GLC5        0.0000 
     98 CA          9.3107   -2.7817   17.6898 C.3       4 GLC5        0.0000 
     99 CA          9.0680   -1.8140   19.4540 C.3       8 GLP5        0.0000 
@<TRIPOS>BOND
@<TRIPOS>SUBSTRUCTURE
     1 ALC1       19 GROUP        1 X    ALC  0     ROOT ALC X 1
     2 SEC2       54 GROUP        1 X    SEC  0     **** SEC X 2
     3 ASC3       36 GROUP        1 X    ASC  0     **** ASC X 3
     4 GLC5        1 GROUP        1 X    GLC  0     **** GLC X 6
     5 ALP1       21 GROUP        1 Y    ALP  0     ROOT ALP Y 8
     6 SEP2       56 GROUP        1 Y    SEP  0     **** SEP Y 9
     7 ASP3       38 GROUP        1 Y    ASP  0     **** ASP Y 10
     8 GLP5        3 GROUP        1 Y    GLP  0     **** GLP Y 13
     9 ALL1       20 GROUP        1 Z    ALL  0     ROOT ALL Z 15
    10 SEL2       55 GROUP        1 Z    SEL  0     **** SEL Z 16
    11 ASL3       37 GROUP        1 Z    ASL  0     **** ASL Z 17
    12 GLL5        2 GROUP        1 Z    GLL  0     **** GLL Z 20
@<TRIPOS>SET

