#    Name: 1b6m_PI6_1_ligand
#    Modification time : Mon Mar 24 19:25:52 2014

@<TRIPOS>MOLECULE
1b6m_PI6_1_ligand
   90    92     1     0     0
SMALL
NO_CHARGES


@<TRIPOS>ATOM
      1 O1          3.8350   -0.0320   12.0460 O.2       1 PI6201      0.0000 
      2 C           3.8210    1.1580   12.3990 C.2       1 PI6201      0.0000 
      3 O2          2.8080    1.9690   12.1240 O.3       1 PI6201      0.0000 
      4 CT          1.5870    1.3710   11.6460 C.3       1 PI6201      0.0000 
      5 C1          1.0770    0.3200   12.6340 C.3       1 PI6201      0.0000 
      6 C2          0.5560    2.4860   11.5390 C.3       1 PI6201      0.0000 
      7 C3          1.8090    0.7650   10.2580 C.3       1 PI6201      0.0000 
      8 N           4.8280    1.7130   13.0680 N.am      1 PI6201      0.0000 
      9 CA          6.0330    0.9660   13.4470 C.3       1 PI6201      0.0000 
     10 C4          6.0080    0.5390   14.9040 C.3       1 PI6201      0.0000 
     11 OXT         7.2050   -0.1890   15.1920 O.3       1 PI6201      0.0000 
     12 CB          7.2750    1.8050   13.1830 C.3       1 PI6201      0.0000 
     13 CG          7.4750    2.1320   11.7460 C.ar      1 PI6201      0.0000 
     14 CD1         7.2350    3.4170   11.2760 C.ar      1 PI6201      0.0000 
     15 CD2         7.8650    1.1460   10.8500 C.ar      1 PI6201      0.0000 
     16 CE1         7.3850    3.7170    9.9340 C.ar      1 PI6201      0.0000 
     17 CE2         8.0170    1.4350    9.5080 C.ar      1 PI6201      0.0000 
     18 CZ          7.7720    2.7230    9.0460 C.ar      1 PI6201      0.0000 
     19 CM          4.8040   -0.3490   15.1870 C.3       1 PI6201      0.0000 
     20 N1          4.8920   -0.7540   16.6000 N.4       1 PI6201      0.0000 
     21 CA1         4.6730   -2.2010   16.8610 C.3       1 PI6201      0.0000 
     22 C5          5.6890   -3.1860   16.2910 C.2       1 PI6201      0.0000 
     23 O           5.9960   -3.1750   15.0970 O.2       1 PI6201      0.0000 
     24 CB1         3.2670   -2.6540   16.4460 C.3       1 PI6201      0.0000 
     25 CG1         3.1210   -4.1510   16.5700 C.ar      1 PI6201      0.0000 
     26 CD11        3.1690   -4.9630   15.4390 C.ar      1 PI6201      0.0000 
     27 CD21        3.0910   -4.7670   17.8230 C.ar      1 PI6201      0.0000 
     28 CE11        3.2090   -6.3390   15.5470 C.ar      1 PI6201      0.0000 
     29 CE21        3.1310   -6.1480   17.9420 C.ar      1 PI6201      0.0000 
     30 CZ1         3.1980   -6.9280   16.7950 C.ar      1 PI6201      0.0000 
     31 N2          6.1870   -4.0500   17.1690 N.am      1 PI6201      0.0000 
     32 CA2         7.1520   -5.1000   16.8150 C.3       1 PI6201      0.0000 
     33 C6          6.9120   -6.1780   17.8650 C.2       1 PI6201      0.0000 
     34 O3          7.0470   -5.9220   19.0640 O.2       1 PI6201      0.0000 
     35 CB2         8.6280   -4.6370   16.8950 C.3       1 PI6201      0.0000 
     36 CG11        8.8980   -3.5650   15.8390 C.3       1 PI6201      0.0000 
     37 CG2         9.5670   -5.8310   16.6960 C.3       1 PI6201      0.0000 
     38 CD12       10.3440   -3.3980   15.4840 C.3       1 PI6201      0.0000 
     39 OH          3.3050   -8.2960   16.8630 O.3       1 PI6201      0.0000 
     40 N3          6.5080   -7.3620   17.4150 N.am      1 PI6201      0.0000 
     41 CA3         6.2540   -8.4570   18.3350 C.3       1 PI6201      0.0000 
     42 C7          5.2130   -9.4540   17.8450 C.3       1 PI6201      0.0000 
     43 C8          3.7900   -8.9410   18.0290 C.3       1 PI6201      0.0000 
     44 H           4.8155    2.7167   13.3616 H         1 PI6201      0.0000 
     45 H           6.1143    0.0643   12.8342 H         1 PI6201      0.0000 
     46 H           5.9356    1.4197   15.5184 H         1 PI6201      0.0000 
     47 H           8.1549    1.2586   13.5691 H         1 PI6201      0.0000 
     48 H           7.1995    2.7370   13.7726 H         1 PI6201      0.0000 
     49 H           6.9412    4.1553   11.9384 H         1 PI6201      0.0000 
     50 H           8.0427    0.1865   11.1938 H         1 PI6201      0.0000 
     51 H           7.2111    4.6713    9.5938 H         1 PI6201      0.0000 
     52 H           8.3106    0.7018    8.8488 H         1 PI6201      0.0000 
     53 H           7.8778    2.9384    8.0456 H         1 PI6201      0.0000 
     54 H           4.8446   -1.2098   14.5365 H         1 PI6201      0.0000 
     55 H           3.9026    0.2164   15.0039 H         1 PI6201      0.0000 
     56 H           4.6924   -2.3563   17.9859 H         1 PI6201      0.0000 
     57 H           3.0905   -2.3499   15.4131 H         1 PI6201      0.0000 
     58 H           2.5350   -2.1573   17.0847 H         1 PI6201      0.0000 
     59 H           3.1746   -4.5203   14.5001 H         1 PI6201      0.0000 
     60 H           3.0380   -4.1796   18.6738 H         1 PI6201      0.0000 
     61 H           3.2469   -6.9229   14.6997 H         1 PI6201      0.0000 
     62 H           3.1114   -6.5893   18.8664 H         1 PI6201      0.0000 
     63 H           5.9123   -4.0289   18.1843 H         1 PI6201      0.0000 
     64 H           6.9465   -5.5093   15.8635 H         1 PI6201      0.0000 
     65 H           8.7981   -4.2178   17.8713 H         1 PI6201      0.0000 
     66 H           8.4930   -2.6026   16.2073 H         1 PI6201      0.0000 
     67 H           8.3196   -3.8178   14.9293 H         1 PI6201      0.0000 
     68 H           6.3574   -7.5596   16.4110 H         1 PI6201      0.0000 
     69 H           5.9148   -8.0683   19.3206 H         1 PI6201      0.0000 
     70 H           7.1916   -9.0187   18.5418 H         1 PI6201      0.0000 
     71 H           5.3292  -10.3951   18.3946 H         1 PI6201      0.0000 
     72 H           5.3852   -9.6614   16.7826 H         1 PI6201      0.0000 
     73 H           3.1591   -9.8058   18.3104 H         1 PI6201      0.0000 
     74 H           3.7927   -8.2603   18.9018 H         1 PI6201      0.0000 
     75 H           1.7411   -0.4152   12.7699 H         1 PI6201      0.0000 
     76 H           0.8895    0.7155   13.5331 H         1 PI6201      0.0000 
     77 H           0.2289   -0.1057   12.3185 H         1 PI6201      0.0000 
     78 H           0.3930    2.9271   12.4215 H         1 PI6201      0.0000 
     79 H           0.8468    3.2010   10.9032 H         1 PI6201      0.0000 
     80 H          -0.3264    2.1459   11.2139 H         1 PI6201      0.0000 
     81 H           2.0990    1.4541    9.5939 H         1 PI6201      0.0000 
     82 H           2.5136    0.0555   10.2709 H         1 PI6201      0.0000 
     83 H           0.9759    0.3442    9.8989 H         1 PI6201      0.0000 
     84 H          10.5283   -5.5590   16.7406 H         1 PI6201      0.0000 
     85 H           9.4283   -6.5330   17.3946 H         1 PI6201      0.0000 
     86 H           9.4273   -6.2694   15.8081 H         1 PI6201      0.0000 
     87 H          10.8944   -3.1421   16.2787 H         1 PI6201      0.0000 
     88 H          10.7357   -4.2410   15.1154 H         1 PI6201      0.0000 
     89 H          10.4772   -2.6867   14.7939 H         1 PI6201      0.0000 
     90 H           7.1308   -0.4370   16.1579 H         1 PI6201      0.0000 
@<TRIPOS>BOND
     1    2    1 2    
     2    3    2 1    
     3    8    2 am   
     4    4    3 1    
     5    5    4 1    
     6    6    4 1    
     7    7    4 1    
     8   75    5 1    
     9   76    5 1    
    10   77    5 1    
    11   78    6 1    
    12   79    6 1    
    13   80    6 1    
    14   81    7 1    
    15   82    7 1    
    16   83    7 1    
    17    9    8 1    
    18   44    8 1    
    19   10    9 1    
    20   12    9 1    
    21   45    9 1    
    22   11   10 1    
    23   19   10 1    
    24   46   10 1    
    25   90   11 1    
    26   13   12 1    
    27   47   12 1    
    28   48   12 1    
    29   14   13 ar   
    30   15   13 ar   
    31   16   14 ar   
    32   49   14 1    
    33   17   15 ar   
    34   50   15 1    
    35   18   16 ar   
    36   51   16 1    
    37   18   17 ar   
    38   52   17 1    
    39   53   18 1    
    40   20   19 1    
    41   54   19 1    
    42   55   19 1    
    43   21   20 1    
    44   22   21 1    
    45   24   21 1    
    46   56   21 1    
    47   23   22 2    
    48   31   22 am   
    49   25   24 1    
    50   57   24 1    
    51   58   24 1    
    52   26   25 ar   
    53   27   25 ar   
    54   28   26 ar   
    55   59   26 1    
    56   29   27 ar   
    57   60   27 1    
    58   30   28 ar   
    59   61   28 1    
    60   30   29 ar   
    61   62   29 1    
    62   39   30 1    
    63   32   31 1    
    64   63   31 1    
    65   33   32 1    
    66   35   32 1    
    67   64   32 1    
    68   34   33 2    
    69   40   33 am   
    70   36   35 1    
    71   37   35 1    
    72   65   35 1    
    73   38   36 1    
    74   66   36 1    
    75   67   36 1    
    76   84   37 1    
    77   85   37 1    
    78   86   37 1    
    79   87   38 1    
    80   88   38 1    
    81   89   38 1    
    82   43   39 1    
    83   41   40 1    
    84   68   40 1    
    85   42   41 1    
    86   69   41 1    
    87   70   41 1    
    88   43   42 1    
    89   71   42 1    
    90   72   42 1    
    91   73   43 1    
    92   74   43 1    
@<TRIPOS>SUBSTRUCTURE
     1 PI6201      1 GROUP   
@<TRIPOS>SET

