#    Name: 4fgj_1PQ_2_INTS_M
#    Modification time : Mon Mar 24 19:59:48 2014

@<TRIPOS>MOLECULE
4fgj_1PQ_2_INTS_M
   36     0     9     0     0
SMALL
NO_CHARGES


@<TRIPOS>ATOM
      1 CA         24.0900  -12.8460  -11.1500 C.3       3 GLC5        0.0000 
      2 CA         23.0590  -12.5440  -12.3130 C.3       9 GLL5        0.0000 
      3 CA         25.1210  -13.1480   -9.9870 C.3       6 GLP5        0.0000 
      4 CA         22.0435  -12.2700  -11.1220 C.3       3 GLC5        0.0000 
      5 CA         21.0280  -11.9960   -9.9310 C.3       6 GLP5        0.0000 
      6 CA         22.2775  -11.7440  -13.6700 C.3       3 GLC5        0.0000 
      7 CA         21.4960  -10.9440  -15.0270 C.3       6 GLP5        0.0000 
      8 CA         24.5830  -19.8360  -17.7465 C.3       3 GLC5        0.0000 
      9 CA         25.8940  -18.8470  -16.5190 C.3       9 GLL5        0.0000 
     10 CA         23.2720  -20.8250  -18.9740 C.3       6 GLP5        0.0000 
     11 OD1        28.0255  -14.5825  -19.4865 O.co2     2 ASC3        0.0000 
     12 OD1        28.4380  -14.8800  -17.8860 O.co2     8 ASL3        0.0000 
     13 OD1        27.6130  -14.2850  -21.0870 O.co2     5 ASP3        0.0000 
     14 OD1        28.9605  -14.0740  -19.2290 O.co2     2 ASC3        0.0000 
     15 OD1        29.4830  -13.2680  -20.5720 O.co2     5 ASP3        0.0000 
     16 O          28.9605  -14.0740  -19.2290 O.2       1 ALC1        0.0000 
     17 O          28.4380  -14.8800  -17.8860 O.2       7 ALL1        0.0000 
     18 O          29.4830  -13.2680  -20.5720 O.2       4 ALP1        0.0000 
     19 CA         22.6600  -14.7568  -15.5190 C.3       3 GLC5        0.0000 
     20 CA         23.0580  -14.5910  -13.5830 C.3       9 GLL5        0.0000 
     21 CA         21.8970  -14.4900  -17.0580 C.3       6 GLP5        0.0000 
     22 CA         22.3045  -15.7250  -15.6960 C.3       3 GLC5        0.0000 
     23 CA         23.3270  -16.7490  -14.6170 C.3       9 GLL5        0.0000 
     24 CA         25.1097  -17.7933  -17.9252 C.3       3 GLC5        0.0000 
     25 CA         25.5070  -17.6740  -15.6660 C.3       9 GLL5        0.0000 
     26 CA         24.5190  -17.3260  -19.7580 C.3       6 GLP5        0.0000 
     27 CA         25.6965  -16.7043  -18.6620 C.3       3 GLC5        0.0000 
     28 CA         27.2500  -15.5910  -18.2910 C.3       9 GLL5        0.0000 
     29 CA         25.3740  -14.9337  -17.9280 C.3       3 GLC5        0.0000 
     30 CA         27.0120  -16.7460  -17.3650 C.3       9 GLL5        0.0000 
     31 CA         23.8740  -13.7850  -18.2900 C.3       6 GLP5        0.0000 
     32 CA         19.7548  -17.6262  -10.6937 C.3       3 GLC5        0.0000 
     33 CA         20.1340  -16.6970  -12.6840 C.3       9 GLL5        0.0000 
     34 CA         19.5900  -17.9070   -8.5770 C.3       6 GLP5        0.0000 
     35 CA         21.7523  -15.0572  -15.0925 C.3       3 GLC5        0.0000 
     36 CA         21.3620  -16.2720  -13.2400 C.3       9 GLL5        0.0000 
@<TRIPOS>BOND
@<TRIPOS>SUBSTRUCTURE
     1 ALC1       16 GROUP        1 X    ALC  0     ROOT ALC X 1
     2 ASC3       11 GROUP        1 X    ASC  0     **** ASC X 3
     3 GLC5        1 GROUP        1 X    GLC  0     **** GLC X 6
     4 ALP1       18 GROUP        1 Y    ALP  0     ROOT ALP Y 8
     5 ASP3       13 GROUP        1 Y    ASP  0     **** ASP Y 10
     6 GLP5        3 GROUP        1 Y    GLP  0     **** GLP Y 13
     7 ALL1       17 GROUP        1 Z    ALL  0     ROOT ALL Z 15
     8 ASL3       12 GROUP        1 Z    ASL  0     **** ASL Z 17
     9 GLL5        2 GROUP        1 Z    GLL  0     **** GLL Z 20
@<TRIPOS>SET

