#    Name: 4fgj_1PQ_2_ligand
#    Modification time : Mon Mar 24 19:59:49 2014

@<TRIPOS>MOLECULE
4fgj_1PQ_2_ligand
   41    42     1     0     0
SMALL
NO_CHARGES


@<TRIPOS>ATOM
      1 C1         23.0590  -12.5440  -12.3130 C.3       1 1PQ304      0.0000 
      2 O1         23.5520  -13.3090  -13.3660 O.3       1 1PQ304      0.0000 
      3 C2         23.0580  -14.5910  -13.5830 C.ar      1 1PQ304      0.0000 
      4 C3         23.7880  -15.4560  -14.3770 C.ar      1 1PQ304      0.0000 
      5 C4         23.3270  -16.7490  -14.6170 C.ar      1 1PQ304      0.0000 
      6 N1         24.0650  -17.7040  -15.4480 N.pl3     1 1PQ304      0.0000 
      7 C5         25.5070  -17.6740  -15.6660 C.3       1 1PQ304      0.0000 
      8 C6         25.8940  -18.8470  -16.5190 C.3       1 1PQ304      0.0000 
      9 C7         25.9840  -16.4020  -16.3170 C.3       1 1PQ304      0.0000 
     10 C8         27.0120  -16.7460  -17.3650 C.3       1 1PQ304      0.0000 
     11 C9         27.2500  -15.5910  -18.2910 C.3       1 1PQ304      0.0000 
     12 N2         28.4380  -14.8800  -17.8860 N.4       1 1PQ304      0.0000 
     13 C10        22.0970  -17.1710  -14.0510 C.ar      1 1PQ304      0.0000 
     14 N3         21.6160  -18.4160  -14.2700 N.ar      1 1PQ304      0.0000 
     15 C11        20.4590  -18.8290  -13.7350 C.ar      1 1PQ304      0.0000 
     16 C12        19.7050  -17.9940  -12.9370 C.ar      1 1PQ304      0.0000 
     17 C13        20.1340  -16.6970  -12.6840 C.ar      1 1PQ304      0.0000 
     18 C14        21.3620  -16.2720  -13.2400 C.ar      1 1PQ304      0.0000 
     19 C15        21.8530  -14.9770  -13.0140 C.ar      1 1PQ304      0.0000 
     20 H          24.6785  -15.1475  -14.7959 H         1 1PQ304      0.0000 
     21 H          23.5195  -18.4558  -15.9145 H         1 1PQ304      0.0000 
     22 H          26.0253  -17.7838  -14.7082 H         1 1PQ304      0.0000 
     23 H          26.4295  -15.7541  -15.5691 H         1 1PQ304      0.0000 
     24 H          25.1458  -15.8937  -16.7825 H         1 1PQ304      0.0000 
     25 H          26.6658  -17.6122  -17.9398 H         1 1PQ304      0.0000 
     26 H          27.9513  -17.0216  -16.8728 H         1 1PQ304      0.0000 
     27 H          26.3717  -14.9342  -18.2666 H         1 1PQ304      0.0000 
     28 H          27.3517  -15.9754  -19.3134 H         1 1PQ304      0.0000 
     29 H          20.1068  -19.7976  -13.9152 H         1 1PQ304      0.0000 
     30 H          18.8208  -18.3287  -12.5254 H         1 1PQ304      0.0000 
     31 H          19.5864  -16.0609  -12.1146 H         1 1PQ304      0.0000 
     32 H          21.3193  -14.3256  -12.4310 H         1 1PQ304      0.0000 
     33 H          23.2088  -12.9879  -11.4295 H         1 1PQ304      0.0000 
     34 H          23.4981  -11.6467  -12.2684 H         1 1PQ304      0.0000 
     35 H          22.0754  -12.3850  -12.3981 H         1 1PQ304      0.0000 
     36 H          26.8780  -18.8689  -16.6960 H         1 1PQ304      0.0000 
     37 H          25.6547  -19.7161  -16.0861 H         1 1PQ304      0.0000 
     38 H          25.4366  -18.8267  -17.4080 H         1 1PQ304      0.0000 
     39 H          28.8999  -14.4549  -18.6644 H         1 1PQ304      0.0000 
     40 H          28.2302  -14.1505  -17.2343 H         1 1PQ304      0.0000 
     41 H          29.1014  -15.4855  -17.4464 H         1 1PQ304      0.0000 
@<TRIPOS>BOND
     1    2    1 1    
     2   33    1 1    
     3   34    1 1    
     4   35    1 1    
     5    3    2 1    
     6    4    3 ar   
     7   19    3 ar   
     8    5    4 ar   
     9   20    4 1    
    10    6    5 1    
    11   13    5 ar   
    12    7    6 1    
    13   21    6 1    
    14    8    7 1    
    15    9    7 1    
    16   22    7 1    
    17   36    8 1    
    18   37    8 1    
    19   38    8 1    
    20   10    9 1    
    21   23    9 1    
    22   24    9 1    
    23   11   10 1    
    24   25   10 1    
    25   26   10 1    
    26   12   11 1    
    27   27   11 1    
    28   28   11 1    
    29   39   12 1    
    30   40   12 1    
    31   41   12 1    
    32   14   13 ar   
    33   18   13 ar   
    34   15   14 ar   
    35   16   15 ar   
    36   29   15 1    
    37   17   16 ar   
    38   30   16 1    
    39   18   17 ar   
    40   31   17 1    
    41   19   18 ar   
    42   32   19 1    
@<TRIPOS>SUBSTRUCTURE
     1 1PQ304      1 GROUP   
@<TRIPOS>SET

