#    Name: 4lrl_DGT_2_INTS_M
#    Modification time : Tue Mar 25 11:26:54 2014

@<TRIPOS>MOLECULE
4lrl_DGT_2_INTS_M
   58     0    12     0     0
SMALL
NO_CHARGES


@<TRIPOS>ATOM
      1 NZ         30.0950   17.9825    3.7155 N.4       3 LYC4        0.0000 
      2 NZ         30.7920   18.6640    2.7600 N.4      11 LYL4        0.0000 
      3 NZ         29.3980   17.3010    4.6710 N.4       7 LYP4        0.0000 
      4 N          30.0950   17.9825    3.7155 N.am      2 SEC2        0.0000 
      5 N          30.7920   18.6640    2.7600 N.am     10 SEL2        0.0000 
      6 N          29.3980   17.3010    4.6710 N.am      6 SEP2        0.0000 
      7 NZ         29.9560   16.7840    3.3045 N.4       3 LYC4        0.0000 
      8 NZ         30.5140   16.2670    1.9380 N.4      11 LYL4        0.0000 
      9 NZ         30.4845   16.1925    4.3210 N.4       3 LYC4        0.0000 
     10 NZ         31.5710   15.0840    3.9710 N.4      11 LYL4        0.0000 
     11 N          30.4845   16.1925    4.3210 N.am      2 SEC2        0.0000 
     12 N          31.5710   15.0840    3.9710 N.am     10 SEL2        0.0000 
     13 NZ         34.9505   15.0580    1.5305 N.4       3 LYC4        0.0000 
     14 NZ         33.9410   14.9720    2.8670 N.4      11 LYL4        0.0000 
     15 NZ         35.9600   15.1440    0.1940 N.4       7 LYP4        0.0000 
     16 N          34.9505   15.0580    1.5305 N.am      2 SEC2        0.0000 
     17 N          33.9410   14.9720    2.8670 N.am     10 SEL2        0.0000 
     18 N          35.9600   15.1440    0.1940 N.am      6 SEP2        0.0000 
     19 NZ         33.8200   17.8375    8.0650 N.4       3 LYC4        0.0000 
     20 NZ         33.8220   18.2730    6.4010 N.4      11 LYL4        0.0000 
     21 NZ         33.9860   18.7130    9.8790 N.4       7 LYP4        0.0000 
     22 N          33.8890   18.8920    7.6040 N.am      2 SEC2        0.0000 
     23 N          33.8220   18.2730    6.4010 N.am     10 SEL2        0.0000 
     24 N          33.9560   19.5110    8.8070 N.am      6 SEP2        0.0000 
     25 N          33.8200   17.8375    8.0650 N.am      2 SEC2        0.0000 
     26 N          33.8180   17.4020    9.7290 N.am      6 SEP2        0.0000 
     27 NZ         30.4420   17.3680    5.2040 N.4       3 LYC4        0.0000 
     28 NZ         31.4860   17.4350    5.7370 N.4      11 LYL4        0.0000 
     29 N          33.3450   16.7770    8.5620 N.am      2 SEC2        0.0000 
     30 N          32.8720   16.1520    7.3950 N.am     10 SEL2        0.0000 
     31 CA         34.4525   14.4705    6.7720 C.3       4 GLC5        0.0000 
     32 CA         32.5540   14.7690    7.2970 C.3      12 GLL5        0.0000 
     33 CA         36.3510   14.1720    6.2470 C.3       8 GLP5        0.0000 
     34 CA         29.1275   15.8775    6.4315 C.3       4 GLC5        0.0000 
     35 CA         30.1580   15.1170    8.0200 C.3      12 GLL5        0.0000 
     36 CA         28.0970   16.6380    4.8430 C.3       8 GLP5        0.0000 
     37 CA         32.3555   14.5620   11.4625 C.3       4 GLC5        0.0000 
     38 CA         30.6340   15.0510   10.3790 C.3      12 GLL5        0.0000 
     39 CA         34.0770   14.0730   12.5460 C.3       8 GLP5        0.0000 
     40 N          31.7495   18.6190   13.7780 N.am      2 SEC2        0.0000 
     41 N          30.9510   17.6570   12.9380 N.am     10 SEL2        0.0000 
     42 N          32.5480   19.5810   14.6180 N.am      6 SEP2        0.0000 
     43 CA         32.6265   19.5390   11.6315 C.3       4 GLC5        0.0000 
     44 CA         30.8870   18.4460   11.8520 C.3      12 GLL5        0.0000 
     45 CA         34.3660   20.6320   11.4110 C.3       8 GLP5        0.0000 
     46 N          31.2970   22.1910   12.6205 N.am      2 SEC2        0.0000 
     47 N          31.0120   20.7300   12.5080 N.am     10 SEL2        0.0000 
     48 N          31.5820   23.6520   12.7330 N.am      6 SEP2        0.0000 
     49 N          31.7800   20.1555   13.5630 N.am      2 SEC2        0.0000 
     50 O          30.8305   21.6140    9.5390 O.2       1 ALC1        0.0000 
     51 O          30.8140   20.3280   10.3190 O.2       9 ALL1        0.0000 
     52 O          30.8470   22.9000    8.7590 O.2       5 ALP1        0.0000 
     53 O          30.7275   21.4335    8.3870 O.2       1 ALC1        0.0000 
     54 O          30.6080   19.9670    8.0150 O.2       9 ALL1        0.0000 
     55 CA         33.1253   13.4885    9.2512 C.3       4 GLC5        0.0000 
     56 CA         34.2390   12.3890   10.7030 C.3       8 GLP5        0.0000 
     57 CA         28.7972   16.2420   10.8575 C.3       4 GLC5        0.0000 
     58 CA         27.5350   17.3880   11.8350 C.3       8 GLP5        0.0000 
@<TRIPOS>BOND
@<TRIPOS>SUBSTRUCTURE
     1 ALC1       50 GROUP        1 X    ALC  0     ROOT ALC X 1
     2 SEC2        4 GROUP        1 X    SEC  0     **** SEC X 2
     3 LYC4        1 GROUP        1 X    LYC  0     **** LYC X 4
     4 GLC5       31 GROUP        1 X    GLC  0     **** GLC X 6
     5 ALP1       52 GROUP        1 Y    ALP  0     ROOT ALP Y 8
     6 SEP2        6 GROUP        1 Y    SEP  0     **** SEP Y 9
     7 LYP4        3 GROUP        1 Y    LYP  0     **** LYP Y 11
     8 GLP5       33 GROUP        1 Y    GLP  0     **** GLP Y 13
     9 ALL1       51 GROUP        1 Z    ALL  0     ROOT ALL Z 15
    10 SEL2        5 GROUP        1 Z    SEL  0     **** SEL Z 16
    11 LYL4        2 GROUP        1 Z    LYL  0     **** LYL Z 18
    12 GLL5       32 GROUP        1 Z    GLL  0     **** GLL Z 20
@<TRIPOS>SET

