#    Name: 4lrl_DGT_2_ligand
#    Modification time : Tue Mar 25 11:26:54 2014

@<TRIPOS>MOLECULE
4lrl_DGT_2_ligand
   43    45     1     0     0
SMALL
NO_CHARGES


@<TRIPOS>ATOM
      1 PG         31.4070   17.4960    2.0100 P.3       1 DGT502      0.0000 
      2 O1G        30.7920   18.6640    2.7600 O.co2     1 DGT502      0.0000 
      3 O2G        30.5140   16.2670    1.9380 O.co2     1 DGT502      0.0000 
      4 O3G        32.0510   17.8260    0.6710 O.co2     1 DGT502      0.0000 
      5 O3B        32.6700   17.1650    2.9520 O.3       1 DGT502      0.0000 
      6 PB         32.8980   15.7400    3.6410 P.3       1 DGT502      0.0000 
      7 O1B        31.5710   15.0840    3.9710 O.co2     1 DGT502      0.0000 
      8 O2B        33.9410   14.9720    2.8670 O.co2     1 DGT502      0.0000 
      9 O3A        33.6190   16.2040    5.0060 O.3       1 DGT502      0.0000 
     10 PA         32.9010   17.1180    6.1100 P.3       1 DGT502      0.0000 
     11 O1A        33.8220   18.2730    6.4010 O.co2     1 DGT502      0.0000 
     12 O2A        31.4860   17.4350    5.7370 O.co2     1 DGT502      0.0000 
     13 O5'        32.8720   16.1520    7.3950 O.3       1 DGT502      0.0000 
     14 C5'        32.5540   14.7690    7.2970 C.3       1 DGT502      0.0000 
     15 C4'        31.4690   14.4070    8.3020 C.3       1 DGT502      0.0000 
     16 O4'        31.8180   14.8140    9.6260 O.3       1 DGT502      0.0000 
     17 C3'        30.1580   15.1170    8.0200 C.3       1 DGT502      0.0000 
     18 O3'        29.3850   14.4210    7.0370 O.3       1 DGT502      0.0000 
     19 C2'        29.4850   15.1410    9.3810 C.3       1 DGT502      0.0000 
     20 C1'        30.6340   15.0510   10.3790 C.3       1 DGT502      0.0000 
     21 N9         30.7520   16.3060   11.1720 N.pl3     1 DGT502      0.0000 
     22 C8         30.8670   16.3740   12.5160 C.2       1 DGT502      0.0000 
     23 N7         30.9510   17.6570   12.9380 N.2       1 DGT502      0.0000 
     24 C5         30.8870   18.4460   11.8520 C.2       1 DGT502      0.0000 
     25 C6         30.9140   19.9090   11.5820 C.2       1 DGT502      0.0000 
     26 O6         31.0120   20.7300   12.5080 O.2       1 DGT502      0.0000 
     27 N1         30.8140   20.3280   10.3190 N.am      1 DGT502      0.0000 
     28 C2         30.7000   19.4670    9.2800 C.2       1 DGT502      0.0000 
     29 N2         30.6080   19.9670    8.0150 N.pl3     1 DGT502      0.0000 
     30 N3         30.6730   18.1120    9.4480 N.2       1 DGT502      0.0000 
     31 C4         30.7550   17.5560   10.6880 C.2       1 DGT502      0.0000 
     32 H          33.4272   14.1341    7.5035 H         1 DGT502      0.0000 
     33 H          32.1847   14.5054    6.2958 H         1 DGT502      0.0000 
     34 H          31.2847   13.3470    8.2698 H         1 DGT502      0.0000 
     35 H          30.3855   16.1248    7.7466 H         1 DGT502      0.0000 
     36 H          28.8499   14.2930    9.4873 H         1 DGT502      0.0000 
     37 H          28.9657   16.0611    9.5134 H         1 DGT502      0.0000 
     38 H          30.4281   14.2215   11.0385 H         1 DGT502      0.0000 
     39 H          30.8872   15.5925   13.1125 H         1 DGT502      0.0000 
     40 H          30.8233   21.3665   10.1136 H         1 DGT502      0.0000 
     41 H          30.6752   20.9610    7.9288 H         1 DGT502      0.0000 
     42 H          30.4814   19.2957    7.2847 H         1 DGT502      0.0000 
     43 H          29.9470   13.6370    6.7736 H         1 DGT502      0.0000 
@<TRIPOS>BOND
     1    2    1 ar   
     2    3    1 ar   
     3    4    1 ar   
     4    5    1 1    
     5    6    5 1    
     6    7    6 ar   
     7    8    6 ar   
     8    9    6 1    
     9   10    9 1    
    10   11   10 ar   
    11   12   10 ar   
    12   13   10 1    
    13   14   13 1    
    14   15   14 1    
    15   32   14 1    
    16   33   14 1    
    17   16   15 1    
    18   17   15 1    
    19   34   15 1    
    20   20   16 1    
    21   18   17 1    
    22   19   17 1    
    23   35   17 1    
    24   43   18 1    
    25   20   19 1    
    26   36   19 1    
    27   37   19 1    
    28   21   20 1    
    29   38   20 1    
    30   22   21 1    
    31   31   21 1    
    32   23   22 2    
    33   39   22 1    
    34   24   23 1    
    35   25   24 1    
    36   31   24 2    
    37   26   25 2    
    38   27   25 am   
    39   28   27 1    
    40   40   27 1    
    41   29   28 1    
    42   30   28 2    
    43   41   29 1    
    44   42   29 1    
    45   31   30 1    
@<TRIPOS>SUBSTRUCTURE
     1 DGT502      1 GROUP   
@<TRIPOS>SET

