#    Name: 3IK9_2_CAVITY_N1_ALL.mol2
#    Modification time : Tue Mar 11 02:50:53 2014

@<TRIPOS>MOLECULE
3IK9_2_CAVITY_N1_ALL.mol2
   76     0     5     0     0
SMALL
NO_CHARGES


@<TRIPOS>ATOM
      1 CZ        -31.9704    8.5167   32.8910 C.ar      3 PHE5        0.0000 
      2 CA        -32.9064    8.7509   34.0395 C.3       4 GLY6        0.0000 
      3 CZ        -33.8423    8.9850   35.1881 C.ar      3 PHE5        0.0000 
      4 DU        -30.2898    4.3504   33.1510 H         5 CUB7        0.0000 
      5 DU        -31.2258    4.5846   34.2995 H         5 CUB7        0.0000 
      6 O         -30.9113    3.0051   32.9187 O.2       2 ALA2        0.0000 
      7 O         -29.3612    8.6204   34.9962 O.2       2 ALA2        0.0000 
      8 O         -30.2972    8.8545   36.1447 O.2       2 ALA2        0.0000 
      9 CA        -31.2332    9.0887   37.2932 C.3       4 GLY6        0.0000 
     10 O         -30.2320    3.9637   35.2359 O.2       2 ALA2        0.0000 
     11 CA        -31.1680    4.1979   36.3845 C.3       4 GLY6        0.0000 
     12 CA        -34.8361    9.6058   34.2516 C.3       4 GLY6        0.0000 
     13 CZ        -31.3488    9.8620   33.1233 C.ar      3 PHE5        0.0000 
     14 CA        -32.2848   10.0961   34.2718 C.3       4 GLY6        0.0000 
     15 CA        -37.7523    6.5774   30.5334 C.3       4 GLY6        0.0000 
     16 CZ        -38.6883    6.8116   31.6819 C.ar      3 PHE5        0.0000 
     17 CZ        -39.6243    7.0457   32.8305 C.ar      3 PHE5        0.0000 
     18 CZ        -29.4191    9.0070   32.9112 C.ar      3 PHE5        0.0000 
     19 OG        -30.3550    9.2412   34.0597 O.2       1 SER1        0.0000 
     20 DU        -31.2910    9.4753   35.2082 H         5 CUB7        0.0000 
     21 CZ        -32.2270    9.7095   36.3568 C.ar      3 PHE5        0.0000 
     22 N         -29.1046    7.4276   31.5304 N.2       2 ALA2        0.0000 
     23 CZ        -30.0406    7.6618   32.6790 C.ar      3 PHE5        0.0000 
     24 OG        -30.6695   10.8206   35.4405 O.2       1 SER1        0.0000 
     25 CZ        -31.6055   11.0548   36.5890 C.ar      3 PHE5        0.0000 
     26 CZ        -35.5155    8.6472   31.9344 C.ar      3 PHE5        0.0000 
     27 CA        -36.4515    8.8813   33.0829 C.3       4 GLY6        0.0000 
     28 CZ        -36.1370    7.3019   31.7021 C.ar      3 PHE5        0.0000 
     29 CZ        -37.0730    7.5361   32.8506 C.ar      3 PHE5        0.0000 
     30 CZ        -38.0090    7.7702   33.9992 C.ar      3 PHE5        0.0000 
     31 CZ        -40.6181    7.6665   31.8940 C.ar      3 PHE5        0.0000 
     32 DU        -30.9766    7.8959   33.8275 H         5 CUB7        0.0000 
     33 DU        -31.9126    8.1301   34.9760 H         5 CUB7        0.0000 
     34 CZ        -32.8485    8.3642   36.1245 C.ar      3 PHE5        0.0000 
     35 CZ        -29.7261    6.0823   31.2982 C.ar      3 PHE5        0.0000 
     36 CZ        -30.6621    6.3165   32.4467 C.ar      3 PHE5        0.0000 
     37 DU        -31.5981    6.5506   33.5952 H         5 CUB7        0.0000 
     38 DU        -32.5341    6.7848   34.7438 H         5 CUB7        0.0000 
     39 CA        -33.4701    7.0189   35.8923 C.3       4 GLY6        0.0000 
     40 CA        -34.4061    7.2531   37.0408 C.3       4 GLY6        0.0000 
     41 OG        -29.6757   10.1998   36.3770 O.2       1 SER1        0.0000 
     42 CA        -34.5217    8.0264   32.8708 C.3       4 GLY6        0.0000 
     43 CZ        -35.4577    8.2605   34.0193 C.ar      3 PHE5        0.0000 
     44 CZ        -36.3937    8.4947   35.1679 C.ar      3 PHE5        0.0000 
     45 CZ        -38.0668    8.1569   31.9142 C.ar      3 PHE5        0.0000 
     46 O         -28.6745    5.0749   34.3197 O.2       2 ALA2        0.0000 
     47 O         -29.0468    7.0410   33.6154 O.2       2 ALA2        0.0000 
     48 O         -29.9828    7.2751   34.7640 O.2       2 ALA2        0.0000 
     49 O         -30.9188    7.5093   35.9125 O.2       2 ALA2        0.0000 
     50 CA        -31.8547    7.7434   37.0610 C.3       4 GLY6        0.0000 
     51 N         -28.7323    5.4615   32.2347 N.2       2 ALA2        0.0000 
     52 O         -29.6683    5.6957   33.3832 O.2       2 ALA2        0.0000 
     53 O         -30.6043    5.9298   34.5317 O.2       2 ALA2        0.0000 
     54 CA        -31.5403    6.1640   35.6802 C.3       4 GLY6        0.0000 
     55 CZ        -34.2072    6.4470   31.4901 C.ar      3 PHE5        0.0000 
     56 CZ        -35.1432    6.6811   32.6386 C.ar      3 PHE5        0.0000 
     57 DU        -36.0792    6.9153   33.7871 H         5 CUB7        0.0000 
     58 CA        -37.0152    7.1494   34.9356 C.3       4 GLY6        0.0000 
     59 CA        -37.9512    7.3836   36.0841 C.3       4 GLY6        0.0000 
     60 CZ        -33.8927    4.8675   30.1093 C.ar      3 PHE5        0.0000 
     61 CZ        -34.8287    5.1017   31.2578 C.ar      3 PHE5        0.0000 
     62 CZ        -30.3476    4.7370   31.0660 C.ar      3 PHE5        0.0000 
     63 DU        -31.2836    4.9712   32.2145 H         5 CUB7        0.0000 
     64 DU        -32.2196    5.2054   33.3630 H         5 CUB7        0.0000 
     65 DU        -33.1556    5.4395   34.5115 H         5 CUB7        0.0000 
     66 CA        -34.0916    5.6737   35.6600 C.3       4 GLY6        0.0000 
     67 CZ        -32.5919    7.1714   32.6588 C.ar      3 PHE5        0.0000 
     68 DU        -33.5279    7.4056   33.8073 H         5 CUB7        0.0000 
     69 CZ        -34.4639    7.6397   34.9558 C.ar      3 PHE5        0.0000 
     70 CZ        -35.3999    7.8739   36.1043 C.ar      3 PHE5        0.0000 
     71 CZ        -32.2774    5.5920   31.2780 C.ar      3 PHE5        0.0000 
     72 CZ        -33.2134    5.8262   32.4265 C.ar      3 PHE5        0.0000 
     73 DU        -34.1494    6.0603   33.5751 H         5 CUB7        0.0000 
     74 DU        -35.0854    6.2945   34.7236 H         5 CUB7        0.0000 
     75 CA        -36.0214    6.5286   35.8721 C.3       4 GLY6        0.0000 
     76 CA        -36.9574    6.7628   37.0206 C.3       4 GLY6        0.0000 
@<TRIPOS>BOND
@<TRIPOS>SUBSTRUCTURE
     1 SER1       19 GROUP   
     2 ALA2        6 GROUP   
     3 PHE5        1 GROUP   
     4 GLY6        2 GROUP   
     5 CUB7        4 GROUP   
@<TRIPOS>SET

