#    Name: 3ik9_BOB_2_INTS_M
#    Modification time : Tue Mar 25 16:41:47 2014

@<TRIPOS>MOLECULE
3ik9_BOB_2_INTS_M
  104     0    15     0     0
SMALL
NO_CHARGES


@<TRIPOS>ATOM
      1 OD1       -25.0235    0.1355   36.4300 O.co2     3 ASC3        0.0000 
      2 OD1       -24.7510    1.6200   35.9240 O.co2    13 ASL3        0.0000 
      3 OD1       -25.2960   -1.3490   36.9360 O.co2     8 ASP3        0.0000 
      4 OD1       -24.9600    0.3720   35.3635 O.co2     3 ASC3        0.0000 
      5 OD1       -25.1690   -0.8760   34.8030 O.co2     8 ASP3        0.0000 
      6 O         -25.0235    0.1355   36.4300 O.2       1 ALC1        0.0000 
      7 O         -24.7510    1.6200   35.9240 O.2      11 ALL1        0.0000 
      8 O         -25.2960   -1.3490   36.9360 O.2       6 ALP1        0.0000 
      9 O         -24.9600    0.3720   35.3635 O.2       1 ALC1        0.0000 
     10 O         -25.1690   -0.8760   34.8030 O.2       6 ALP1        0.0000 
     11 O         -23.4780    1.4590   35.3750 O.2       1 ALC1        0.0000 
     12 O         -22.2050    1.2980   34.8260 O.2       6 ALP1        0.0000 
     13 O         -26.9570    6.2340   32.0535 O.2       1 ALC1        0.0000 
     14 O         -28.0820    5.5590   32.5980 O.2      11 ALL1        0.0000 
     15 O         -25.8320    6.9090   31.5090 O.2       6 ALP1        0.0000 
     16 N         -27.2985    5.9940   29.4760 N.am      2 SEC2        0.0000 
     17 N         -28.7870    5.7350   29.9370 N.am     12 SEL2        0.0000 
     18 N         -25.8100    6.2530   29.0150 N.am      7 SEP2        0.0000 
     19 N         -22.9365    5.4020   36.5470 N.am      2 SEC2        0.0000 
     20 N         -23.7770    4.1680   36.5580 N.am     12 SEL2        0.0000 
     21 N         -22.0960    6.6360   36.5360 N.am      7 SEP2        0.0000 
     22 N         -21.8360    4.6575   34.8155 N.am      2 SEC2        0.0000 
     23 N         -23.3050    4.4040   34.4480 N.am     12 SEL2        0.0000 
     24 N         -20.3670    4.9110   35.1830 N.am      7 SEP2        0.0000 
     25 N         -22.7005    5.5200   35.4920 N.am      2 SEC2        0.0000 
     26 NZ        -31.3200    0.9165   27.9475 N.4       4 LYC4        0.0000 
     27 NZ        -31.5690    1.9840   28.5760 N.4      14 LYL4        0.0000 
     28 NZ        -30.1750   -0.8280   28.0180 N.4       9 LYP4        0.0000 
     29 N         -30.7700    0.7325   28.9335 N.am      2 SEC2        0.0000 
     30 N         -31.5690    1.9840   28.5760 N.am     12 SEL2        0.0000 
     31 N         -29.9710   -0.5190   29.2910 N.am      7 SEP2        0.0000 
     32 N         -31.3200    0.9165   27.9475 N.am      2 SEC2        0.0000 
     33 N         -31.0710   -0.1510   27.3190 N.am      7 SEP2        0.0000 
     34 NZ        -30.7700    0.7325   28.9335 N.4       4 LYC4        0.0000 
     35 NZ        -30.4840    2.0170   30.4820 N.4      14 LYL4        0.0000 
     36 N         -30.2275    0.7490   29.8865 N.am      2 SEC2        0.0000 
     37 N         -30.4840    2.0170   30.4820 N.am     12 SEL2        0.0000 
     38 N         -29.3205    1.5190   31.1470 N.am      2 SEC2        0.0000 
     39 N         -28.1570    1.0210   31.8120 N.am      7 SEP2        0.0000 
     40 CA        -32.1270    6.7045   37.3005 C.3       5 GLC5        0.0000 
     41 CA        -31.6650    7.2030   35.2920 C.3      15 GLL5        0.0000 
     42 CA        -32.5890    6.2060   39.3090 C.3      10 GLP5        0.0000 
     43 CA        -32.5505    7.7885   31.9775 C.3       5 GLC5        0.0000 
     44 CA        -32.5920    7.2280   34.0770 C.3      15 GLL5        0.0000 
     45 CA        -32.5090    8.3490   29.8780 C.3      10 GLP5        0.0000 
     46 CA        -34.3855    7.9070   31.4490 C.3       5 GLC5        0.0000 
     47 CA        -34.8930    7.5450   33.2180 C.3      15 GLL5        0.0000 
     48 CA        -33.8780    8.2690   29.6800 C.3      10 GLP5        0.0000 
     49 CA        -36.5540    9.2210   34.8395 C.3       5 GLC5        0.0000 
     50 CA        -36.3780    7.5590   33.5390 C.3      15 GLL5        0.0000 
     51 CA        -36.7300   10.8830   36.1400 C.3      10 GLP5        0.0000 
     52 CA        -38.2280    8.5200   33.8405 C.3       5 GLC5        0.0000 
     53 CA        -40.0780    9.4810   34.1420 C.3      10 GLP5        0.0000 
     54 CA        -38.5275    8.4375   32.6365 C.3       5 GLC5        0.0000 
     55 CA        -37.1720    6.9130   32.4220 C.3      15 GLL5        0.0000 
     56 CA        -39.8830    9.9620   32.8510 C.3      10 GLP5        0.0000 
     57 CA        -36.5185    7.1395   30.4445 C.3       5 GLC5        0.0000 
     58 CA        -35.8650    7.3660   28.4670 C.3      10 GLP5        0.0000 
     59 CA        -28.5795   11.2195   34.9935 C.3       5 GLC5        0.0000 
     60 CA        -30.2730   10.5070   36.1590 C.3      15 GLL5        0.0000 
     61 CA        -26.8860   11.9320   33.8280 C.3      10 GLP5        0.0000 
     62 CA        -28.8885   11.7020   36.9365 C.3       5 GLC5        0.0000 
     63 CA        -27.5040   12.8970   37.7140 C.3      10 GLP5        0.0000 
     64 CA        -28.3720    9.4645   36.5125 C.3       5 GLC5        0.0000 
     65 CA        -26.4710    8.4220   36.8660 C.3      10 GLP5        0.0000 
     66 CA        -29.7270    9.9370   37.9090 C.3       5 GLC5        0.0000 
     67 CA        -29.1810    9.3670   39.6590 C.3      10 GLP5        0.0000 
     68 N         -28.9015   11.5345   35.1000 N.am      2 SEC2        0.0000 
     69 N         -30.0820   11.7180   35.4370 N.am     12 SEL2        0.0000 
     70 N         -27.7210   11.3510   34.7630 N.am      7 SEP2        0.0000 
     71 N         -30.0375   12.9280   35.2130 N.am      2 SEC2        0.0000 
     72 N         -29.9930   14.1380   34.9890 N.am      7 SEP2        0.0000 
     73 N         -29.4690    6.2030   36.1000 N.am      2 SEC2        0.0000 
     74 N         -31.0400    5.9430   35.5290 N.am     12 SEL2        0.0000 
     75 N         -27.8980    6.4630   36.6710 N.am      7 SEP2        0.0000 
     76 N         -30.1020    5.6485   36.8695 N.am      2 SEC2        0.0000 
     77 N         -29.1640    5.3540   38.2100 N.am      7 SEP2        0.0000 
     78 CA        -29.2965    3.1645   29.6765 C.3       5 GLC5        0.0000 
     79 CA        -31.1940    4.0900   29.4690 C.3      15 GLL5        0.0000 
     80 CA        -27.3990    2.2390   29.8840 C.3      10 GLP5        0.0000 
     81 CA        -31.6800    5.4445   28.7770 C.3       5 GLC5        0.0000 
     82 CA        -32.1660    6.7990   28.0850 C.3      10 GLP5        0.0000 
     83 CA        -26.4560    3.8725   31.7250 C.3       5 GLC5        0.0000 
     84 CA        -26.3840    4.2940   33.7200 C.3      15 GLL5        0.0000 
     85 CA        -26.5280    3.4510   29.7300 C.3      10 GLP5        0.0000 
     86 CA        -25.1425    6.0425   33.3710 C.3       5 GLC5        0.0000 
     87 CA        -23.9010    7.7910   33.0220 C.3      10 GLP5        0.0000 
     88 CA        -27.7940    9.6525   33.3785 C.3       5 GLC5        0.0000 
     89 CA        -29.3490    8.1480   33.8750 C.3      15 GLL5        0.0000 
     90 CA        -26.2390   11.1570   32.8820 C.3      10 GLP5        0.0000 
     91 CA        -28.2993    7.6260   35.3710 C.3       5 GLC5        0.0000 
     92 CA        -26.6620    7.0730   36.1890 C.3      10 GLP5        0.0000 
     93 CA        -34.7604    9.3367   32.9570 C.3       5 GLC5        0.0000 
     94 CA        -34.0420    7.4870   34.4760 C.3      15 GLL5        0.0000 
     95 CA        -34.0980   11.1360   32.2210 C.3      10 GLP5        0.0000 
     96 CA        -32.4622   10.7630   36.4175 C.3       5 GLC5        0.0000 
     97 CA        -31.1520    9.5950   35.3290 C.3      15 GLL5        0.0000 
     98 CA        -34.2120   11.4750   37.0910 C.3      10 GLP5        0.0000 
     99 CA        -30.6070    7.1315   30.6883 C.3       5 GLC5        0.0000 
    100 CA        -29.6770    7.4130   32.3040 C.3      15 GLL5        0.0000 
    101 CA        -31.6490    7.6030   29.0810 C.3      10 GLP5        0.0000 
    102 CA        -26.4925    5.4475   35.2510 C.3       5 GLC5        0.0000 
    103 CA        -29.6295    9.5617   32.0682 C.3       5 GLC5        0.0000 
    104 CA        -29.7460   11.3430   31.0470 C.3      10 GLP5        0.0000 
@<TRIPOS>BOND
@<TRIPOS>SUBSTRUCTURE
     1 ALC1        6 GROUP        1 X    ALC  0     ROOT ALC X 1
     2 SEC2       16 GROUP        1 X    SEC  0     **** SEC X 2
     3 ASC3        1 GROUP        1 X    ASC  0     **** ASC X 3
     4 LYC4       26 GROUP        1 X    LYC  0     **** LYC X 4
     5 GLC5       40 GROUP        1 X    GLC  0     **** GLC X 6
     6 ALP1        8 GROUP        1 Y    ALP  0     ROOT ALP Y 8
     7 SEP2       18 GROUP        1 Y    SEP  0     **** SEP Y 9
     8 ASP3        3 GROUP        1 Y    ASP  0     **** ASP Y 10
     9 LYP4       28 GROUP        1 Y    LYP  0     **** LYP Y 11
    10 GLP5       42 GROUP        1 Y    GLP  0     **** GLP Y 13
    11 ALL1        7 GROUP        1 Z    ALL  0     ROOT ALL Z 15
    12 SEL2       17 GROUP        1 Z    SEL  0     **** SEL Z 16
    13 ASL3        2 GROUP        1 Z    ASL  0     **** ASL Z 17
    14 LYL4       27 GROUP        1 Z    LYL  0     **** LYL Z 18
    15 GLL5       41 GROUP        1 Z    GLL  0     **** GLL Z 20
@<TRIPOS>SET

