#    Name: 3ik9_BOB_2_ligand
#    Modification time : Tue Mar 25 16:41:47 2014

@<TRIPOS>MOLECULE
3ik9_BOB_2_ligand
   65    64     1     0     0
SMALL
NO_CHARGES


@<TRIPOS>ATOM
      1 C1        -23.9150    3.8440   35.3610 C.2       1 BOB502      0.0000 
      2 N1        -24.7510    1.6200   35.9240 N.4       1 BOB502      0.0000 
      3 C2        -29.6560    5.4280   30.8990 C.2       1 BOB502      0.0000 
      4 N2        -28.0820    5.5590   32.5980 N.am      1 BOB502      0.0000 
      5 O2        -28.7870    5.7350   29.9370 O.2       1 BOB502      0.0000 
      6 C3        -31.0760    2.5930   29.5320 C.2       1 BOB502      0.0000 
      7 N3        -30.7250    4.6950   30.6970 N.am      1 BOB502      0.0000 
      8 O11       -23.7770    4.1680   36.5580 O.co2     1 BOB502      0.0000 
      9 O12       -23.3050    4.4040   34.4480 O.co2     1 BOB502      0.0000 
     10 O31       -31.5690    1.9840   28.5760 O.co2     1 BOB502      0.0000 
     11 O32       -30.4840    2.0170   30.4820 O.co2     1 BOB502      0.0000 
     12 C40       -30.5240    8.2100   35.2310 C.3       1 BOB502      0.0000 
     13 C42       -31.6650    7.2030   35.2920 C.3       1 BOB502      0.0000 
     14 C43       -32.5920    7.2280   34.0770 C.3       1 BOB502      0.0000 
     15 C44       -34.0420    7.4870   34.4760 C.3       1 BOB502      0.0000 
     16 C45       -34.8930    7.5450   33.2180 C.3       1 BOB502      0.0000 
     17 C46       -36.3780    7.5590   33.5390 C.3       1 BOB502      0.0000 
     18 C47       -37.1720    6.9130   32.4220 C.3       1 BOB502      0.0000 
     19 C54       -31.1520    9.5950   35.3290 C.3       1 BOB502      0.0000 
     20 C55       -30.2730   10.5070   36.1590 C.3       1 BOB502      0.0000 
     21 O56       -30.0820   11.7180   35.4370 O.3       1 BOB502      0.0000 
     22 O60       -31.0400    5.9430   35.5290 O.3       1 BOB502      0.0000 
     23 CA1       -24.8570    2.7440   34.9780 C.3       1 BOB502      0.0000 
     24 CA2       -29.4530    5.9070   32.2870 C.3       1 BOB502      0.0000 
     25 CA3       -31.1940    4.0900   29.4690 C.3       1 BOB502      0.0000 
     26 CB1       -26.2620    3.3500   34.9060 C.3       1 BOB502      0.0000 
     27 CB2       -29.6770    7.4130   32.3040 C.3       1 BOB502      0.0000 
     28 CD1       -27.8160    4.6220   33.4800 C.2       1 BOB502      0.0000 
     29 OE1       -28.7850    4.0430   34.1390 O.2       1 BOB502      0.0000 
     30 CG1       -26.3840    4.2940   33.7200 C.3       1 BOB502      0.0000 
     31 SG2       -29.3490    8.1480   33.8750 S.3       1 BOB502      0.0000 
     32 H         -27.3487    6.0865   32.0899 H         1 BOB502      0.0000 
     33 H         -31.3863    4.4839   31.5463 H         1 BOB502      0.0000 
     34 H         -29.8753    8.0911   36.1223 H         1 BOB502      0.0000 
     35 H         -32.2632    7.4763   36.1856 H         1 BOB502      0.0000 
     36 H         -32.5277    6.2683   33.5578 H         1 BOB502      0.0000 
     37 H         -32.2621    8.0124   33.3910 H         1 BOB502      0.0000 
     38 H         -34.1064    8.4297   35.0017 H         1 BOB502      0.0000 
     39 H         -34.3880    6.6837   35.1117 H         1 BOB502      0.0000 
     40 H         -34.6679    6.6763   32.5905 H         1 BOB502      0.0000 
     41 H         -34.6379    8.4470   32.6518 H         1 BOB502      0.0000 
     42 H         -36.7083    8.5898   33.6701 H         1 BOB502      0.0000 
     43 H         -36.5506    7.0156   34.4684 H         1 BOB502      0.0000 
     44 H         -32.1320    9.5116   35.7930 H         1 BOB502      0.0000 
     45 H         -31.2652   10.0082   34.3294 H         1 BOB502      0.0000 
     46 H         -29.3287    9.9917   36.3457 H         1 BOB502      0.0000 
     47 H         -30.7690   10.6783   37.1165 H         1 BOB502      0.0000 
     48 H         -24.5912    2.4154   33.9727 H         1 BOB502      0.0000 
     49 H         -30.1363    5.4280   32.9309 H         1 BOB502      0.0000 
     50 H         -32.2469    4.3507   29.2822 H         1 BOB502      0.0000 
     51 H         -30.6113    4.4513   28.6079 H         1 BOB502      0.0000 
     52 H         -26.4613    3.8960   35.8271 H         1 BOB502      0.0000 
     53 H         -26.9910    2.5468   34.8077 H         1 BOB502      0.0000 
     54 H         -30.7026    7.6864   32.1101 H         1 BOB502      0.0000 
     55 H         -29.0142    7.9428   31.6376 H         1 BOB502      0.0000 
     56 H         -25.9557    3.8133   32.8406 H         1 BOB502      0.0000 
     57 H         -25.8205    5.2024   33.9324 H         1 BOB502      0.0000 
     58 H         -24.9738    1.8985   36.8582 H         1 BOB502      0.0000 
     59 H         -25.3719    0.8735   35.6848 H         1 BOB502      0.0000 
     60 H         -23.8272    1.2377   35.9445 H         1 BOB502      0.0000 
     61 H         -37.0442    7.3892   31.5520 H         1 BOB502      0.0000 
     62 H         -36.9026    5.9609   32.2773 H         1 BOB502      0.0000 
     63 H         -38.1532    6.9138   32.6152 H         1 BOB502      0.0000 
     64 H         -30.3567   11.5062   34.4991 H         1 BOB502      0.0000 
     65 H         -31.7431    5.3841   35.9686 H         1 BOB502      0.0000 
@<TRIPOS>BOND
     1    8    1 ar   
     2    9    1 ar   
     3   23    1 1    
     4   23    2 1    
     5   58    2 1    
     6   59    2 1    
     7   60    2 1    
     8    5    3 2    
     9    7    3 am   
    10   24    3 1    
    11   24    4 1    
    12   28    4 am   
    13   32    4 1    
    14   10    6 ar   
    15   11    6 ar   
    16   25    6 1    
    17   25    7 1    
    18   33    7 1    
    19   13   12 1    
    20   19   12 1    
    21   31   12 1    
    22   34   12 1    
    23   14   13 1    
    24   22   13 1    
    25   35   13 1    
    26   15   14 1    
    27   36   14 1    
    28   37   14 1    
    29   16   15 1    
    30   38   15 1    
    31   39   15 1    
    32   17   16 1    
    33   40   16 1    
    34   41   16 1    
    35   18   17 1    
    36   42   17 1    
    37   43   17 1    
    38   61   18 1    
    39   62   18 1    
    40   63   18 1    
    41   20   19 1    
    42   44   19 1    
    43   45   19 1    
    44   21   20 1    
    45   46   20 1    
    46   47   20 1    
    47   64   21 1    
    48   65   22 1    
    49   26   23 1    
    50   48   23 1    
    51   27   24 1    
    52   49   24 1    
    53   50   25 1    
    54   51   25 1    
    55   30   26 1    
    56   52   26 1    
    57   53   26 1    
    58   31   27 1    
    59   54   27 1    
    60   55   27 1    
    61   29   28 2    
    62   30   28 1    
    63   56   30 1    
    64   57   30 1    
@<TRIPOS>SUBSTRUCTURE
     1 BOB502      1 GROUP   
@<TRIPOS>SET

