#    Name: 2p33_J07_1_INTS_M
#    Modification time : Mon Mar 24 18:16:46 2014

@<TRIPOS>MOLECULE
2p33_J07_1_INTS_M
   70     0     9     0     0
SMALL
NO_CHARGES


@<TRIPOS>ATOM
      1 CA         27.5395    4.8525   26.0290 C.3       3 GLC5        0.0000 
      2 CA         28.4270    5.0480   27.9700 C.3       9 GLL5        0.0000 
      3 CA         26.6520    4.6570   24.0880 C.3       6 GLP5        0.0000 
      4 N          24.3510    6.2715   26.4690 N.am      2 SEC2        0.0000 
      5 N          25.9170    6.4400   26.9220 N.am      8 SEL2        0.0000 
      6 N          22.7850    6.1030   26.0160 N.am      5 SEP2        0.0000 
      7 CA         23.5775    7.9695   27.2540 C.3       3 GLC5        0.0000 
      8 CA         24.5380    7.4400   29.1350 C.3       9 GLL5        0.0000 
      9 CA         22.6170    8.4990   25.3730 C.3       6 GLP5        0.0000 
     10 CA         21.5485    7.6465   28.8835 C.3       3 GLC5        0.0000 
     11 CA         23.1780    7.1060   29.7560 C.3       9 GLL5        0.0000 
     12 CA         19.9190    8.1870   28.0110 C.3       6 GLP5        0.0000 
     13 CA         23.6105    6.9580   33.2450 C.3       3 GLC5        0.0000 
     14 CA         23.3740    6.6250   31.2170 C.3       9 GLL5        0.0000 
     15 CA         23.8470    7.2910   35.2730 C.3       6 GLP5        0.0000 
     16 O          21.5890    4.8445   31.9160 O.2       1 ALC1        0.0000 
     17 O          22.0520    6.3120   31.8210 O.2       7 ALL1        0.0000 
     18 O          21.1260    3.3770   32.0110 O.2       4 ALP1        0.0000 
     19 CA         22.4970    7.2755   33.7880 C.3       3 GLC5        0.0000 
     20 CA         21.1470    7.2600   32.3030 C.3       9 GLL5        0.0000 
     21 CA         21.2460    5.8285   33.8640 C.3       3 GLC5        0.0000 
     22 CA         21.3450    4.3970   35.4250 C.3       6 GLP5        0.0000 
     23 CA         19.7590    6.0025   31.4320 C.3       3 GLC5        0.0000 
     24 CA         18.3710    4.7450   30.5610 C.3       6 GLP5        0.0000 
     25 CA         17.0945    8.0880   32.7955 C.3       3 GLC5        0.0000 
     26 CA         19.1420    7.8510   33.3800 C.3       9 GLL5        0.0000 
     27 CA         15.0470    8.3250   32.2110 C.3       6 GLP5        0.0000 
     28 CA         18.6920    6.0145   34.3130 C.3       3 GLC5        0.0000 
     29 CA         18.2420    4.1780   35.2460 C.3       6 GLP5        0.0000 
     30 CA         18.7565    6.2980   31.9705 C.3       3 GLC5        0.0000 
     31 N          19.3745    5.5330   32.9065 N.am      2 SEC2        0.0000 
     32 N          19.9950    6.8680   32.9200 N.am      8 SEL2        0.0000 
     33 N          18.7540    4.1980   32.8930 N.am      5 SEP2        0.0000 
     34 CA         19.0590    9.0635   35.3240 C.3       3 GLC5        0.0000 
     35 CA         18.1740   10.3030   33.8950 C.3       9 GLL5        0.0000 
     36 CA         19.9440    7.8240   36.7530 C.3       6 GLP5        0.0000 
     37 CA         16.3300    9.9680   33.3150 C.3       3 GLC5        0.0000 
     38 CA         14.4860    9.6330   32.7350 C.3       6 GLP5        0.0000 
     39 CA         17.2680   11.1865   35.0035 C.3       3 GLC5        0.0000 
     40 CA         16.3620   12.0700   36.1120 C.3       6 GLP5        0.0000 
     41 CA         17.8475   10.6800   31.9600 C.3       3 GLC5        0.0000 
     42 CA         17.5210   11.0570   30.0250 C.3       6 GLP5        0.0000 
     43 CA         26.5895   13.4570   31.6145 C.3       3 GLC5        0.0000 
     44 CA         24.6310   12.7280   30.8140 C.3       9 GLL5        0.0000 
     45 CA         28.5480   14.1860   32.4150 C.3       6 GLP5        0.0000 
     46 CA         22.1545   12.5805   33.6880 C.3       3 GLC5        0.0000 
     47 CA         20.3740   12.0870   32.4550 C.3       9 GLL5        0.0000 
     48 CA         23.9350   13.0740   34.9210 C.3       6 GLP5        0.0000 
     49 CA         23.3390    5.7090   28.4563 C.3       3 GLC5        0.0000 
     50 CA         22.8200    4.1450   27.4670 C.3       6 GLP5        0.0000 
     51 CA         25.5560    6.1113   32.6737 C.3       3 GLC5        0.0000 
     52 CA         24.2950    5.3720   31.2230 C.3       9 GLL5        0.0000 
     53 CA         26.1380    6.6870   34.4430 C.3       6 GLP5        0.0000 
     54 CA         23.8970    4.8402   29.1857 C.3       3 GLC5        0.0000 
     55 CA         22.0485   10.5252   34.0845 C.3       3 GLC5        0.0000 
     56 CA         20.5940    9.5520   32.5890 C.3       9 GLL5        0.0000 
     57 CA         23.2520   10.8190   35.7280 C.3       6 GLP5        0.0000 
     58 CA         18.7490   10.2228   31.4740 C.3       3 GLC5        0.0000 
     59 CA         19.5975    8.1810   35.0358 C.3       3 GLC5        0.0000 
     60 CA         19.3600    9.2250   33.2570 C.3       9 GLL5        0.0000 
     61 CA         23.4522   12.0075   33.2592 C.3       3 GLC5        0.0000 
     62 CA         22.3730   11.2950   31.7860 C.3       9 GLL5        0.0000 
     63 CA         24.2955   12.5488   32.8953 C.3       3 GLC5        0.0000 
     64 CA         24.6810   11.3190   30.9250 C.3       9 GLL5        0.0000 
     65 CA         26.1381   11.1428   31.7672 C.3       3 GLC5        0.0000 
     66 CA         27.8990   10.4450   32.5440 C.3       6 GLP5        0.0000 
     67 CA         23.4260   13.0777   33.1718 C.3       3 GLC5        0.0000 
     68 CA         23.4720   13.4510   31.1800 C.3       9 GLL5        0.0000 
     69 CA         20.3456   12.0436   30.4938 C.3       3 GLC5        0.0000 
     70 CA         19.4800   12.0900   28.8340 C.3       6 GLP5        0.0000 
@<TRIPOS>BOND
@<TRIPOS>SUBSTRUCTURE
     1 ALC1       16 GROUP        1 X    ALC  0     ROOT ALC X 1
     2 SEC2        4 GROUP        1 X    SEC  0     **** SEC X 2
     3 GLC5        1 GROUP        1 X    GLC  0     **** GLC X 6
     4 ALP1       18 GROUP        1 Y    ALP  0     ROOT ALP Y 8
     5 SEP2        6 GROUP        1 Y    SEP  0     **** SEP Y 9
     6 GLP5        3 GROUP        1 Y    GLP  0     **** GLP Y 13
     7 ALL1       17 GROUP        1 Z    ALL  0     ROOT ALL Z 15
     8 SEL2        5 GROUP        1 Z    SEL  0     **** SEL Z 16
     9 GLL5        2 GROUP        1 Z    GLL  0     **** GLL Z 20
@<TRIPOS>SET

