#    Name: 2p33_J07_1_ligand
#    Modification time : Mon Mar 24 18:16:46 2014

@<TRIPOS>MOLECULE
2p33_J07_1_ligand
   51    54     1     0     0
SMALL
NO_CHARGES


@<TRIPOS>ATOM
      1 C01        29.1850    4.5930   29.2020 C.3       1 J07507      0.0000 
      2 C02        28.4270    5.0480   27.9700 C.3       1 J07507      0.0000 
      3 N03        26.9940    4.8280   28.1280 N.am      1 J07507      0.0000 
      4 C04        26.1190    5.8870   28.0050 C.2       1 J07507      0.0000 
      5 O05        25.9170    6.4400   26.9220 O.2       1 J07507      0.0000 
      6 N06        25.4790    6.2960   29.2120 N.am      1 J07507      0.0000 
      7 C07        24.5380    7.4400   29.1350 C.3       1 J07507      0.0000 
      8 C08        23.1780    7.1060   29.7560 C.3       1 J07507      0.0000 
      9 C09        23.3740    6.6250   31.2170 C.3       1 J07507      0.0000 
     10 C10        24.2950    5.3720   31.2230 C.3       1 J07507      0.0000 
     11 C11        25.6530    5.6990   30.5860 C.3       1 J07507      0.0000 
     12 N12        22.0520    6.3120   31.8210 N.pl3     1 J07507      0.0000 
     13 C13        21.1470    7.2600   32.3030 C.ar      1 J07507      0.0000 
     14 N14        21.4630    8.5710   32.1220 N.ar      1 J07507      0.0000 
     15 C15        20.5940    9.5520   32.5890 C.ar      1 J07507      0.0000 
     16 C16        19.3600    9.2250   33.2570 C.ar      1 J07507      0.0000 
     17 C17        19.1420    7.8510   33.3800 C.ar      1 J07507      0.0000 
     18 N18        19.9950    6.8680   32.9200 N.ar      1 J07507      0.0000 
     19 CL1        18.1740   10.3030   33.8950 Cl        1 J07507      0.0000 
     20 C20        21.0960   10.9110   32.2930 C.2       1 J07507      0.0000 
     21 C21        22.3730   11.2950   31.7860 C.ar      1 J07507      0.0000 
     22 C22        23.5660   10.5870   31.4090 C.ar      1 J07507      0.0000 
     23 C23        24.6810   11.3190   30.9250 C.ar      1 J07507      0.0000 
     24 C24        24.6310   12.7280   30.8140 C.ar      1 J07507      0.0000 
     25 C25        23.4720   13.4510   31.1800 C.ar      1 J07507      0.0000 
     26 C26        22.3620   12.7120   31.6650 C.ar      1 J07507      0.0000 
     27 N27        21.1340   13.1470   32.0800 N.pl3     1 J07507      0.0000 
     28 C28        20.3740   12.0870   32.4550 C.2       1 J07507      0.0000 
     29 H          28.8118    4.4951   27.1022 H         1 J07507      0.0000 
     30 H          28.6409    6.1128   27.8048 H         1 J07507      0.0000 
     31 H          26.6752    3.8816   28.3282 H         1 J07507      0.0000 
     32 H          24.3776    7.7308   28.0882 H         1 J07507      0.0000 
     33 H          24.9533    8.3102   29.6607 H         1 J07507      0.0000 
     34 H          22.7034    6.3175   29.1887 H         1 J07507      0.0000 
     35 H          22.5535    7.9885   29.7590 H         1 J07507      0.0000 
     36 H          23.8639    7.4063   31.7629 H         1 J07507      0.0000 
     37 H          23.8117    4.5816   30.6608 H         1 J07507      0.0000 
     38 H          24.4427    5.0530   32.2481 H         1 J07507      0.0000 
     39 H          26.1825    6.4025   31.2309 H         1 J07507      0.0000 
     40 H          26.2391    4.7808   30.5190 H         1 J07507      0.0000 
     41 H          21.8136    5.2920   31.8731 H         1 J07507      0.0000 
     42 H          18.2462    7.5443   33.8676 H         1 J07507      0.0000 
     43 H          23.6017    9.5811   31.4907 H         1 J07507      0.0000 
     44 H          25.5335   10.8178   30.6526 H         1 J07507      0.0000 
     45 H          25.4528   13.2363   30.4605 H         1 J07507      0.0000 
     46 H          23.4338   14.4497   31.1005 H         1 J07507      0.0000 
     47 H          20.8537   14.0748   32.1011 H         1 J07507      0.0000 
     48 H          19.4682   12.1252   32.7861 H         1 J07507      0.0000 
     49 H          30.1700    4.7363   29.1060 H         1 J07507      0.0000 
     50 H          28.8951    5.0888   30.0206 H         1 J07507      0.0000 
     51 H          29.0469    3.6196   29.3846 H         1 J07507      0.0000 
@<TRIPOS>BOND
     1    2    1 1    
     2   49    1 1    
     3   50    1 1    
     4   51    1 1    
     5    3    2 1    
     6   29    2 1    
     7   30    2 1    
     8    4    3 am   
     9   31    3 1    
    10    5    4 2    
    11    6    4 am   
    12    7    6 1    
    13   11    6 1    
    14    8    7 1    
    15   32    7 1    
    16   33    7 1    
    17    9    8 1    
    18   34    8 1    
    19   35    8 1    
    20   10    9 1    
    21   12    9 1    
    22   36    9 1    
    23   11   10 1    
    24   37   10 1    
    25   38   10 1    
    26   39   11 1    
    27   40   11 1    
    28   13   12 1    
    29   41   12 1    
    30   14   13 ar   
    31   18   13 ar   
    32   15   14 ar   
    33   16   15 ar   
    34   20   15 1    
    35   17   16 ar   
    36   19   16 1    
    37   18   17 ar   
    38   42   17 1    
    39   21   20 1    
    40   28   20 2    
    41   22   21 ar   
    42   26   21 ar   
    43   23   22 ar   
    44   43   22 1    
    45   24   23 ar   
    46   44   23 1    
    47   25   24 ar   
    48   45   24 1    
    49   26   25 ar   
    50   46   25 1    
    51   27   26 1    
    52   28   27 1    
    53   47   27 1    
    54   48   28 1    
@<TRIPOS>SUBSTRUCTURE
     1 J07507      1 GROUP   
@<TRIPOS>SET

