#    Name: 2H9N_2_CAVITY_N1_ALL.mol2
#    Modification time : Mon Mar 10 16:18:29 2014

@<TRIPOS>MOLECULE
2H9N_2_CAVITY_N1_ALL.mol2
   98     0     6     0     0
SMALL
NO_CHARGES


@<TRIPOS>ATOM
      1 CZ         25.5913   18.4994   22.9195 C.ar      4 PHE5        0.0000 
      2 N          24.3417   16.7863   22.9806 N.2       2 ALA2        0.0000 
      3 CZ         24.2603   18.1359   22.3309 C.ar      4 PHE5        0.0000 
      4 CZ         23.5734   18.6804   23.5481 C.ar      4 PHE5        0.0000 
      5 CZ         25.8827   11.4423   15.1502 C.ar      4 PHE5        0.0000 
      6 CA         33.1003   15.5176   19.2488 C.3       5 GLY6        0.0000 
      7 CA         33.0190   16.8671   18.5991 C.3       5 GLY6        0.0000 
      8 CA         31.8506   13.8045   19.3099 C.3       5 GLY6        0.0000 
      9 DU         31.7693   15.1540   18.6602 H         6 CUB7        0.0000 
     10 CA         31.6880   16.5036   18.0106 C.3       5 GLY6        0.0000 
     11 CZ         31.6067   17.8531   17.3609 C.ar      4 PHE5        0.0000 
     12 CA         30.6823   10.7418   20.0208 C.3       5 GLY6        0.0000 
     13 CA         30.6010   12.0914   19.3711 C.3       5 GLY6        0.0000 
     14 DU         30.5197   13.4409   18.7214 H         6 CUB7        0.0000 
     15 DU         30.3570   16.1401   17.4220 H         6 CUB7        0.0000 
     16 CZ         30.2757   17.4896   16.7723 C.ar      4 PHE5        0.0000 
     17 NZ         29.2700   11.7279   18.7826 N.2       3 LYS4        0.0000 
     18 DU         29.1887   13.0774   18.1329 H         6 CUB7        0.0000 
     19 DU         29.0260   15.7765   16.8335 H         6 CUB7        0.0000 
     20 CZ         28.9447   17.1261   16.1838 C.ar      4 PHE5        0.0000 
     21 NZ         27.8577   12.7139   17.5444 N.2       3 LYS4        0.0000 
     22 DU         27.7764   14.0634   16.8947 H         6 CUB7        0.0000 
     23 DU         27.6951   15.4130   16.2450 H         6 CUB7        0.0000 
     24 DU         27.6137   16.7625   15.5953 H         6 CUB7        0.0000 
     25 NZ         26.5267   12.3504   16.9559 N.2       3 LYS4        0.0000 
     26 CZ         26.4454   13.6999   16.3062 C.ar      4 PHE5        0.0000 
     27 DU         26.3641   15.0495   15.6565 H         6 CUB7        0.0000 
     28 DU         26.2828   16.3990   15.0068 H         6 CUB7        0.0000 
     29 OG         26.2014   17.7486   14.3571 O.2       1 SER1        0.0000 
     30 CZ         25.1958   11.9868   16.3673 C.ar      4 PHE5        0.0000 
     31 CZ         25.1144   13.3364   15.7177 C.ar      4 PHE5        0.0000 
     32 CZ         25.0331   14.6859   15.0680 C.ar      4 PHE5        0.0000 
     33 CZ         24.9518   16.0355   14.4183 C.ar      4 PHE5        0.0000 
     34 CA         32.4947   14.7126   21.1156 C.3       5 GLY6        0.0000 
     35 CA         32.4133   16.0621   20.4660 C.3       5 GLY6        0.0000 
     36 CA         31.2450   12.9995   21.1768 C.3       5 GLY6        0.0000 
     37 CA         31.1637   14.3490   20.5271 C.3       5 GLY6        0.0000 
     38 DU         31.0824   15.6986   19.8774 H         6 CUB7        0.0000 
     39 CA         31.0010   17.0482   19.2277 C.3       5 GLY6        0.0000 
     40 CA         30.9197   18.3977   18.5781 C.3       5 GLY6        0.0000 
     41 O          29.9954   11.2864   21.2380 O.2       2 ALA2        0.0000 
     42 N          29.9141   12.6360   20.5883 N.2       2 ALA2        0.0000 
     43 DU         29.8327   13.9855   19.9386 H         6 CUB7        0.0000 
     44 DU         29.7514   15.3351   19.2889 H         6 CUB7        0.0000 
     45 DU         29.6701   16.6846   18.6392 H         6 CUB7        0.0000 
     46 CZ         29.5887   18.0342   17.9895 C.ar      4 PHE5        0.0000 
     47 OG         28.5831   12.2724   19.9998 O.2       1 SER1        0.0000 
     48 OG         28.5017   13.6220   19.3501 O.2       1 SER1        0.0000 
     49 DU         28.4204   14.9715   18.7004 H         6 CUB7        0.0000 
     50 DU         28.3391   16.3211   18.0507 H         6 CUB7        0.0000 
     51 CZ         28.2578   17.6706   17.4010 C.ar      4 PHE5        0.0000 
     52 OG         27.1708   13.2585   18.7616 O.2       1 SER1        0.0000 
     53 CZ         27.0894   14.6080   18.1119 C.ar      4 PHE5        0.0000 
     54 CZ         27.0081   15.9576   17.4622 C.ar      4 PHE5        0.0000 
     55 DU         26.9268   17.3071   16.8125 H         6 CUB7        0.0000 
     56 CZ         26.8455   18.6567   16.1628 C.ar      4 PHE5        0.0000 
     57 CZ         25.7585   14.2445   17.5234 C.ar      4 PHE5        0.0000 
     58 CZ         25.6771   15.5940   16.8737 C.ar      4 PHE5        0.0000 
     59 CZ         25.5958   16.9436   16.2240 C.ar      4 PHE5        0.0000 
     60 OG         25.5145   18.2931   15.5743 O.2       1 SER1        0.0000 
     61 CZ         24.3462   15.2305   16.2852 C.ar      4 PHE5        0.0000 
     62 CA         30.3954   16.2432   21.0946 C.3       5 GLY6        0.0000 
     63 CA         30.3141   17.5927   20.4449 C.3       5 GLY6        0.0000 
     64 CA         29.1458   14.5301   21.1558 C.3       5 GLY6        0.0000 
     65 CA         29.0645   15.8796   20.5061 C.3       5 GLY6        0.0000 
     66 DU         28.9831   17.2292   19.8564 H         6 CUB7        0.0000 
     67 CA         28.9018   18.5787   19.2067 C.3       5 GLY6        0.0000 
     68 OG         27.7335   15.5161   19.9176 O.2       1 SER1        0.0000 
     69 DU         27.6522   16.8657   19.2679 H         6 CUB7        0.0000 
     70 CA         27.5708   18.2152   18.6182 C.3       5 GLY6        0.0000 
     71 CA         27.4895   19.5648   17.9685 C.3       5 GLY6        0.0000 
     72 CZ         26.4025   15.1526   19.3291 C.ar      4 PHE5        0.0000 
     73 CZ         26.3212   16.5021   18.6794 C.ar      4 PHE5        0.0000 
     74 CZ         26.2399   17.8517   18.0297 C.ar      4 PHE5        0.0000 
     75 O          26.1585   19.2012   17.3800 O.2       2 ALA2        0.0000 
     76 CA         29.6272   18.1373   21.6621 C.3       5 GLY6        0.0000 
     77 CA         28.3775   16.4242   21.7233 C.3       5 GLY6        0.0000 
     78 CA         28.2962   17.7738   21.0736 C.3       5 GLY6        0.0000 
     79 OG         27.0465   16.0607   21.1348 O.2       1 SER1        0.0000 
     80 CZ         26.9652   17.4102   20.4851 C.ar      4 PHE5        0.0000 
     81 N          26.8839   18.7598   19.8354 N.2       2 ALA2        0.0000 
     82 CZ         25.5529   18.3963   19.2469 C.ar      4 PHE5        0.0000 
     83 CA         27.6906   16.9688   22.9405 C.3       5 GLY6        0.0000 
     84 N          27.6092   18.3183   22.2908 N.2       2 ALA2        0.0000 
     85 N          26.3596   16.6053   22.3520 N.2       2 ALA2        0.0000 
     86 N          26.2783   17.9548   21.7023 N.2       2 ALA2        0.0000 
     87 CZ         24.9473   17.5913   21.1138 C.ar      4 PHE5        0.0000 
     88 CA         33.8686   13.6234   18.6813 C.3       5 GLY6        0.0000 
     89 NZ         33.7872   14.9730   18.0316 N.2       3 LYS4        0.0000 
     90 CA         32.6189   11.9104   18.7424 C.3       5 GLY6        0.0000 
     91 CA         32.5376   13.2599   18.0928 C.3       5 GLY6        0.0000 
     92 NZ         32.4563   14.6095   17.4431 N.2       3 LYS4        0.0000 
     93 NZ         31.3693   10.1973   18.8036 N.2       3 LYS4        0.0000 
     94 NZ         31.2879   11.5468   18.1539 N.2       3 LYS4        0.0000 
     95 DU         31.2066   12.8964   17.5042 H         6 CUB7        0.0000 
     96 DU         31.0440   15.5955   16.2049 H         6 CUB7        0.0000 
     97 NZ         29.9570   11.1833   17.5654 N.2       3 LYS4        0.0000 
     98 DU         29.8756   12.5328   16.9157 H         6 CUB7        0.0000 
@<TRIPOS>BOND
@<TRIPOS>SUBSTRUCTURE
     1 SER1       29 GROUP   
     2 ALA2        2 GROUP   
     3 LYS4       17 GROUP   
     4 PHE5        1 GROUP   
     5 GLY6        6 GROUP   
     6 CUB7        9 GROUP   
@<TRIPOS>SET

