#    Name: 2h9n_ALA_ARG_THR_GLN_MLZ_2_INTS_M
#    Modification time : Tue Mar 25 15:45:34 2014

@<TRIPOS>MOLECULE
2h9n_ALA_ARG_THR_GLN_MLZ_2_INTS_M
   60     0     9     0     0
SMALL
NO_CHARGES


@<TRIPOS>ATOM
      1 OD1        27.2710   10.6410   18.5500 O.co2     2 ASC3        0.0000 
      2 OD1        28.3350   11.9450   18.2310 O.co2     8 ASL3        0.0000 
      3 OD1        26.2070    9.3370   18.8690 O.co2     5 ASP3        0.0000 
      4 OD1        28.3480   10.4735   18.3735 O.co2     2 ASC3        0.0000 
      5 OD1        28.3610    9.0020   18.5160 O.co2     5 ASP3        0.0000 
      6 O          27.2710   10.6410   18.5500 O.2       1 ALC1        0.0000 
      7 O          28.3350   11.9450   18.2310 O.2       7 ALL1        0.0000 
      8 O          26.2070    9.3370   18.8690 O.2       4 ALP1        0.0000 
      9 O          28.3480   10.4735   18.3735 O.2       1 ALC1        0.0000 
     10 O          28.3610    9.0020   18.5160 O.2       4 ALP1        0.0000 
     11 CA         24.8010   10.6655   16.5730 C.3       3 GLC5        0.0000 
     12 CA         25.9230   12.0620   17.5630 C.3       9 GLL5        0.0000 
     13 CA         23.6790    9.2690   15.5830 C.3       6 GLP5        0.0000 
     14 CA         24.5220   13.1555   18.4825 C.3       3 GLC5        0.0000 
     15 CA         23.1210   14.2490   19.4020 C.3       6 GLP5        0.0000 
     16 O          26.7720   13.7465   20.0965 O.2       1 ALC1        0.0000 
     17 O          27.3400   14.6540   18.8630 O.2       7 ALL1        0.0000 
     18 O          26.2040   12.8390   21.3300 O.2       4 ALP1        0.0000 
     19 CA         28.4685   16.0480   22.2240 C.3       3 GLC5        0.0000 
     20 CA         26.9660   16.3350   20.6820 C.3       9 GLL5        0.0000 
     21 CA         29.9710   15.7610   23.7660 C.3       6 GLP5        0.0000 
     22 CA         26.3085   14.7750   21.6290 C.3       3 GLC5        0.0000 
     23 CA         25.6510   13.2150   22.5760 C.3       6 GLP5        0.0000 
     24 CA         25.1615   17.2070   20.0990 C.3       3 GLC5        0.0000 
     25 CA         26.7890   17.8050   21.1000 C.3       9 GLL5        0.0000 
     26 CA         23.5340   16.6090   19.0980 C.3       6 GLP5        0.0000 
     27 CA         28.3065   16.8820   23.1890 C.3       3 GLC5        0.0000 
     28 CA         26.6420   18.0030   22.6120 C.3       9 GLL5        0.0000 
     29 CA         26.1485   18.9345   24.1865 C.3       3 GLC5        0.0000 
     30 CA         25.6550   19.8660   25.7610 C.3       6 GLP5        0.0000 
     31 O          25.7530   16.3855   23.8505 O.2       1 ALC1        0.0000 
     32 O          25.4300   17.3760   23.1370 O.2       7 ALL1        0.0000 
     33 O          26.0760   15.3950   24.5640 O.2       4 ALP1        0.0000 
     34 O          22.9285   15.7225   23.5515 O.2       1 ALC1        0.0000 
     35 O          23.1940   17.2210   23.6350 O.2       7 ALL1        0.0000 
     36 O          22.6630   14.2240   23.4680 O.2       4 ALP1        0.0000 
     37 O          24.7375   20.2940   21.9725 O.2       1 ALC1        0.0000 
     38 O          24.0030   19.1790   22.7440 O.2       7 ALL1        0.0000 
     39 O          25.4720   21.4090   21.2010 O.2       4 ALP1        0.0000 
     40 O          22.6210   19.7945   22.5575 O.2       1 ALC1        0.0000 
     41 O          21.2390   20.4100   22.3710 O.2       4 ALP1        0.0000 
     42 CA         30.9525   15.9515   22.3400 C.3       3 GLC5        0.0000 
     43 CA         31.9340   16.1420   20.9140 C.3       9 GLL5        0.0000 
     44 CA         32.9540   14.1370   20.9155 C.3       3 GLC5        0.0000 
     45 CA         33.9740   12.1320   20.9170 C.3       6 GLP5        0.0000 
     46 CA         29.9440   19.2490   13.9260 C.3       3 GLC5        0.0000 
     47 CA         29.0500   18.3820   12.4830 C.3       9 GLL5        0.0000 
     48 CA         30.8380   20.1160   15.3690 C.3       6 GLP5        0.0000 
     49 CA         30.7080   18.0475   15.1755 C.3       3 GLC5        0.0000 
     50 CA         30.5780   15.9790   14.9820 C.3       9 GLL5        0.0000 
     51 CA         25.5150   15.7503   19.4157 C.3       3 GLC5        0.0000 
     52 CA         27.2620   16.0940   19.1790 C.3       9 GLL5        0.0000 
     53 CA         23.9160   15.2860   18.9010 C.3       6 GLP5        0.0000 
     54 CA         28.0542   19.3560   21.7270 C.3       3 GLC5        0.0000 
     55 CA         29.3930   20.8080   21.5980 C.3       6 GLP5        0.0000 
     56 CA         33.7013   16.2315   20.3458 C.3       3 GLC5        0.0000 
     57 CA         32.1050   16.0320   19.4090 C.3       9 GLL5        0.0000 
     58 CA         35.3830   16.3760   20.5300 C.3       6 GLP5        0.0000 
     59 CA         32.4779   17.8623   20.0201 C.3       3 GLC5        0.0000 
     60 CA         33.2180   19.4540   20.0640 C.3       6 GLP5        0.0000 
@<TRIPOS>BOND
@<TRIPOS>SUBSTRUCTURE
     1 ALC1        6 GROUP        1 X    ALC  0     ROOT ALC X 1
     2 ASC3        1 GROUP        1 X    ASC  0     **** ASC X 3
     3 GLC5       11 GROUP        1 X    GLC  0     **** GLC X 6
     4 ALP1        8 GROUP        1 Y    ALP  0     ROOT ALP Y 8
     5 ASP3        3 GROUP        1 Y    ASP  0     **** ASP Y 10
     6 GLP5       13 GROUP        1 Y    GLP  0     **** GLP Y 13
     7 ALL1        7 GROUP        1 Z    ALL  0     ROOT ALL Z 15
     8 ASL3        2 GROUP        1 Z    ASL  0     **** ASL Z 17
     9 GLL5       12 GROUP        1 Z    GLL  0     **** GLL Z 20
@<TRIPOS>SET

