#    Name: 2h9n_ALA_ARG_THR_GLN_MLZ_2_ligand
#    Modification time : Tue Mar 25 15:45:34 2014

@<TRIPOS>MOLECULE
2h9n_ALA_ARG_THR_GLN_MLZ_2_ligand
   65    64     5     0     0
SMALL
NO_CHARGES


@<TRIPOS>ATOM
      1 N          28.3350   11.9450   18.2310 N.4       1 ALA1        0.0000
      2 CA         27.3400   12.6700   17.3870 C.3       1 ALA1        0.0000
      3 C          27.3310   14.2010   17.6040 C.2       1 ALA1        0.0000
      4 O          27.3080   14.9570   16.6300 O.2       1 ALA1        0.0000
      5 CB         25.9230   12.0620   17.5630 C.3       1 ALA1        0.0000
      6 HA         27.6086   12.5013   16.3168 H         1 ALA1        0.0000
      7 H          29.2689   12.2553   18.0534 H         1 ALA1        0.0000
      8 H          28.1622   12.0791   19.2068 H         1 ALA1        0.0000
      9 H          28.3166   10.9594   18.0628 H         1 ALA1        0.0000
     10 HB1        25.8984   11.0964   17.3041 H         1 ALA1        0.0000
     11 HB2        25.6093   12.1194   18.5108 H         1 ALA1        0.0000
     12 HB3        25.2440   12.5337   17.0005 H         1 ALA1        0.0000
     13 N          27.3400   14.6540   18.8630 N.am      2 ARG2        0.0000
     14 CA         27.2620   16.0940   19.1790 C.3       2 ARG2        0.0000
     15 C          28.5240   16.8290   18.7570 C.2       2 ARG2        0.0000
     16 O          28.4580   17.9600   18.2460 O.2       2 ARG2        0.0000
     17 CB         26.9660   16.3350   20.6820 C.3       2 ARG2        0.0000
     18 CG         26.7890   17.8050   21.1000 C.3       2 ARG2        0.0000
     19 CD         26.6420   18.0030   22.6120 C.3       2 ARG2        0.0000
     20 NE         25.4300   17.3760   23.1370 N.pl3     2 ARG2        0.0000
     21 CZ         24.2140   17.9300   23.1650 C.cat     2 ARG2        0.0000
     22 NH1        23.1940   17.2210   23.6350 N.pl3     2 ARG2        0.0000
     23 NH2        24.0030   19.1790   22.7440 N.pl3     2 ARG2        0.0000
     24 HNCA       27.4021   14.0199   19.6842 H         2 ARG2        0.0000
     25 HA         26.4206   16.5381   18.6198 H         2 ARG2        0.0000
     26 HB2        27.7888   15.8918   21.2746 H         2 ARG2        0.0000
     27 HB3        26.0506   15.7745   20.9511 H         2 ARG2        0.0000
     28 HG2        25.8992   18.2111   20.5972 H         2 ARG2        0.0000
     29 HG3        27.6568   18.3804   20.7459 H         2 ARG2        0.0000
     30 HD2        26.6397   19.0863   22.8140 H         2 ARG2        0.0000
     31 HD3        27.5388   17.5860   23.0979 H         2 ARG2        0.0000
     32 HE         25.5799   16.3907   23.5201 H         2 ARG2        0.0000
     33 HH11       23.4019   16.2842   23.9163 H         2 ARG2        0.0000
     34 HH12       22.3103   17.6881   23.6651 H         2 ARG2        0.0000
     35 HH21       24.8059   19.6720   22.4089 H         2 ARG2        0.0000
     36 HH22       23.0609   19.5095   22.8015 H         2 ARG2        0.0000
     37 N          29.6710   16.1750   18.9670 N.am      3 THR3        0.0000
     38 CA         30.9780   16.7660   18.6680 C.3       3 THR3        0.0000
     39 C          31.3200   16.6940   17.1970 C.2       3 THR3        0.0000
     40 O          32.4030   17.1560   16.7790 O.2       3 THR3        0.0000
     41 CB         32.1050   16.0320   19.4090 C.3       3 THR3        0.0000
     42 OG1        32.1110   14.6540   19.0130 O.3       3 THR3        0.0000
     43 CG2        31.9340   16.1420   20.9140 C.3       3 THR3        0.0000
     44 HNCA       29.6936   15.2071   19.3559 H         3 THR3        0.0000
     45 HA         31.0165   17.8029   18.9735 H         3 THR3        0.0000
     46 HB         33.0413   16.5094   19.1363 H         3 THR3        0.0000
     47 HG21       32.6635   15.6672   21.4064 H         3 THR3        0.0000
     48 HG22       31.9449   17.0938   21.2204 H         3 THR3        0.0000
     49 HG23       31.0681   15.7457   21.2194 H         3 THR3        0.0000
     50 HG1        33.0428   14.4805   18.6943 H         3 THR3        0.0000
     51 N          29.9360   17.5130   13.2570 N.am      4 GLN5        0.0000
     52 CA         29.0500   18.3820   12.4830 C.3       4 GLN5        0.0000
     53 C          28.1080   17.5820   11.5960 C.2       4 GLN5        0.0000
     54 O          26.9730   18.0040   11.3500 O.2       4 GLN5        0.0000
     55 HNCA       30.9332   17.4893   12.9316 H         4 GLN5        0.0000
     56 HA         29.6350   19.0598   11.8421 H         4 GLN5        0.0000
     57 H          28.4428   19.0111   13.1522 H         4 GLN5        0.0000
     58 H          28.5392   16.6949   11.2580 H         4 GLN5        0.0000
     59 N          30.4240   16.0800   16.4240 N.am      5 MLZ4        0.0000
     60 CA         30.5780   15.9790   14.9820 C.3       5 MLZ4        0.0000
     61 C          29.5210   16.7990   14.3000 C.2       5 MLZ4        0.0000
     62 O          28.3410   16.7750   14.6980 O.2       5 MLZ4        0.0000
     63 H          29.5626   15.6392   16.8204 H         5 MLZ4        0.0000
     64 H          30.4839   14.9380   14.6537 H         5 MLZ4        0.0000
     65 H          31.5633   16.3432   14.6706 H         5 MLZ4        0.0000
@<TRIPOS>BOND
     1    2    1 1
     2    7    1 1
     3    8    1 1
     4    9    1 1
     5    3    2 1
     6    5    2 1
     7    6    2 1
     8    4    3 2
     9   10    5 1
    10   11    5 1
    11   12    5 1
    12   14   13 1
    13   24   13 1
    14   15   14 1
    15   17   14 1
    16   25   14 1
    17   16   15 2
    18   18   17 1
    19   26   17 1
    20   27   17 1
    21   19   18 1
    22   28   18 1
    23   29   18 1
    24   20   19 1
    25   30   19 1
    26   31   19 1
    27   21   20 ar
    28   32   20 1
    29   22   21 ar
    30   23   21 ar
    31   33   22 1
    32   34   22 1
    33   35   23 1
    34   36   23 1
    35   38   37 1
    36   44   37 1
    37   39   38 1
    38   41   38 1
    39   45   38 1
    40   40   39 2
    41   42   41 1
    42   43   41 1
    43   46   41 1
    44   50   42 1
    45   47   43 1
    46   48   43 1
    47   49   43 1
    48   52   51 1
    49   55   51 1
    50   53   52 1
    51   56   52 1
    52   57   52 1
    53   54   53 2
    54   58   53 1
    55   60   59 1
    56   63   59 1
    57   61   60 1
    58   64   60 1
    59   65   60 1
    60   62   61 2
    61   13    3 am
    62   37   15 am
    63   59   39 1 
    64   61   51 am
@<TRIPOS>SUBSTRUCTURE
     1 ALA1        1 RESIDUE
     2 ARG2       13 RESIDUE
     3 THR3       37 RESIDUE
     4 GLN5       51 RESIDUE
     5 MLZ4       59 GROUP
@<TRIPOS>SET

