#    Name: 2bzs_CB1_2_INTS_M
#    Modification time : Mon Mar 24 22:02:06 2014

@<TRIPOS>MOLECULE
2bzs_CB1_2_INTS_M
   25     0     6     0     0
SMALL
NO_CHARGES


@<TRIPOS>ATOM
      1 CA         28.4385   12.9060   33.7605 C.3       2 GLC5        0.0000 
      2 CA         29.7480   14.6810   33.4960 C.3       6 GLL5        0.0000 
      3 CA         27.1290   11.1310   34.0250 C.3       4 GLP5        0.0000 
      4 CA         31.1715   16.3135   35.0000 C.3       2 GLC5        0.0000 
      5 CA         31.1420   14.7030   33.5820 C.3       6 GLL5        0.0000 
      6 CA         31.2010   17.9240   36.4180 C.3       4 GLP5        0.0000 
      7 N          25.8125   14.9810   31.4175 N.am      1 SEC2        0.0000 
      8 N          27.2450   15.8710   31.2170 N.am      5 SEL2        0.0000 
      9 N          24.3800   14.0910   31.6180 N.am      3 SEP2        0.0000 
     10 N          25.6585   14.3250   32.2395 N.am      1 SEC2        0.0000 
     11 N          26.9370   14.5590   32.8610 N.am      5 SEL2        0.0000 
     12 CA         34.5115   17.2930   32.2150 C.3       2 GLC5        0.0000 
     13 CA         34.5580   15.5360   32.1180 C.3       6 GLL5        0.0000 
     14 CA         34.4650   19.0500   32.3120 C.3       4 GLP5        0.0000 
     15 CA         34.3400   14.4875   30.5815 C.3       2 GLC5        0.0000 
     16 CA         34.1220   13.4390   29.0450 C.3       4 GLP5        0.0000 
     17 CA         33.9165   13.0215   31.9435 C.3       2 GLC5        0.0000 
     18 CA         34.3370   14.3960   33.1740 C.3       6 GLL5        0.0000 
     19 CA         33.4960   11.6470   30.7130 C.3       4 GLP5        0.0000 
     20 CA         31.1663   14.3807   30.4258 C.3       2 GLC5        0.0000 
     21 CA         31.2160   15.8060   31.3580 C.3       6 GLL5        0.0000 
     22 CA         31.8060   12.9670   29.5070 C.3       4 GLP5        0.0000 
     23 CA         30.6315   12.5405   33.3910 C.3       2 GLC5        0.0000 
     24 CA         30.8180   10.3890   33.2430 C.3       4 GLP5        0.0000 
     25 CA         31.6625   13.9748   31.2890 C.3       2 GLC5        0.0000 
@<TRIPOS>BOND
@<TRIPOS>SUBSTRUCTURE
     1 SEC2        7 GROUP        1 X    SEC  0     ROOT SEC X 2
     2 GLC5        1 GROUP        1 X    GLC  0     **** GLC X 6
     3 SEP2        9 GROUP        1 Y    SEP  0     ROOT SEP Y 9
     4 GLP5        3 GROUP        1 Y    GLP  0     **** GLP Y 13
     5 SEL2        8 GROUP        1 Z    SEL  0     ROOT SEL Z 16
     6 GLL5        2 GROUP        1 Z    GLL  0     **** GLL Z 20
@<TRIPOS>SET

