#    Name: 2bzs_CB1_2_ligand
#    Modification time : Mon Mar 24 22:02:06 2014

@<TRIPOS>MOLECULE
2bzs_CB1_2_ligand
   27    28     1     0     0
SMALL
NO_CHARGES


@<TRIPOS>ATOM
      1 C          29.8370   15.7830   31.3310 C.ar      1 CB1236      0.0000 
      2 C1         29.0960   15.2350   32.3780 C.ar      1 CB1236      0.0000 
      3 C2         29.7480   14.6810   33.4960 C.ar      1 CB1236      0.0000 
      4 C4         31.1420   14.7030   33.5820 C.ar      1 CB1236      0.0000 
      5 C5         31.8960   15.2620   32.5600 C.ar      1 CB1236      0.0000 
      6 C8         31.2160   15.8060   31.3580 C.ar      1 CB1236      0.0000 
      7 N          27.6980   15.2400   32.1790 N.pl3     1 CB1236      0.0000 
      8 O1         27.2450   15.8710   31.2170 O.2       1 CB1236      0.0000 
      9 O2         26.9370   14.5590   32.8610 O.2       1 CB1236      0.0000 
     10 C3         29.0140   14.1190   34.6870 C.2       1 CB1236      0.0000 
     11 N1         29.0870   12.8620   35.0750 N.am      1 CB1236      0.0000 
     12 O          28.3720   14.9110   35.3730 O.2       1 CB1236      0.0000 
     13 N6         33.2720   15.2080   32.6690 N.4       1 CB1236      0.0000 
     14 C7         34.5580   15.5360   32.1180 C.3       1 CB1236      0.0000 
     15 C9         34.3370   14.3960   33.1740 C.3       1 CB1236      0.0000 
     16 N3         31.8820   16.4420   30.3080 N.pl3     1 CB1236      0.0000 
     17 O3         33.0850   16.3990   30.1810 O.2       1 CB1236      0.0000 
     18 O4         31.2670   17.1910   29.5670 O.2       1 CB1236      0.0000 
     19 H          29.3319   16.1819   30.5139 H         1 CB1236      0.0000 
     20 H          31.6076   14.3022   34.4078 H         1 CB1236      0.0000 
     21 H          28.5989   12.6324   35.9170 H         1 CB1236      0.0000 
     22 H          29.6238   12.2520   34.4921 H         1 CB1236      0.0000 
     23 H          33.5493   16.0853   33.6891 H         1 CB1236      0.0000 
     24 H          34.9487   16.2513   32.6023 H         1 CB1236      0.0000 
     25 H          34.6837   15.0886   31.2916 H         1 CB1236      0.0000 
     26 H          34.3977   13.5860   32.6824 H         1 CB1236      0.0000 
     27 H          34.6627   14.7487   33.9931 H         1 CB1236      0.0000 
@<TRIPOS>BOND
     1    2    1 ar   
     2    6    1 ar   
     3   19    1 1    
     4    3    2 ar   
     5    7    2 1    
     6    4    3 ar   
     7   10    3 1    
     8    5    4 ar   
     9   20    4 1    
    10    6    5 ar   
    11   13    5 1    
    12   16    6 1    
    13    8    7 2    
    14    9    7 2    
    15   11   10 am   
    16   12   10 2    
    17   21   11 1    
    18   22   11 1    
    19   14   13 1    
    20   15   13 1    
    21   23   13 1    
    22   15   14 1    
    23   24   14 1    
    24   25   14 1    
    25   26   15 1    
    26   27   15 1    
    27   17   16 2    
    28   18   16 2    
@<TRIPOS>SUBSTRUCTURE
     1 CB1236      1 GROUP   
@<TRIPOS>SET

