#    Name: 4ijr_NDP_2_INTS_M
#    Modification time : Tue Mar 25 04:07:57 2014

@<TRIPOS>MOLECULE
4ijr_NDP_2_INTS_M
  109     0    12     0     0
SMALL
NO_CHARGES


@<TRIPOS>ATOM
      1 N          23.6805  -35.3960   28.7310 N.am      2 SEC2        0.0000 
      2 N          22.6810  -35.9820   29.4820 N.am     10 SEL2        0.0000 
      3 N          24.6800  -34.8100   27.9800 N.am      6 SEP2        0.0000 
      4 N          23.3525  -37.2755   29.9855 N.am      2 SEC2        0.0000 
      5 N          24.0240  -38.5690   30.4890 N.am      6 SEP2        0.0000 
      6 N          19.9165  -33.5110   30.4080 N.am      2 SEC2        0.0000 
      7 N          20.8510  -34.5550   30.1390 N.am     10 SEL2        0.0000 
      8 N          18.9820  -32.4670   30.6770 N.am      6 SEP2        0.0000 
      9 CA         22.2325  -37.2750   32.2340 C.3       4 GLC5        0.0000 
     10 CA         21.3990  -35.4530   33.0130 C.3      12 GLL5        0.0000 
     11 CA         23.0660  -39.0970   31.4550 C.3       8 GLP5        0.0000 
     12 CA         19.5520  -34.7505   32.5330 C.3       4 GLC5        0.0000 
     13 CA         17.7050  -34.0480   32.0530 C.3       8 GLP5        0.0000 
     14 CA         20.1905  -32.4115   35.6175 C.3       4 GLC5        0.0000 
     15 CA         21.8020  -33.8540   36.0050 C.3      12 GLL5        0.0000 
     16 CA         18.5790  -30.9690   35.2300 C.3       8 GLP5        0.0000 
     17 CA         25.0025  -34.2660   34.6495 C.3       4 GLC5        0.0000 
     18 CA         23.2560  -33.9630   35.5780 C.3      12 GLL5        0.0000 
     19 CA         26.7490  -34.5690   33.7210 C.3       8 GLP5        0.0000 
     20 N          24.6170  -29.7025   33.6510 N.am      2 SEC2        0.0000 
     21 N          24.3510  -30.5820   34.8670 N.am     10 SEL2        0.0000 
     22 N          24.8830  -28.8230   32.4350 N.am      6 SEP2        0.0000 
     23 O          26.9125  -28.6660   34.3175 O.2       1 ALC1        0.0000 
     24 O          26.8290  -29.1300   35.7500 O.2       9 ALL1        0.0000 
     25 O          26.9960  -28.2020   32.8850 O.2       5 ALP1        0.0000 
     26 CA         26.9310  -33.4720   35.5165 C.3       4 GLC5        0.0000 
     27 CA         27.1130  -32.3750   37.3120 C.3      12 GLL5        0.0000 
     28 CA         28.0410  -31.9055   35.5390 C.3       4 GLC5        0.0000 
     29 CA         28.9690  -31.4360   33.7660 C.3       8 GLP5        0.0000 
     30 NZ         17.9580  -36.7645   32.5200 N.4       3 LYC4        0.0000 
     31 NZ         18.3090  -36.9260   31.2210 N.4      11 LYL4        0.0000 
     32 NZ         18.0950  -36.8240   35.0370 N.4       7 LYP4        0.0000 
     33 N          17.9580  -36.7645   32.5200 N.am      2 SEC2        0.0000 
     34 N          18.3090  -36.9260   31.2210 N.am     10 SEL2        0.0000 
     35 N          17.6070  -36.6030   33.8190 N.am      6 SEP2        0.0000 
     36 N          19.7460  -39.3515   28.8085 N.am      2 SEC2        0.0000 
     37 N          19.0490  -38.9860   29.9160 N.am     10 SEL2        0.0000 
     38 N          20.4430  -39.7170   27.7010 N.am      6 SEP2        0.0000 
     39 N          19.4955  -37.0310   27.4705 N.am      2 SEC2        0.0000 
     40 N          18.8230  -36.8230   28.7420 N.am     10 SEL2        0.0000 
     41 N          20.1680  -37.2390   26.1990 N.am      6 SEP2        0.0000 
     42 CA         19.7260  -36.5515   27.8445 C.3       4 GLC5        0.0000 
     43 CA         18.1370  -35.5970   28.6180 C.3      12 GLL5        0.0000 
     44 CA         21.3150  -37.5060   27.0710 C.3       8 GLP5        0.0000 
     45 CA         19.8110  -35.0410   27.6120 C.3       4 GLC5        0.0000 
     46 CA         21.4850  -34.4850   26.6060 C.3       8 GLP5        0.0000 
     47 CA         18.9335  -33.5350   28.6075 C.3       4 GLC5        0.0000 
     48 CA         19.7300  -31.4730   28.5970 C.3       8 GLP5        0.0000 
     49 CA         17.2265  -36.7395   26.2855 C.3       4 GLC5        0.0000 
     50 CA         16.6580  -35.7860   28.2420 C.3      12 GLL5        0.0000 
     51 CA         17.7950  -37.6930   24.3290 C.3       8 GLP5        0.0000 
     52 CA         16.5625  -34.6960   26.5320 C.3       4 GLC5        0.0000 
     53 CA         16.4670  -33.6060   24.8220 C.3       8 GLP5        0.0000 
     54 N          14.3075  -36.3195   31.2635 N.am      2 SEC2        0.0000 
     55 N          15.4440  -36.0190   30.3760 N.am     10 SEL2        0.0000 
     56 N          13.1710  -36.6200   32.1510 N.am      6 SEP2        0.0000 
     57 CA         13.0865  -38.1210   28.4620 C.3       4 GLC5        0.0000 
     58 CA         14.6430  -37.0320   28.2950 C.3      12 GLL5        0.0000 
     59 CA         11.5300  -39.2100   28.6290 C.3       8 GLP5        0.0000 
     60 N          13.3755  -35.0165   29.5835 N.am      2 SEC2        0.0000 
     61 N          13.6960  -35.9790   28.1820 N.am     10 SEL2        0.0000 
     62 N          13.0550  -34.0540   30.9850 N.am      6 SEP2        0.0000 
     63 O          12.8410  -35.6420   27.1665 O.2       1 ALC1        0.0000 
     64 O          13.6960  -35.9790   28.1820 O.2       9 ALL1        0.0000 
     65 O          11.9860  -35.3050   26.1510 O.2       5 ALP1        0.0000 
     66 CA         16.5690  -37.4635   25.6415 C.3       4 GLC5        0.0000 
     67 CA         15.3430  -37.2340   26.9540 C.3      12 GLL5        0.0000 
     68 CA         15.3365  -35.8610   25.6700 C.3       4 GLC5        0.0000 
     69 CA         15.3300  -34.4880   24.3860 C.3       8 GLP5        0.0000 
     70 N          14.3770  -43.4020   23.1855 N.am      2 SEC2        0.0000 
     71 N          14.2380  -42.7840   24.4690 N.am     10 SEL2        0.0000 
     72 N          14.5160  -44.0200   21.9020 N.am      6 SEP2        0.0000 
     73 O          13.7020  -40.8895   22.2205 O.2       1 ALC1        0.0000 
     74 O          13.8540  -40.6110   23.5230 O.2       9 ALL1        0.0000 
     75 O          13.5500  -41.1680   20.9180 O.2       5 ALP1        0.0000 
     76 O          13.9020  -39.0970   23.5050 O.2       1 ALC1        0.0000 
     77 O          13.9500  -37.5830   23.4870 O.2       5 ALP1        0.0000 
     78 CA         17.4325  -43.2230   26.5875 C.3       4 GLC5        0.0000 
     79 CA         15.9300  -41.5800   26.5770 C.3      12 GLL5        0.0000 
     80 CA         18.9350  -44.8660   26.5980 C.3       8 GLP5        0.0000 
     81 CA         17.1390  -38.5245   25.9915 C.3       4 GLC5        0.0000 
     82 CA         16.4830  -39.3560   27.6540 C.3      12 GLL5        0.0000 
     83 N          19.8785  -30.9375   37.2840 N.am      2 SEC2        0.0000 
     84 N          19.6830  -32.3100   38.0540 N.am     10 SEL2        0.0000 
     85 N          20.0740  -29.5650   36.5140 N.am      6 SEP2        0.0000 
     86 N          18.6400  -31.5770   37.7425 N.am      2 SEC2        0.0000 
     87 N          17.5970  -30.8440   37.4310 N.am      6 SEP2        0.0000 
     88 NZ         23.0510  -30.9070   38.2360 N.4       3 LYC4        0.0000 
     89 NZ         21.8820  -31.1780   37.6120 N.4      11 LYL4        0.0000 
     90 NZ         24.6630  -29.4400   39.2340 N.4       7 LYP4        0.0000 
     91 N          20.9780  -30.3715   37.0630 N.am      2 SEC2        0.0000 
     92 N          21.8820  -31.1780   37.6120 N.am     10 SEL2        0.0000 
     93 N          23.0510  -30.9070   38.2360 N.am      2 SEC2        0.0000 
     94 N          24.2200  -30.6360   38.8600 N.am      6 SEP2        0.0000 
     95 CA         25.9905  -33.1095   34.7852 C.3       4 GLC5        0.0000 
     96 CA         25.0980  -32.3040   36.0360 C.3      12 GLL5        0.0000 
     97 CA         27.4585  -31.0605   34.8300 C.3       4 GLC5        0.0000 
     98 CA         25.3660  -30.9960   35.6630 C.3      12 GLL5        0.0000 
     99 CA         24.6490  -29.9278   36.5735 C.3       4 GLC5        0.0000 
    100 CA         26.5300  -30.3740   36.1250 C.3      12 GLL5        0.0000 
    101 CA         23.7750  -28.3610   37.1820 C.3       8 GLP5        0.0000 
    102 CA         14.5840  -37.8812   30.1165 C.3       4 GLC5        0.0000 
    103 CA         15.8190  -36.6490   29.1810 C.3      12 GLL5        0.0000 
    104 CA         13.9370  -38.9220   31.4950 C.3       8 GLP5        0.0000 
    105 CA         17.1566  -35.1091   30.4292 C.3       4 GLC5        0.0000 
    106 CA         15.0189  -34.7114   29.0331 C.3       4 GLC5        0.0000 
    107 CA         14.5970  -32.7980   29.5630 C.3       8 GLP5        0.0000 
    108 CA         16.4365  -38.8655   25.0120 C.3       4 GLC5        0.0000 
    109 CA         15.0460  -39.3440   25.7630 C.3      12 GLL5        0.0000 
@<TRIPOS>BOND
@<TRIPOS>SUBSTRUCTURE
     1 ALC1       23 GROUP        1 X    ALC  0     ROOT ALC X 1
     2 SEC2        1 GROUP        1 X    SEC  0     **** SEC X 2
     3 LYC4       30 GROUP        1 X    LYC  0     **** LYC X 4
     4 GLC5        9 GROUP        1 X    GLC  0     **** GLC X 6
     5 ALP1       25 GROUP        1 Y    ALP  0     ROOT ALP Y 8
     6 SEP2        3 GROUP        1 Y    SEP  0     **** SEP Y 9
     7 LYP4       32 GROUP        1 Y    LYP  0     **** LYP Y 11
     8 GLP5       11 GROUP        1 Y    GLP  0     **** GLP Y 13
     9 ALL1       24 GROUP        1 Z    ALL  0     ROOT ALL Z 15
    10 SEL2        2 GROUP        1 Z    SEL  0     **** SEL Z 16
    11 LYL4       31 GROUP        1 Z    LYL  0     **** LYL Z 18
    12 GLL5       10 GROUP        1 Z    GLL  0     **** GLL Z 20
@<TRIPOS>SET

