#    Name: 4ijr_NDP_2_ligand
#    Modification time : Tue Mar 25 04:07:57 2014

@<TRIPOS>MOLECULE
4ijr_NDP_2_ligand
   74    78     1     0     0
SMALL
NO_CHARGES


@<TRIPOS>ATOM
      1 PA         21.5670  -35.8080   30.4280 P.3       1 NDP401      0.0000 
      2 O1A        22.6810  -35.9820   29.4820 O.co2     1 NDP401      0.0000 
      3 O2A        20.8510  -34.5550   30.1390 O.co2     1 NDP401      0.0000 
      4 O5B        22.2240  -35.6950   31.8970 O.3       1 NDP401      0.0000 
      5 C5B        21.3990  -35.4530   33.0130 C.3       1 NDP401      0.0000 
      6 C4B        22.1650  -35.5520   34.3240 C.3       1 NDP401      0.0000 
      7 O4B        23.2570  -34.6550   34.3460 O.3       1 NDP401      0.0000 
      8 C3B        21.2370  -35.1550   35.4670 C.3       1 NDP401      0.0000 
      9 O3B        21.2250  -36.1730   36.4470 O.3       1 NDP401      0.0000 
     10 C2B        21.8020  -33.8540   36.0050 C.3       1 NDP401      0.0000 
     11 O2B        21.6600  -33.7450   37.4040 O.3       1 NDP401      0.0000 
     12 C1B        23.2560  -33.9630   35.5780 C.3       1 NDP401      0.0000 
     13 N9A        23.9050  -32.6530   35.4440 N.pl3     1 NDP401      0.0000 
     14 C8A        23.4520  -31.5780   34.7230 C.2       1 NDP401      0.0000 
     15 N7A        24.3510  -30.5820   34.8670 N.2       1 NDP401      0.0000 
     16 C5A        25.3660  -30.9960   35.6630 C.ar      1 NDP401      0.0000 
     17 C6A        26.5300  -30.3740   36.1250 C.ar      1 NDP401      0.0000 
     18 N6A        26.8290  -29.1300   35.7500 N.pl3     1 NDP401      0.0000 
     19 N1A        27.3960  -31.0720   36.9500 N.ar      1 NDP401      0.0000 
     20 C2A        27.1130  -32.3750   37.3120 C.ar      1 NDP401      0.0000 
     21 N3A        25.9590  -32.9810   36.8460 N.ar      1 NDP401      0.0000 
     22 C4A        25.0980  -32.3040   36.0360 C.ar      1 NDP401      0.0000 
     23 O3         20.6990  -37.1790   30.5170 O.3       1 NDP401      0.0000 
     24 PN         19.1490  -37.5220   30.1690 P.3       1 NDP401      0.0000 
     25 O1N        18.3090  -36.9260   31.2210 O.co2     1 NDP401      0.0000 
     26 O2N        19.0490  -38.9860   29.9160 O.co2     1 NDP401      0.0000 
     27 O5D        18.8230  -36.8230   28.7420 O.3       1 NDP401      0.0000 
     28 C5D        18.1370  -35.5970   28.6180 C.3       1 NDP401      0.0000 
     29 C4D        16.6580  -35.7860   28.2420 C.3       1 NDP401      0.0000 
     30 O4D        16.5030  -36.4110   26.9780 O.3       1 NDP401      0.0000 
     31 C3D        15.8190  -36.6490   29.1810 C.3       1 NDP401      0.0000 
     32 O3D        15.4440  -36.0190   30.3760 O.3       1 NDP401      0.0000 
     33 C2D        14.6430  -37.0320   28.2950 C.3       1 NDP401      0.0000 
     34 O2D        13.6960  -35.9790   28.1820 O.3       1 NDP401      0.0000 
     35 C1D        15.3430  -37.2340   26.9540 C.3       1 NDP401      0.0000 
     36 N1N        15.7030  -38.6660   26.7470 N.pl3     1 NDP401      0.0000 
     37 C2N        15.0460  -39.3440   25.7630 C.2       1 NDP401      0.0000 
     38 C3N        15.1100  -40.7320   25.6270 C.2       1 NDP401      0.0000 
     39 C7N        14.3590  -41.3820   24.4970 C.2       1 NDP401      0.0000 
     40 O7N        14.2380  -42.7840   24.4690 O.2       1 NDP401      0.0000 
     41 N7N        13.8540  -40.6110   23.5230 N.am      1 NDP401      0.0000 
     42 C4N        15.9300  -41.5800   26.5770 C.3       1 NDP401      0.0000 
     43 C5N        16.6250  -40.7440   27.6250 C.2       1 NDP401      0.0000 
     44 C6N        16.4830  -39.3560   27.6540 C.2       1 NDP401      0.0000 
     45 P2B        21.1850  -32.3980   38.1550 P.3       1 NDP401      0.0000 
     46 O1X        19.6830  -32.3100   38.0540 O.co2     1 NDP401      0.0000 
     47 O2X        21.5060  -32.5050   39.6330 O.co2     1 NDP401      0.0000 
     48 O3X        21.8820  -31.1780   37.6120 O.co2     1 NDP401      0.0000 
     49 H          20.5567  -36.1726   33.0673 H         1 NDP401      0.0000 
     50 H          20.9384  -34.4447   32.9748 H         1 NDP401      0.0000 
     51 H          22.4670  -36.5641   34.4793 H         1 NDP401      0.0000 
     52 H          20.2733  -34.9586   35.0487 H         1 NDP401      0.0000 
     53 H          21.3622  -33.0566   35.4508 H         1 NDP401      0.0000 
     54 H          23.7683  -34.5543   36.3360 H         1 NDP401      0.0000 
     55 H          22.6429  -31.5518   34.2140 H         1 NDP401      0.0000 
     56 H          26.9689  -28.9875   34.7701 H         1 NDP401      0.0000 
     57 H          26.8864  -28.4514   36.4823 H         1 NDP401      0.0000 
     58 H          27.7562  -32.8934   37.9250 H         1 NDP401      0.0000 
     59 H          18.5870  -34.9456   27.8414 H         1 NDP401      0.0000 
     60 H          18.1587  -35.0115   29.5596 H         1 NDP401      0.0000 
     61 H          16.1770  -34.7965   28.2078 H         1 NDP401      0.0000 
     62 H          16.3901  -37.5686   29.3363 H         1 NDP401      0.0000 
     63 H          14.2596  -37.9502   28.6094 H         1 NDP401      0.0000 
     64 H          14.6619  -36.9125   26.1815 H         1 NDP401      0.0000 
     65 H          14.4621  -38.8103   25.0696 H         1 NDP401      0.0000 
     66 H          13.3965  -41.0910   22.7745 H         1 NDP401      0.0000 
     67 H          13.9801  -39.6250   23.6323 H         1 NDP401      0.0000 
     68 H          16.6789  -42.1410   26.0042 H         1 NDP401      0.0000 
     69 H          15.2726  -42.3074   27.0694 H         1 NDP401      0.0000 
     70 H          17.1960  -41.2476   28.3003 H         1 NDP401      0.0000 
     71 H          16.9921  -38.8204   28.3976 H         1 NDP401      0.0000 
     72 H          21.4812  -35.7155   37.2985 H         1 NDP401      0.0000 
     73 H          16.2423  -36.1001   30.9728 H         1 NDP401      0.0000 
     74 H          13.2710  -36.1084   27.2861 H         1 NDP401      0.0000 
@<TRIPOS>BOND
     1    2    1 ar   
     2    3    1 ar   
     3    4    1 1    
     4   23    1 1    
     5    5    4 1    
     6    6    5 1    
     7   49    5 1    
     8   50    5 1    
     9    7    6 1    
    10    8    6 1    
    11   51    6 1    
    12   12    7 1    
    13    9    8 1    
    14   10    8 1    
    15   52    8 1    
    16   72    9 1    
    17   11   10 1    
    18   12   10 1    
    19   53   10 1    
    20   45   11 1    
    21   13   12 1    
    22   54   12 1    
    23   14   13 1    
    24   22   13 1    
    25   15   14 2    
    26   55   14 1    
    27   16   15 1    
    28   17   16 ar   
    29   22   16 ar   
    30   18   17 1    
    31   19   17 ar   
    32   56   18 1    
    33   57   18 1    
    34   20   19 ar   
    35   21   20 ar   
    36   58   20 1    
    37   22   21 ar   
    38   24   23 1    
    39   25   24 ar   
    40   26   24 ar   
    41   27   24 1    
    42   28   27 1    
    43   29   28 1    
    44   59   28 1    
    45   60   28 1    
    46   30   29 1    
    47   31   29 1    
    48   61   29 1    
    49   35   30 1    
    50   32   31 1    
    51   33   31 1    
    52   62   31 1    
    53   73   32 1    
    54   34   33 1    
    55   35   33 1    
    56   63   33 1    
    57   74   34 1    
    58   36   35 1    
    59   64   35 1    
    60   37   36 1    
    61   44   36 1    
    62   38   37 2    
    63   65   37 1    
    64   39   38 1    
    65   42   38 1    
    66   40   39 2    
    67   41   39 am   
    68   66   41 1    
    69   67   41 1    
    70   43   42 1    
    71   68   42 1    
    72   69   42 1    
    73   44   43 2    
    74   70   43 1    
    75   71   44 1    
    76   46   45 ar   
    77   47   45 ar   
    78   48   45 ar   
@<TRIPOS>SUBSTRUCTURE
     1 NDP401      1 GROUP   
@<TRIPOS>SET

