#    Name: 3ulk_NDP_1_INTS_M
#    Modification time : Mon Mar 24 22:54:45 2014

@<TRIPOS>MOLECULE
3ulk_NDP_1_INTS_M
   85     0    12     0     0
SMALL
NO_CHARGES


@<TRIPOS>ATOM
      1 N           7.5285   47.9715   63.6705 N.am      2 SEC2        0.0000 
      2 N           6.7260   46.9240   64.3850 N.am     10 SEL2        0.0000 
      3 N           8.3310   49.0190   62.9560 N.am      6 SEP2        0.0000 
      4 N           8.2075   43.4755   59.2865 N.am      2 SEC2        0.0000 
      5 N           6.7610   42.9710   59.6070 N.am     10 SEL2        0.0000 
      6 N           9.6540   43.9800   58.9660 N.am      6 SEP2        0.0000 
      7 N           4.5395   39.3960   60.0180 N.am      2 SEC2        0.0000 
      8 N           5.3910   40.8070   59.7620 N.am     10 SEL2        0.0000 
      9 N           3.6880   37.9850   60.2740 N.am      6 SEP2        0.0000 
     10 CA          8.3540   41.3500   60.8640 C.3       4 GLC5        0.0000 
     11 CA          6.5360   40.9140   61.8610 C.3      12 GLL5        0.0000 
     12 CA         10.1720   41.7860   59.8670 C.3       8 GLP5        0.0000 
     13 CA          8.0240   40.2105   62.7100 C.3       4 GLC5        0.0000 
     14 CA          9.5120   39.5070   63.5590 C.3       8 GLP5        0.0000 
     15 CA          6.5135   41.1610   63.9480 C.3       4 GLC5        0.0000 
     16 CA          6.4910   41.4080   66.0350 C.3       8 GLP5        0.0000 
     17 CA          6.4075   35.8020   60.1925 C.3       4 GLC5        0.0000 
     18 CA          7.4530   36.5630   61.5180 C.3      12 GLL5        0.0000 
     19 CA          5.3620   35.0410   58.8670 C.3       8 GLP5        0.0000 
     20 CA          8.4825   38.0350   62.5385 C.3       4 GLC5        0.0000 
     21 CA          8.3440   36.1460   63.0305 C.3       4 GLC5        0.0000 
     22 CA          9.2350   35.7290   64.5430 C.3       8 GLP5        0.0000 
     23 N          10.1290   48.3610   65.1560 N.am      2 SEC2        0.0000 
     24 N           9.3900   47.3390   65.7990 N.am     10 SEL2        0.0000 
     25 N          10.8680   49.3830   64.5130 N.am      6 SEP2        0.0000 
     26 CA         11.6110   46.7385   66.6225 C.3       4 GLC5        0.0000 
     27 CA         10.5380   45.0230   67.3500 C.3      12 GLL5        0.0000 
     28 CA         12.6840   48.4540   65.8950 C.3       8 GLP5        0.0000 
     29 CA         11.6845   43.9125   66.1015 C.3       4 GLC5        0.0000 
     30 CA         12.8310   42.8020   64.8530 C.3       8 GLP5        0.0000 
     31 CA          9.9720   43.1285   66.3815 C.3       4 GLC5        0.0000 
     32 CA          9.4060   41.2340   65.4130 C.3       8 GLP5        0.0000 
     33 CA         13.0570   44.7865   67.3645 C.3       4 GLC5        0.0000 
     34 CA         11.5210   44.7960   68.4920 C.3      12 GLL5        0.0000 
     35 CA         14.5930   44.7770   66.2370 C.3       8 GLP5        0.0000 
     36 N          12.8240   42.6025   69.8125 N.am      2 SEC2        0.0000 
     37 N          11.5420   43.2170   70.2940 N.am     10 SEL2        0.0000 
     38 N          14.1060   41.9880   69.3310 N.am      6 SEP2        0.0000 
     39 O          11.2230   42.3850   71.2475 O.2       1 ALC1        0.0000 
     40 O          11.5420   43.2170   70.2940 O.2       9 ALL1        0.0000 
     41 O          10.9040   41.5530   72.2010 O.2       5 ALP1        0.0000 
     42 O          10.4765   43.1235   71.5765 O.2       1 ALC1        0.0000 
     43 O           9.4110   43.0300   72.8590 O.2       5 ALP1        0.0000 
     44 O          10.8055   43.2660   72.0890 O.2       1 ALC1        0.0000 
     45 O          10.7070   44.9790   71.9770 O.2       9 ALL1        0.0000 
     46 O          10.0590   44.0045   72.4180 O.2       1 ALC1        0.0000 
     47 CA         12.1935   47.6055   68.7580 C.3       4 GLC5        0.0000 
     48 CA         12.0590   46.0960   70.2910 C.3      12 GLL5        0.0000 
     49 CA         12.3280   49.1150   67.2250 C.3       8 GLP5        0.0000 
     50 CA         13.9720   45.8070   69.8945 C.3       4 GLC5        0.0000 
     51 CA         15.8850   45.5180   69.4980 C.3       8 GLP5        0.0000 
     52 CA         15.4320   49.5585   70.7330 C.3       4 GLC5        0.0000 
     53 CA         13.4460   49.3070   71.5920 C.3      12 GLL5        0.0000 
     54 CA         17.4180   49.8100   69.8740 C.3       8 GLP5        0.0000 
     55 CA         12.8175   48.5455   69.2195 C.3       4 GLC5        0.0000 
     56 CA         13.3070   47.9760   71.2140 C.3      12 GLL5        0.0000 
     57 CA         14.5960   46.7470   70.3560 C.3       4 GLC5        0.0000 
     58 NZ          3.0705   39.1560   57.5080 N.4       3 LYC4        0.0000 
     59 NZ          4.1820   39.9840   57.7240 N.4      11 LYL4        0.0000 
     60 NZ          0.9640   38.4020   56.4100 N.4       7 LYP4        0.0000 
     61 N           3.9350   38.9845   58.9990 N.am      2 SEC2        0.0000 
     62 N           4.1820   39.9840   57.7240 N.am     10 SEL2        0.0000 
     63 N           3.0705   39.1560   57.5080 N.am      2 SEC2        0.0000 
     64 N           1.9590   38.3280   57.2920 N.am      6 SEP2        0.0000 
     65 N           5.2895   42.8175   56.7765 N.am      2 SEC2        0.0000 
     66 N           4.8270   42.3460   57.8230 N.am     10 SEL2        0.0000 
     67 N           5.7520   43.2890   55.7300 N.am      6 SEP2        0.0000 
     68 CA          7.3537   45.4657   61.8680 C.3       4 GLC5        0.0000 
     69 CA          6.9010   43.1810   61.9470 C.3      12 GLL5        0.0000 
     70 CA          8.1040   47.1940   61.3690 C.3       8 GLP5        0.0000 
     71 CA          6.5473   42.5727   64.2010 C.3       4 GLC5        0.0000 
     72 CA          6.3060   44.2940   62.7870 C.3      12 GLL5        0.0000 
     73 CA          8.3050   42.4200   60.6125 C.3       4 GLC5        0.0000 
     74 CA          7.7585   38.7942   63.1930 C.3       4 GLC5        0.0000 
     75 CA          6.3690   38.4740   62.3890 C.3      12 GLL5        0.0000 
     76 CA          5.2037   36.8927   64.9333 C.3       4 GLC5        0.0000 
     77 CA          5.6410   37.6890   63.2650 C.3      12 GLL5        0.0000 
     78 CA          4.6750   36.7840   66.6040 C.3       8 GLP5        0.0000 
     79 CA          7.4837   36.3653   63.9027 C.3       4 GLC5        0.0000 
     80 CA          5.8240   36.3140   63.2600 C.3      12 GLL5        0.0000 
     81 CA         12.4202   44.6257   72.0575 C.3       4 GLC5        0.0000 
     82 CA         10.7420   45.4310   70.6490 C.3      12 GLL5        0.0000 
     83 CA         13.4400   43.4880   73.6450 C.3       8 GLP5        0.0000 
     84 CA         12.0069   49.3669   69.1645 C.3       4 GLC5        0.0000 
     85 CA         11.0370   48.2840   70.5660 C.3      12 GLL5        0.0000 
@<TRIPOS>BOND
@<TRIPOS>SUBSTRUCTURE
     1 ALC1       39 GROUP        1 X    ALC  0     ROOT ALC X 1
     2 SEC2        1 GROUP        1 X    SEC  0     **** SEC X 2
     3 LYC4       58 GROUP        1 X    LYC  0     **** LYC X 4
     4 GLC5       10 GROUP        1 X    GLC  0     **** GLC X 6
     5 ALP1       41 GROUP        1 Y    ALP  0     ROOT ALP Y 8
     6 SEP2        3 GROUP        1 Y    SEP  0     **** SEP Y 9
     7 LYP4       60 GROUP        1 Y    LYP  0     **** LYP Y 11
     8 GLP5       12 GROUP        1 Y    GLP  0     **** GLP Y 13
     9 ALL1       40 GROUP        1 Z    ALL  0     ROOT ALL Z 15
    10 SEL2        2 GROUP        1 Z    SEL  0     **** SEL Z 16
    11 LYL4       59 GROUP        1 Z    LYL  0     **** LYL Z 18
    12 GLL5       11 GROUP        1 Z    GLL  0     **** GLL Z 20
@<TRIPOS>SET

