#    Name: 3ulk_NDP_1_ligand
#    Modification time : Mon Mar 24 22:54:45 2014

@<TRIPOS>MOLECULE
3ulk_NDP_1_ligand
   74    78     1     0     0
SMALL
NO_CHARGES


@<TRIPOS>ATOM
      1 PA          6.6120   45.5940   65.0180 P.3       1 NDP492      0.0000 
      2 O1A         6.7260   46.9240   64.3850 O.co2     1 NDP492      0.0000 
      3 O2A         5.2700   45.3810   65.6030 O.co2     1 NDP492      0.0000 
      4 O5B         6.9880   44.4040   64.0010 O.3       1 NDP492      0.0000 
      5 C5B         6.3060   44.2940   62.7870 C.3       1 NDP492      0.0000 
      6 C4B         6.9010   43.1810   61.9470 C.3       1 NDP492      0.0000 
      7 O4B         7.0260   41.9660   62.6680 O.3       1 NDP492      0.0000 
      8 C3B         5.9750   42.9270   60.7690 C.3       1 NDP492      0.0000 
      9 O3B         6.7610   42.9710   59.6070 O.3       1 NDP492      0.0000 
     10 C2B         5.4700   41.5200   60.9730 C.3       1 NDP492      0.0000 
     11 O2B         5.3910   40.8070   59.7620 O.3       1 NDP492      0.0000 
     12 C1B         6.5360   40.9140   61.8610 C.3       1 NDP492      0.0000 
     13 N9A         5.9870   39.7710   62.6030 N.pl3     1 NDP492      0.0000 
     14 C8A         5.0430   39.7810   63.5900 C.2       1 NDP492      0.0000 
     15 N7A         4.8410   38.5020   63.9900 N.2       1 NDP492      0.0000 
     16 C5A         5.6410   37.6890   63.2650 C.ar      1 NDP492      0.0000 
     17 C6A         5.8240   36.3140   63.2600 C.ar      1 NDP492      0.0000 
     18 N6A         5.0140   35.5320   63.9750 N.pl3     1 NDP492      0.0000 
     19 N1A         6.7310   35.7610   62.3790 N.ar      1 NDP492      0.0000 
     20 C2A         7.4530   36.5630   61.5180 C.ar      1 NDP492      0.0000 
     21 N3A         7.2620   37.9260   61.5250 N.ar      1 NDP492      0.0000 
     22 C4A         6.3690   38.4740   62.3890 C.ar      1 NDP492      0.0000 
     23 O3          7.8080   45.4100   66.0770 O.3       1 NDP492      0.0000 
     24 PN          8.5380   46.6410   66.7990 P.3       1 NDP492      0.0000 
     25 O1N         9.3900   47.3390   65.7990 O.co2     1 NDP492      0.0000 
     26 O2N         7.5750   47.4230   67.6090 O.co2     1 NDP492      0.0000 
     27 O5D         9.4560   45.7970   67.8150 O.3       1 NDP492      0.0000 
     28 C5D        10.5380   45.0230   67.3500 C.3       1 NDP492      0.0000 
     29 C4D        11.5210   44.7960   68.4920 C.3       1 NDP492      0.0000 
     30 O4D        12.1590   46.0030   68.8850 O.3       1 NDP492      0.0000 
     31 C3D        10.7840   44.2530   69.7140 C.3       1 NDP492      0.0000 
     32 O3D        11.5420   43.2170   70.2940 O.3       1 NDP492      0.0000 
     33 C2D        10.7420   45.4310   70.6490 C.3       1 NDP492      0.0000 
     34 O2D        10.7070   44.9790   71.9770 O.3       1 NDP492      0.0000 
     35 C1D        12.0590   46.0960   70.2910 C.3       1 NDP492      0.0000 
     36 N1N        12.1260   47.4910   70.7210 N.pl3     1 NDP492      0.0000 
     37 C2N        11.0370   48.2840   70.5660 C.2       1 NDP492      0.0000 
     38 C3N        11.0740   49.6250   70.9140 C.2       1 NDP492      0.0000 
     39 C7N         9.8450   50.4440   70.7040 C.2       1 NDP492      0.0000 
     40 O7N         9.7510   51.6920   71.3480 O.2       1 NDP492      0.0000 
     41 N7N         8.9000   49.9670   69.8910 N.am      1 NDP492      0.0000 
     42 C4N        12.3160   50.2830   71.4680 C.3       1 NDP492      0.0000 
     43 C5N        13.4460   49.3070   71.5920 C.2       1 NDP492      0.0000 
     44 C6N        13.3070   47.9760   71.2140 C.2       1 NDP492      0.0000 
     45 P2B         4.3150   41.1880   58.6180 P.3       1 NDP492      0.0000 
     46 O1X         4.1820   39.9840   57.7240 O.co2     1 NDP492      0.0000 
     47 O2X         4.8270   42.3460   57.8230 O.co2     1 NDP492      0.0000 
     48 O3X         2.9750   41.5980   59.1930 O.co2     1 NDP492      0.0000 
     49 H           6.3586   45.2223   62.1920 H         1 NDP492      0.0000 
     50 H           5.2351   44.0663   62.9279 H         1 NDP492      0.0000 
     51 H           7.8455   43.5122   61.5505 H         1 NDP492      0.0000 
     52 H           5.1885   43.6020   60.7935 H         1 NDP492      0.0000 
     53 H           4.5667   41.5577   61.5216 H         1 NDP492      0.0000 
     54 H           7.3260   40.5608   61.1823 H         1 NDP492      0.0000 
     55 H           4.6036   40.5601   63.9353 H         1 NDP492      0.0000 
     56 H           5.2331   34.5563   63.9768 H         1 NDP492      0.0000 
     57 H           4.2605   35.9917   64.4450 H         1 NDP492      0.0000 
     58 H           8.1353   36.1389   60.8700 H         1 NDP492      0.0000 
     59 H          11.0831   45.5180   66.5368 H         1 NDP492      0.0000 
     60 H          10.2182   44.0384   66.9872 H         1 NDP492      0.0000 
     61 H          12.2397   44.0514   68.1886 H         1 NDP492      0.0000 
     62 H           9.8138   43.9880   69.4356 H         1 NDP492      0.0000 
     63 H           9.9563   46.0586   70.3575 H         1 NDP492      0.0000 
     64 H          12.8492   45.5174   70.7579 H         1 NDP492      0.0000 
     65 H          10.1521   47.8913   70.1802 H         1 NDP492      0.0000 
     66 H           9.0819   49.0729   69.4818 H         1 NDP492      0.0000 
     67 H           8.0950   50.5466   69.7642 H         1 NDP492      0.0000 
     68 H          12.0880   50.7095   72.4524 H         1 NDP492      0.0000 
     69 H          12.6116   51.1066   70.8068 H         1 NDP492      0.0000 
     70 H          14.3242   49.6737   71.9697 H         1 NDP492      0.0000 
     71 H          14.1276   47.3400   71.3122 H         1 NDP492      0.0000 
     72 H           6.1236   42.7956   58.8567 H         1 NDP492      0.0000 
     73 H          10.9353   42.8003   70.9710 H         1 NDP492      0.0000 
     74 H          10.0910   44.1914   71.9660 H         1 NDP492      0.0000 
@<TRIPOS>BOND
     1    2    1 ar   
     2    3    1 ar   
     3    4    1 1    
     4   23    1 1    
     5    5    4 1    
     6    6    5 1    
     7   49    5 1    
     8   50    5 1    
     9    7    6 1    
    10    8    6 1    
    11   51    6 1    
    12   12    7 1    
    13    9    8 1    
    14   10    8 1    
    15   52    8 1    
    16   72    9 1    
    17   11   10 1    
    18   12   10 1    
    19   53   10 1    
    20   45   11 1    
    21   13   12 1    
    22   54   12 1    
    23   14   13 1    
    24   22   13 1    
    25   15   14 2    
    26   55   14 1    
    27   16   15 1    
    28   17   16 ar   
    29   22   16 ar   
    30   18   17 1    
    31   19   17 ar   
    32   56   18 1    
    33   57   18 1    
    34   20   19 ar   
    35   21   20 ar   
    36   58   20 1    
    37   22   21 ar   
    38   24   23 1    
    39   25   24 ar   
    40   26   24 ar   
    41   27   24 1    
    42   28   27 1    
    43   29   28 1    
    44   59   28 1    
    45   60   28 1    
    46   30   29 1    
    47   31   29 1    
    48   61   29 1    
    49   35   30 1    
    50   32   31 1    
    51   33   31 1    
    52   62   31 1    
    53   73   32 1    
    54   34   33 1    
    55   35   33 1    
    56   63   33 1    
    57   74   34 1    
    58   36   35 1    
    59   64   35 1    
    60   37   36 1    
    61   44   36 1    
    62   38   37 2    
    63   65   37 1    
    64   39   38 1    
    65   42   38 1    
    66   40   39 2    
    67   41   39 am   
    68   66   41 1    
    69   67   41 1    
    70   43   42 1    
    71   68   42 1    
    72   69   42 1    
    73   44   43 2    
    74   70   43 1    
    75   71   44 1    
    76   46   45 ar   
    77   47   45 ar   
    78   48   45 ar   
@<TRIPOS>SUBSTRUCTURE
     1 NDP492      1 GROUP   
@<TRIPOS>SET

