#    Name: 2w5b_AGS_1_INTS_M
#    Modification time : Tue Mar 25 03:41:27 2014

@<TRIPOS>MOLECULE
2w5b_AGS_1_INTS_M
   51     0    15     0     0
SMALL
NO_CHARGES


@<TRIPOS>ATOM
      1 Zn         23.7380   15.0730  -12.7350 Zn        4 ZIC7        0.0000 
      2 Zn         23.8150   16.0580  -11.8120 Zn       14 ZIL7        0.0000 
      3 Zn         23.6610   14.0880  -13.6580 Zn        9 ZIP7        0.0000 
      4 CA         23.5450   12.1520  -10.5540 C.3       5 GLC5        0.0000 
      5 CA         25.0160   13.6830  -10.5900 C.3      15 GLL5        0.0000 
      6 CA         22.0740   10.6210  -10.5180 C.3      10 GLP5        0.0000 
      7 NZ         25.8870   11.5110  -13.3795 N.4       3 LYC4        0.0000 
      8 NZ         26.4440   12.2890  -14.3900 N.4      13 LYL4        0.0000 
      9 NZ         25.3300   10.7330  -12.3690 N.4       8 LYP4        0.0000 
     10 N          25.8870   11.5110  -13.3795 N.am      2 SEC2        0.0000 
     11 N          26.4440   12.2890  -14.3900 N.am     12 SEL2        0.0000 
     12 N          25.3300   10.7330  -12.3690 N.am      7 SEP2        0.0000 
     13 Zn         24.9060   14.3220  -13.5510 Zn        4 ZIC7        0.0000 
     14 Zn         26.1510   14.5560  -13.4440 Zn       14 ZIL7        0.0000 
     15 CA         29.8355   12.5780  -18.9615 C.3       5 GLC5        0.0000 
     16 CA         28.9400   13.7560  -17.5190 C.3      15 GLL5        0.0000 
     17 CA         30.7310   11.4000  -20.4040 C.3      10 GLP5        0.0000 
     18 CA         29.1370   11.8715  -19.5855 C.3       5 GLC5        0.0000 
     19 CA         27.5430   12.3430  -18.7670 C.3      15 GLL5        0.0000 
     20 CA         28.3200   10.7175  -17.4385 C.3       5 GLC5        0.0000 
     21 CA         29.0970    9.0920  -16.1100 C.3      10 GLP5        0.0000 
     22 CA         23.8345    7.8590  -20.5970 C.3       5 GLC5        0.0000 
     23 CA         25.0120    8.0640  -18.7980 C.3      15 GLL5        0.0000 
     24 CA         22.6570    7.6540  -22.3960 C.3      10 GLP5        0.0000 
     25 O          24.1280    5.9045  -18.5710 O.2       1 ALC1        0.0000 
     26 O          24.1860    7.2290  -18.1190 O.2      11 ALL1        0.0000 
     27 O          24.0700    4.5800  -19.0230 O.2       6 ALP1        0.0000 
     28 N          24.9940    6.9290  -21.1200 N.am      2 SEC2        0.0000 
     29 N          25.4340    7.7650  -20.0480 N.am     12 SEL2        0.0000 
     30 N          24.5540    6.0930  -22.1920 N.am      7 SEP2        0.0000 
     31 CA         28.3915    8.4675  -20.3200 C.3       5 GLC5        0.0000 
     32 CA         26.2510    8.5660  -20.7550 C.3      15 GLL5        0.0000 
     33 CA         30.5320    8.3690  -19.8850 C.3      10 GLP5        0.0000 
     34 CA         27.3570    7.1425  -19.8200 C.3       5 GLC5        0.0000 
     35 CA         28.4630    5.7190  -18.8850 C.3      10 GLP5        0.0000 
     36 CA         25.9315    6.3670  -21.0060 C.3       5 GLC5        0.0000 
     37 CA         25.6120    4.1680  -21.2570 C.3      10 GLP5        0.0000 
     38 CA         24.9820    7.6935  -21.9375 C.3       5 GLC5        0.0000 
     39 CA         23.7130    6.8210  -23.1200 C.3      10 GLP5        0.0000 
     40 CA         30.8195   13.9370  -16.8293 C.3       5 GLC5        0.0000 
     41 CA         32.6660   14.0460  -16.8980 C.3      10 GLP5        0.0000 
     42 CA         29.4765   12.0375  -15.9168 C.3       5 GLC5        0.0000 
     43 CA         29.0060   13.9000  -16.0020 C.3      15 GLL5        0.0000 
     44 CA         29.9800   10.2470  -15.0730 C.3      10 GLP5        0.0000 
     45 CA         25.2482   12.5040  -18.8822 C.3       5 GLC5        0.0000 
     46 CA         23.3100   11.9970  -19.0600 C.3      10 GLP5        0.0000 
     47 CA         27.5132    9.4228  -17.3690 C.3       5 GLC5        0.0000 
     48 CA         26.3760   10.1640  -19.0440 C.3      15 GLL5        0.0000 
     49 CA         26.2028    7.0873  -17.6185 C.3       5 GLC5        0.0000 
     50 CA         25.4830    9.3430  -18.2120 C.3      15 GLL5        0.0000 
     51 CA         27.1580    5.4710  -16.7320 C.3      10 GLP5        0.0000 
@<TRIPOS>BOND
@<TRIPOS>SUBSTRUCTURE
     1 ALC1       25 GROUP        1 X    ALC  0     ROOT ALC X 1
     2 SEC2       10 GROUP        1 X    SEC  0     **** SEC X 2
     3 LYC4        7 GROUP        1 X    LYC  0     **** LYC X 4
     4 ZIC7        1 GROUP        1 X    ZIC  0     **** ZIC X 5
     5 GLC5        4 GROUP        1 X    GLC  0     **** GLC X 6
     6 ALP1       27 GROUP        1 Y    ALP  0     ROOT ALP Y 8
     7 SEP2       12 GROUP        1 Y    SEP  0     **** SEP Y 9
     8 LYP4        9 GROUP        1 Y    LYP  0     **** LYP Y 11
     9 ZIP7        3 GROUP        1 Y    ZIP  0     **** ZIP Y 12
    10 GLP5        6 GROUP        1 Y    GLP  0     **** GLP Y 13
    11 ALL1       26 GROUP        1 Z    ALL  0     ROOT ALL Z 15
    12 SEL2       11 GROUP        1 Z    SEL  0     **** SEL Z 16
    13 LYL4        8 GROUP        1 Z    LYL  0     **** LYL Z 18
    14 ZIL7        2 GROUP        1 Z    ZIL  0     **** ZIL Z 19
    15 GLL5        5 GROUP        1 Z    GLL  0     **** GLL Z 20
@<TRIPOS>SET

