#    Name: 2w5b_AGS_1_ligand
#    Modification time : Tue Mar 25 03:41:27 2014

@<TRIPOS>MOLECULE
2w5b_AGS_1_ligand
   43    45     1     0     0
SMALL
NO_CHARGES


@<TRIPOS>ATOM
      1 PG         24.9670   15.7430  -10.8840 P.3       1 AGS1280     0.0000 
      2 O2G        23.8150   16.0580  -11.8120 O.co2     1 AGS1280     0.0000 
      3 O3G        25.0050   16.4030   -9.5260 O.co2     1 AGS1280     0.0000 
      4 S1G        25.0160   13.6830  -10.5900 S.3       1 AGS1280     0.0000 
      5 PB         26.4160   16.1300  -13.2550 P.3       1 AGS1280     0.0000 
      6 O1B        27.8270   16.4610  -13.6790 O.co2     1 AGS1280     0.0000 
      7 O2B        25.2690   16.8790  -13.8950 O.co2     1 AGS1280     0.0000 
      8 O3B        26.3230   16.1770  -11.6450 O.3       1 AGS1280     0.0000 
      9 PA         27.2150   13.5400  -14.0790 P.3       1 AGS1280     0.0000 
     10 O1A        28.3360   13.5010  -13.0660 O.co2     1 AGS1280     0.0000 
     11 O2A        26.4440   12.2890  -14.3900 O.co2     1 AGS1280     0.0000 
     12 O3A        26.1510   14.5560  -13.4440 O.3       1 AGS1280     0.0000 
     13 O5'        27.7340   14.2390  -15.4450 O.3       1 AGS1280     0.0000 
     14 C5'        29.0060   13.9000  -16.0020 C.3       1 AGS1280     0.0000 
     15 C4'        28.9400   13.7560  -17.5190 C.3       1 AGS1280     0.0000 
     16 O4'        28.6510   12.3970  -17.8680 O.3       1 AGS1280     0.0000 
     17 C3'        27.9030   14.6410  -18.1880 C.3       1 AGS1280     0.0000 
     18 O3'        28.4920   15.1800  -19.3650 O.3       1 AGS1280     0.0000 
     19 C2'        26.8300   13.6790  -18.6420 C.3       1 AGS1280     0.0000 
     20 O2'        26.3210   14.0860  -19.9100 O.3       1 AGS1280     0.0000 
     21 C1'        27.5430   12.3430  -18.7670 C.3       1 AGS1280     0.0000 
     22 N9         26.6600   11.2490  -18.3240 N.pl3     1 AGS1280     0.0000 
     23 C8         26.0470   11.1610  -17.1290 C.2       1 AGS1280     0.0000 
     24 N7         25.3230   10.0120  -17.0540 N.2       1 AGS1280     0.0000 
     25 C5         25.4830    9.3430  -18.2120 C.ar      1 AGS1280     0.0000 
     26 C6         25.0120    8.0640  -18.7980 C.ar      1 AGS1280     0.0000 
     27 N6         24.1860    7.2290  -18.1190 N.pl3     1 AGS1280     0.0000 
     28 N1         25.4340    7.7650  -20.0480 N.ar      1 AGS1280     0.0000 
     29 C2         26.2510    8.5660  -20.7550 C.ar      1 AGS1280     0.0000 
     30 N3         26.7160    9.7340  -20.2830 N.ar      1 AGS1280     0.0000 
     31 C4         26.3760   10.1640  -19.0440 C.ar      1 AGS1280     0.0000 
     32 H          29.3857   12.9470  -15.5918 H         1 AGS1280     0.0000 
     33 H          29.7657   14.6684  -15.7717 H         1 AGS1280     0.0000 
     34 H          29.9219   14.0289  -17.9269 H         1 AGS1280     0.0000 
     35 H          27.5277   15.3265  -17.5323 H         1 AGS1280     0.0000 
     36 H          26.0928   13.6049  -17.8923 H         1 AGS1280     0.0000 
     37 H          27.8548   12.2047  -19.7636 H         1 AGS1280     0.0000 
     38 H          26.1082   11.8225  -16.4136 H         1 AGS1280     0.0000 
     39 H          23.9181    6.3916  -18.5955 H         1 AGS1280     0.0000 
     40 H          23.9181    7.5247  -17.2021 H         1 AGS1280     0.0000 
     41 H          26.5413    8.2598  -21.7316 H         1 AGS1280     0.0000 
     42 H          27.9761   14.7764  -20.1206 H         1 AGS1280     0.0000 
     43 H          26.4287   13.2863  -20.5008 H         1 AGS1280     0.0000 
@<TRIPOS>BOND
     1    2    1 ar   
     2    3    1 ar   
     3    4    1 1    
     4    8    1 1    
     5    6    5 ar   
     6    7    5 ar   
     7    8    5 1    
     8   12    5 1    
     9   10    9 ar   
    10   11    9 ar   
    11   12    9 1    
    12   13    9 1    
    13   14   13 1    
    14   15   14 1    
    15   32   14 1    
    16   33   14 1    
    17   16   15 1    
    18   17   15 1    
    19   34   15 1    
    20   21   16 1    
    21   18   17 1    
    22   19   17 1    
    23   35   17 1    
    24   42   18 1    
    25   20   19 1    
    26   21   19 1    
    27   36   19 1    
    28   43   20 1    
    29   22   21 1    
    30   37   21 1    
    31   23   22 1    
    32   31   22 1    
    33   24   23 2    
    34   38   23 1    
    35   25   24 1    
    36   26   25 ar   
    37   31   25 ar   
    38   27   26 1    
    39   28   26 ar   
    40   39   27 1    
    41   40   27 1    
    42   29   28 ar   
    43   30   29 ar   
    44   41   29 1    
    45   31   30 ar   
@<TRIPOS>SUBSTRUCTURE
     1 AGS1280     1 GROUP   
@<TRIPOS>SET

