#    Name: 1wbn_L09_1_INTS_M
#    Modification time : Tue Mar 25 08:53:10 2014

@<TRIPOS>MOLECULE
1wbn_L09_1_INTS_M
   85     0     9     0     0
SMALL
NO_CHARGES


@<TRIPOS>ATOM
      1 CA          5.5750   12.3935   42.3250 C.3       3 GLC5        0.0000 
      2 CA          4.6140   14.2610   41.5920 C.3       9 GLL5        0.0000 
      3 CA          6.5360   10.5260   43.0580 C.3       6 GLP5        0.0000 
      4 CA          3.1485   13.7600   42.3250 C.3       3 GLC5        0.0000 
      5 CA          1.6830   13.2590   43.0580 C.3       6 GLP5        0.0000 
      6 CA          3.5835   13.4740   40.2450 C.3       3 GLC5        0.0000 
      7 CA          2.5530   12.6870   38.8980 C.3       6 GLP5        0.0000 
      8 CA          6.3400   16.0765   44.4020 C.3       3 GLC5        0.0000 
      9 CA          5.6740   16.3200   42.5570 C.3       9 GLL5        0.0000 
     10 CA          7.0060   15.8330   46.2470 C.3       6 GLP5        0.0000 
     11 CA          7.2220   17.4435   43.5190 C.3       3 GLC5        0.0000 
     12 CA          8.7700   18.5670   44.4810 C.3       6 GLP5        0.0000 
     13 CA          8.3865   15.7280   40.7585 C.3       3 GLC5        0.0000 
     14 CA          7.1040   14.3520   41.9250 C.3       9 GLL5        0.0000 
     15 CA          9.6690   17.1040   39.5920 C.3       6 GLP5        0.0000 
     16 CA          7.9190   13.4255   43.1450 C.3       3 GLC5        0.0000 
     17 CA          8.7340   12.4990   44.3650 C.3       6 GLP5        0.0000 
     18 CA          6.8200   12.4390   42.4915 C.3       3 GLC5        0.0000 
     19 CA          6.0095   12.9200   38.7790 C.3       3 GLC5        0.0000 
     20 CA          6.0610   15.0720   38.9340 C.3       9 GLL5        0.0000 
     21 CA          5.9580   10.7680   38.6240 C.3       6 GLP5        0.0000 
     22 CA          4.3070   13.8795   38.9160 C.3       3 GLC5        0.0000 
     23 N           4.1015   14.1095   36.8410 N.am      2 SEC2        0.0000 
     24 N           5.5610   13.6520   36.3430 N.am      8 SEL2        0.0000 
     25 N           2.6420   14.5670   37.3390 N.am      5 SEP2        0.0000 
     26 O           7.3445   15.5845   33.9245 O.2       1 ALC1        0.0000 
     27 O           6.4220   14.5830   34.4770 O.2       7 ALL1        0.0000 
     28 O           8.2670   16.5860   33.3720 O.2       4 ALP1        0.0000 
     29 CA          9.2445   13.7680   31.7730 C.3       3 GLC5        0.0000 
     30 CA          7.3000   13.3640   32.5670 C.3       9 GLL5        0.0000 
     31 CA         11.1890   14.1720   30.9790 C.3       6 GLP5        0.0000 
     32 CA          9.1240   12.0750   30.8440 C.3       3 GLC5        0.0000 
     33 CA          7.2450   12.3610   31.5820 C.3       9 GLL5        0.0000 
     34 CA         11.0030   11.7890   30.1060 C.3       6 GLP5        0.0000 
     35 CA          5.0165    8.8550   29.6500 C.3       3 GLC5        0.0000 
     36 CA          6.1290   10.2730   30.2850 C.3       9 GLL5        0.0000 
     37 CA          3.9040    7.4370   29.0150 C.3       6 GLP5        0.0000 
     38 CA          2.6260   11.4190   34.0650 C.3       3 GLC5        0.0000 
     39 CA          3.8350   10.6570   32.4930 C.3       9 GLL5        0.0000 
     40 CA          1.4170   12.1810   35.6370 C.3       6 GLP5        0.0000 
     41 CA         -1.0100    9.7295   27.7745 C.3       3 GLC5        0.0000 
     42 CA          0.0820    9.6050   29.5550 C.3       9 GLL5        0.0000 
     43 CA         -2.1020    9.8540   25.9940 C.3       6 GLP5        0.0000 
     44 CA          0.2225    6.6915   29.3820 C.3       3 GLC5        0.0000 
     45 CA         -0.0400    8.3630   30.2040 C.3       9 GLL5        0.0000 
     46 CA          0.4850    5.0200   28.5600 C.3       6 GLP5        0.0000 
     47 CA         -0.3860    7.7345   32.0050 C.3       3 GLC5        0.0000 
     48 CA         -0.7320    7.1060   33.8060 C.3       6 GLP5        0.0000 
     49 N           0.5545    6.7315   31.7405 N.am      2 SEC2        0.0000 
     50 N           0.8350    8.0040   31.1960 N.am      8 SEL2        0.0000 
     51 N           0.2740    5.4590   32.2850 N.am      5 SEP2        0.0000 
     52 CA          1.2155    8.0700   33.0965 C.3       3 GLC5        0.0000 
     53 CA          1.8600    8.7960   31.6140 C.3       9 GLL5        0.0000 
     54 CA          0.5710    7.3440   34.5790 C.3       6 GLP5        0.0000 
     55 CA          3.2670   12.3950   34.5720 C.3       3 GLC5        0.0000 
     56 CA          5.1170   12.6090   33.5070 C.3       9 GLL5        0.0000 
     57 CA          3.7149   16.1262   42.2400 C.3       3 GLC5        0.0000 
     58 CA          1.9780   16.7290   42.4200 C.3       6 GLP5        0.0000 
     59 CA          5.5229   14.1208   43.6360 C.3       3 GLC5        0.0000 
     60 CA          4.8790   13.7020   45.5280 C.3       6 GLP5        0.0000 
     61 CA          7.9272   16.3160   39.0083 C.3       3 GLC5        0.0000 
     62 CA          7.9597   14.5310   37.8972 C.3       3 GLC5        0.0000 
     63 CA          6.3100   15.9840   37.9150 C.3       9 GLL5        0.0000 
     64 CA          9.7340   13.5340   37.3700 C.3       6 GLP5        0.0000 
     65 CA          4.6063   16.2515   37.7172 C.3       3 GLC5        0.0000 
     66 CA          3.0270   16.9750   37.0100 C.3       6 GLP5        0.0000 
     67 CA          7.1864   14.1545   31.0483 C.3       3 GLC5        0.0000 
     68 CA          6.2570   13.5100   33.5470 C.3       9 GLL5        0.0000 
     69 CA          7.3610   15.4100   29.7770 C.3       6 GLP5        0.0000 
     70 CA          8.5609   13.0945   33.6138 C.3       3 GLC5        0.0000 
     71 CA         10.1100   13.2900   34.9080 C.3       6 GLP5        0.0000 
     72 CA          6.7095   12.0130   29.2910 C.3       3 GLC5        0.0000 
     73 CA          6.1150   11.4670   31.5390 C.3       9 GLL5        0.0000 
     74 CA          7.2970   13.1560   27.6700 C.3       6 GLP5        0.0000 
     75 CA          5.7565    9.2275   31.5940 C.3       3 GLC5        0.0000 
     76 CA          5.3910    7.5850   32.2760 C.3       6 GLP5        0.0000 
     77 CA          4.9177    9.3525   32.3888 C.3       3 GLC5        0.0000 
     78 CA          3.6753    8.5162   31.7908 C.3       3 GLC5        0.0000 
     79 CA          2.0590   10.0990   30.9970 C.3       9 GLL5        0.0000 
     80 CA          2.0146   10.3364   28.3708 C.3       3 GLC5        0.0000 
     81 CA          3.1870   10.7250   26.7260 C.3       6 GLP5        0.0000 
     82 CA          1.9625    8.2105   29.4473 C.3       3 GLC5        0.0000 
     83 CA          2.8176    8.4901   30.0300 C.3       3 GLC5        0.0000 
     84 CA          5.0139   10.7728   34.4356 C.3       3 GLC5        0.0000 
     85 CA          5.2470    9.6810   35.8670 C.3       6 GLP5        0.0000 
@<TRIPOS>BOND
@<TRIPOS>SUBSTRUCTURE
     1 ALC1       26 GROUP        1 X    ALC  0     ROOT ALC X 1
     2 SEC2       23 GROUP        1 X    SEC  0     **** SEC X 2
     3 GLC5        1 GROUP        1 X    GLC  0     **** GLC X 6
     4 ALP1       28 GROUP        1 Y    ALP  0     ROOT ALP Y 8
     5 SEP2       25 GROUP        1 Y    SEP  0     **** SEP Y 9
     6 GLP5        3 GROUP        1 Y    GLP  0     **** GLP Y 13
     7 ALL1       27 GROUP        1 Z    ALL  0     ROOT ALL Z 15
     8 SEL2       24 GROUP        1 Z    SEL  0     **** SEL Z 16
     9 GLL5        2 GROUP        1 Z    GLL  0     **** GLL Z 20
@<TRIPOS>SET

