#    Name: 1wbn_L09_1_ligand
#    Modification time : Tue Mar 25 08:53:10 2014

@<TRIPOS>MOLECULE
1wbn_L09_1_ligand
   50    52     1     0     0
SMALL
NO_CHARGES


@<TRIPOS>ATOM
      1 C1          4.6140   14.2610   41.5920 C.3       1 L091355     0.0000 
      2 C2          5.8450   15.1930   41.5340 C.3       1 L091355     0.0000 
      3 C3          5.6740   16.3200   42.5570 C.3       1 L091355     0.0000 
      4 C4          7.1040   14.3520   41.9250 C.3       1 L091355     0.0000 
      5 C5          6.0560   15.7640   40.1200 C.2       1 L091355     0.0000 
      6 C6          6.0610   15.0720   38.9340 C.2       1 L091355     0.0000 
      7 C7          6.3100   15.9840   37.9150 C.2       1 L091355     0.0000 
      8 N8          6.3900   15.7740   36.5020 N.am      1 L091355     0.0000 
      9 C9          6.1000   14.6060   35.8160 C.2       1 L091355     0.0000 
     10 O10         5.5610   13.6520   36.3430 O.2       1 L091355     0.0000 
     11 N11         6.4220   14.5830   34.4770 N.am      1 L091355     0.0000 
     12 C12         6.2570   13.5100   33.5470 C.ar      1 L091355     0.0000 
     13 C13         7.3000   13.3640   32.5670 C.ar      1 L091355     0.0000 
     14 C14         7.2450   12.3610   31.5820 C.ar      1 L091355     0.0000 
     15 C15         6.1150   11.4670   31.5390 C.ar      1 L091355     0.0000 
     16 CL16        6.1290   10.2730   30.2850 Cl        1 L091355     0.0000 
     17 C17         5.0540   11.5830   32.5100 C.ar      1 L091355     0.0000 
     18 C18         3.8350   10.6570   32.4930 C.3       1 L091355     0.0000 
     19 O19         3.0610   10.9960   31.3230 O.3       1 L091355     0.0000 
     20 C20         2.0590   10.0990   30.9970 C.ar      1 L091355     0.0000 
     21 C21         1.1460   10.4820   29.9550 C.ar      1 L091355     0.0000 
     22 C22         0.0820    9.6050   29.5550 C.ar      1 L091355     0.0000 
     23 C23        -0.0400    8.3630   30.2040 C.ar      1 L091355     0.0000 
     24 N24         0.8350    8.0040   31.1960 N.ar      1 L091355     0.0000 
     25 C25         1.8600    8.7960   31.6140 C.ar      1 L091355     0.0000 
     26 C26         5.1170   12.6090   33.5070 C.ar      1 L091355     0.0000 
     27 N27         6.4480   17.1660   38.4640 N.pl3     1 L091355     0.0000 
     28 N28         6.2940   17.0560   39.8300 N.2       1 L091355     0.0000 
     29 H           5.9211   14.1411   38.8203 H         1 L091355     0.0000 
     30 H           6.7103   16.6215   35.9275 H         1 L091355     0.0000 
     31 H           6.8562   15.4824   34.0578 H         1 L091355     0.0000 
     32 H           8.0964   14.0128   32.5985 H         1 L091355     0.0000 
     33 H           7.9877   12.2549   30.8996 H         1 L091355     0.0000 
     34 H           3.2747   10.8195   33.4056 H         1 L091355     0.0000 
     35 H           4.1886    9.6338   32.4574 H         1 L091355     0.0000 
     36 H           1.2555   11.3840   29.4966 H         1 L091355     0.0000 
     37 H          -0.5541    9.8843   28.8267 H         1 L091355     0.0000 
     38 H          -0.8023    7.7260   29.9185 H         1 L091355     0.0000 
     39 H           2.5073    8.5166   32.3516 H         1 L091355     0.0000 
     40 H           4.3760   12.7142   34.1850 H         1 L091355     0.0000 
     41 H           6.6305   18.0102   38.0139 H         1 L091355     0.0000 
     42 H           4.6881   13.5068   40.9396 H         1 L091355     0.0000 
     43 H           4.4985   13.8543   42.4982 H         1 L091355     0.0000 
     44 H           3.7678   14.7498   41.3800 H         1 L091355     0.0000 
     45 H           6.4513   16.9491   42.5499 H         1 L091355     0.0000 
     46 H           4.8547   16.8643   42.3765 H         1 L091355     0.0000 
     47 H           5.5916   15.9664   43.4888 H         1 L091355     0.0000 
     48 H           7.9393   14.9013   41.9022 H         1 L091355     0.0000 
     49 H           7.0265   13.9745   42.8478 H         1 L091355     0.0000 
     50 H           7.2432   13.5810   41.3036 H         1 L091355     0.0000 
@<TRIPOS>BOND
     1    2    1 1    
     2   42    1 1    
     3   43    1 1    
     4   44    1 1    
     5    3    2 1    
     6    4    2 1    
     7    5    2 1    
     8   45    3 1    
     9   46    3 1    
    10   47    3 1    
    11   48    4 1    
    12   49    4 1    
    13   50    4 1    
    14    6    5 1    
    15   28    5 2    
    16    7    6 2    
    17   29    6 1    
    18    8    7 1    
    19   27    7 1    
    20    9    8 am   
    21   30    8 1    
    22   10    9 2    
    23   11    9 am   
    24   12   11 1    
    25   31   11 1    
    26   13   12 ar   
    27   26   12 ar   
    28   14   13 ar   
    29   32   13 1    
    30   15   14 ar   
    31   33   14 1    
    32   16   15 1    
    33   17   15 ar   
    34   18   17 1    
    35   26   17 ar   
    36   19   18 1    
    37   34   18 1    
    38   35   18 1    
    39   20   19 1    
    40   21   20 ar   
    41   25   20 ar   
    42   22   21 ar   
    43   36   21 1    
    44   23   22 ar   
    45   37   22 1    
    46   24   23 ar   
    47   38   23 1    
    48   25   24 ar   
    49   39   25 1    
    50   40   26 1    
    51   28   27 1    
    52   41   27 1    
@<TRIPOS>SUBSTRUCTURE
     1 L091355     1 GROUP   
@<TRIPOS>SET

