#    Name: 4gde_FDA_1_INTS_M
#    Modification time : Mon Mar 24 21:46:57 2014

@<TRIPOS>MOLECULE
4gde_FDA_1_INTS_M
  122     0     9     0     0
SMALL
NO_CHARGES


@<TRIPOS>ATOM
      1 N          74.2360   80.8360  151.4335 N.am      2 SEC2        0.0000 
      2 N          72.9090   80.8000  151.0810 N.am      8 SEL2        0.0000 
      3 N          75.5630   80.8720  151.7860 N.am      5 SEP2        0.0000 
      4 CA         72.3240   83.6245  145.2080 C.3       3 GLC5        0.0000 
      5 CA         73.1580   83.6410  147.0720 C.3       9 GLL5        0.0000 
      6 CA         71.4900   83.6080  143.3440 C.3       6 GLP5        0.0000 
      7 CA         72.9695   81.4870  147.1095 C.3       3 GLC5        0.0000 
      8 CA         72.7810   79.3330  147.1470 C.3       6 GLP5        0.0000 
      9 CA         75.3160   82.3560  148.3435 C.3       3 GLC5        0.0000 
     10 CA         74.6440   83.7240  147.2860 C.3       9 GLL5        0.0000 
     11 CA         75.9880   80.9880  149.4010 C.3       6 GLP5        0.0000 
     12 O          75.1280   82.7715  145.2715 O.2       1 ALC1        0.0000 
     13 O          75.2810   82.7530  146.5790 O.2       7 ALL1        0.0000 
     14 O          74.9750   82.7900  143.9640 O.2       4 ALP1        0.0000 
     15 O          76.6060   84.3890  144.9705 O.2       1 ALC1        0.0000 
     16 O          76.3170   84.9910  146.3000 O.2       7 ALL1        0.0000 
     17 O          76.8950   83.7870  143.6410 O.2       4 ALP1        0.0000 
     18 O          75.6460   83.8905  145.1320 O.2       1 ALC1        0.0000 
     19 CA         72.7400   84.4490  144.5410 C.3       3 GLC5        0.0000 
     20 CA         73.9900   85.2900  145.7380 C.3       9 GLL5        0.0000 
     21 CA         72.0185   88.7360  145.4110 C.3       3 GLC5        0.0000 
     22 CA         73.8850   88.7240  144.4240 C.3       9 GLL5        0.0000 
     23 CA         70.1520   88.7480  146.3980 C.3       6 GLP5        0.0000 
     24 CA         75.9930   88.8585  143.0365 C.3       3 GLC5        0.0000 
     25 CA         73.9250   89.5760  143.3270 C.3       9 GLL5        0.0000 
     26 CA         78.0610   88.1410  142.7460 C.3       6 GLP5        0.0000 
     27 CA         72.9885   90.3040  141.6500 C.3       3 GLC5        0.0000 
     28 CA         72.0520   91.0320  139.9730 C.3       6 GLP5        0.0000 
     29 CA         72.4160   90.6955  144.3715 C.3       3 GLC5        0.0000 
     30 CA         70.9070   91.8150  145.4160 C.3       6 GLP5        0.0000 
     31 O          73.8915   92.0280  142.4230 O.2       1 ALC1        0.0000 
     32 O          73.8380   90.9980  143.5200 O.2       7 ALL1        0.0000 
     33 O          73.9450   93.0580  141.3260 O.2       4 ALP1        0.0000 
     34 N          74.2715   89.8970  140.9395 N.am      2 SEC2        0.0000 
     35 N          74.0480   89.0690  142.0860 N.am      8 SEL2        0.0000 
     36 N          74.4950   90.7250  139.7930 N.am      5 SEP2        0.0000 
     37 CA         72.0960   87.6465  141.9195 C.3       3 GLC5        0.0000 
     38 CA         74.1440   87.7300  141.8830 C.3       9 GLL5        0.0000 
     39 CA         70.0480   87.5630  141.9560 C.3       6 GLP5        0.0000 
     40 CA         74.7690   86.0995  141.4475 C.3       3 GLC5        0.0000 
     41 CA         75.3940   84.4690  141.0120 C.3       6 GLP5        0.0000 
     42 CA         76.1025   87.9355  142.3145 C.3       3 GLC5        0.0000 
     43 CA         75.4385   88.7840  140.7660 C.3       3 GLC5        0.0000 
     44 CA         76.7330   89.8380  139.6490 C.3       6 GLP5        0.0000 
     45 CA         72.9490   88.7305  140.5610 C.3       3 GLC5        0.0000 
     46 CA         71.7540   89.7310  139.2390 C.3       6 GLP5        0.0000 
     47 N          75.5380   86.4955  142.3920 N.am      2 SEC2        0.0000 
     48 N          74.1060   86.8560  142.9380 N.am      8 SEL2        0.0000 
     49 N          76.9700   86.1350  141.8460 N.am      5 SEP2        0.0000 
     50 CA         74.6890   85.8900  142.6075 C.3       3 GLC5        0.0000 
     51 CA         73.9840   87.3110  144.2030 C.3       9 GLL5        0.0000 
     52 CA         76.0225   87.7260  143.4745 C.3       3 GLC5        0.0000 
     53 N          69.5585   73.8750  155.9495 N.am      2 SEC2        0.0000 
     54 N          70.2260   73.0230  156.8170 N.am      8 SEL2        0.0000 
     55 N          68.8910   74.7270  155.0820 N.am      5 SEP2        0.0000 
     56 N          71.6655   72.7365  156.0460 N.am      2 SEC2        0.0000 
     57 N          73.1050   72.4500  155.2750 N.am      5 SEP2        0.0000 
     58 O          71.3810   72.0520  159.2435 O.2       1 ALC1        0.0000 
     59 O          71.3840   73.3470  158.9190 O.2       7 ALL1        0.0000 
     60 O          71.3780   70.7570  159.5680 O.2       4 ALP1        0.0000 
     61 N          73.3140   72.5830  160.4315 N.am      2 SEC2        0.0000 
     62 N          72.5430   73.6870  161.0010 N.am      8 SEL2        0.0000 
     63 N          74.0850   71.4790  159.8620 N.am      5 SEP2        0.0000 
     64 CA         77.3990   79.3215  161.1765 C.3       3 GLC5        0.0000 
     65 CA         75.6970   80.7120  161.0670 C.3       9 GLL5        0.0000 
     66 CA         79.1010   77.9310  161.2860 C.3       6 GLP5        0.0000 
     67 CA         76.7170   82.1160  161.7150 C.3       3 GLC5        0.0000 
     68 CA         77.7370   83.5200  162.3630 C.3       6 GLP5        0.0000 
     69 CA         74.3345   81.5875  162.0210 C.3       3 GLC5        0.0000 
     70 CA         72.9720   82.4630  162.9750 C.3       6 GLP5        0.0000 
     71 CA         75.3100   82.5950  156.6365 C.3       3 GLC5        0.0000 
     72 CA         74.7210   81.7250  158.4740 C.3       9 GLL5        0.0000 
     73 CA         75.8990   83.4650  154.7990 C.3       6 GLP5        0.0000 
     74 CA         74.2790   83.8085  158.8895 C.3       3 GLC5        0.0000 
     75 CA         73.8370   85.8920  159.3050 C.3       6 GLP5        0.0000 
     76 CA         69.8160   75.9775  157.5095 C.3       3 GLC5        0.0000 
     77 CA         71.9340   76.0480  158.2190 C.3       9 GLL5        0.0000 
     78 CA         67.6980   75.9070  156.8000 C.3       6 GLP5        0.0000 
     79 CA         70.6475   80.0205  156.5745 C.3       3 GLC5        0.0000 
     80 CA         71.2870   78.0000  156.8300 C.3       9 GLL5        0.0000 
     81 CA         70.0080   82.0410  156.3190 C.3       6 GLP5        0.0000 
     82 CA         69.4925   76.9535  156.8150 C.3       3 GLC5        0.0000 
     83 CA         71.7460   75.9120  154.7595 C.3       3 GLC5        0.0000 
     84 CA         71.7810   77.8180  155.4110 C.3       9 GLL5        0.0000 
     85 CA         71.7110   74.0060  154.1080 C.3       6 GLP5        0.0000 
     86 N          74.0475   77.6155  155.9690 N.am      2 SEC2        0.0000 
     87 N          73.0500   78.3450  155.2550 N.am      8 SEL2        0.0000 
     88 N          75.0450   76.8860  156.6830 N.am      5 SEP2        0.0000 
     89 CA         70.3980   80.3145  155.4355 C.3       3 GLC5        0.0000 
     90 CA         70.7880   78.5880  154.5520 C.3       9 GLL5        0.0000 
     91 N          68.3470   78.1290  153.7500 N.am      2 SEC2        0.0000 
     92 N          69.5980   77.8890  154.5460 N.am      8 SEL2        0.0000 
     93 N          67.0960   78.3690  152.9540 N.am      5 SEP2        0.0000 
     94 O          68.8070   78.2755  155.5500 O.2       1 ALC1        0.0000 
     95 O          69.5980   77.8890  154.5460 O.2       7 ALL1        0.0000 
     96 O          68.0160   78.6620  156.5540 O.2       4 ALP1        0.0000 
     97 CA         71.4185   77.5930  151.6695 C.3       3 GLC5        0.0000 
     98 CA         71.1320   78.7930  153.0960 C.3       9 GLL5        0.0000 
     99 CA         71.7050   76.3930  150.2430 C.3       6 GLP5        0.0000 
    100 CA         71.1660   78.7280  151.0365 C.3       3 GLC5        0.0000 
    101 CA         70.1590   79.8130  152.5530 C.3       9 GLL5        0.0000 
    102 CA         72.1730   77.6430  149.5200 C.3       6 GLP5        0.0000 
    103 CA         69.2095   81.0955  153.5775 C.3       3 GLC5        0.0000 
    104 CA         68.2600   82.3780  154.6020 C.3       6 GLP5        0.0000 
    105 N          67.5890   80.6350  150.0130 N.am      2 SEC2        0.0000 
    106 N          68.2200   81.5500  150.6770 N.am      8 SEL2        0.0000 
    107 N          66.9580   79.7200  149.3490 N.am      5 SEP2        0.0000 
    108 N          67.4140   82.0170  151.7400 N.am      2 SEC2        0.0000 
    109 N          66.6080   82.4840  152.8030 N.am      5 SEP2        0.0000 
    110 N          69.3715   79.2935  148.3880 N.am      2 SEC2        0.0000 
    111 N          70.0670   80.5040  148.9870 N.am      8 SEL2        0.0000 
    112 N          68.6760   78.0830  147.7890 N.am      5 SEP2        0.0000 
    113 CA         73.5590   75.6662  157.7155 C.3       3 GLC5        0.0000 
    114 CA         74.9600   75.5180  156.6110 C.3       6 GLP5        0.0000 
    115 CA         74.1130   76.7512  157.9320 C.3       3 GLC5        0.0000 
    116 CA         73.0410   78.2190  158.6580 C.3       9 GLL5        0.0000 
    117 CA         76.4405   81.1280  158.0495 C.3       3 GLC5        0.0000 
    118 CA         74.3070   80.3530  158.9640 C.3       9 GLL5        0.0000 
    119 CA         78.3670   81.2170  157.3800 C.3       6 GLP5        0.0000 
    120 CA         73.2470   76.7135  156.3657 C.3       3 GLC5        0.0000 
    121 CA         68.8653   78.5045  152.2632 C.3       3 GLC5        0.0000 
    122 CA         67.0850   77.7060  151.7020 C.3       6 GLP5        0.0000 
@<TRIPOS>BOND
@<TRIPOS>SUBSTRUCTURE
     1 ALC1       12 GROUP        1 X    ALC  0     ROOT ALC X 1
     2 SEC2        1 GROUP        1 X    SEC  0     **** SEC X 2
     3 GLC5        4 GROUP        1 X    GLC  0     **** GLC X 6
     4 ALP1       14 GROUP        1 Y    ALP  0     ROOT ALP Y 8
     5 SEP2        3 GROUP        1 Y    SEP  0     **** SEP Y 9
     6 GLP5        6 GROUP        1 Y    GLP  0     **** GLP Y 13
     7 ALL1       13 GROUP        1 Z    ALL  0     ROOT ALL Z 15
     8 SEL2        2 GROUP        1 Z    SEL  0     **** SEL Z 16
     9 GLL5        5 GROUP        1 Z    GLL  0     **** GLL Z 20
@<TRIPOS>SET

