#    Name: 4gde_FDA_1_ligand
#    Modification time : Mon Mar 24 21:46:57 2014

@<TRIPOS>MOLECULE
4gde_FDA_1_ligand
   86    91     1     0     0
SMALL
NO_CHARGES


@<TRIPOS>ATOM
      1 PA         72.3370   82.1080  150.4700 P.3       1 FDA601      0.0000 
      2 O1A        72.9090   80.8000  151.0810 O.co2     1 FDA601      0.0000 
      3 O2A        72.6690   83.3990  151.0360 O.co2     1 FDA601      0.0000 
      4 O5B        72.6870   82.4090  149.0630 O.3       1 FDA601      0.0000 
      5 C5B        72.4370   83.6470  148.4220 C.3       1 FDA601      0.0000 
      6 C4B        73.1580   83.6410  147.0720 C.3       1 FDA601      0.0000 
      7 O4B        72.8160   84.7180  146.2330 O.3       1 FDA601      0.0000 
      8 C3B        74.6440   83.7240  147.2860 C.3       1 FDA601      0.0000 
      9 O3B        75.2810   82.7530  146.5790 O.3       1 FDA601      0.0000 
     10 C2B        75.0270   85.0460  146.7840 C.3       1 FDA601      0.0000 
     11 O2B        76.3170   84.9910  146.3000 O.3       1 FDA601      0.0000 
     12 C1B        73.9900   85.2900  145.7380 C.3       1 FDA601      0.0000 
     13 N9A        73.9000   86.7130  145.4900 N.pl3     1 FDA601      0.0000 
     14 C8A        73.7830   87.7360  146.4190 C.2       1 FDA601      0.0000 
     15 N7A        73.7610   88.9260  145.7920 N.2       1 FDA601      0.0000 
     16 C5A        73.8850   88.7240  144.4240 C.ar      1 FDA601      0.0000 
     17 C6A        73.9250   89.5760  143.3270 C.ar      1 FDA601      0.0000 
     18 N6A        73.8380   90.9980  143.5200 N.pl3     1 FDA601      0.0000 
     19 N1A        74.0480   89.0690  142.0860 N.ar      1 FDA601      0.0000 
     20 C2A        74.1440   87.7300  141.8830 C.ar      1 FDA601      0.0000 
     21 N3A        74.1060   86.8560  142.9380 N.ar      1 FDA601      0.0000 
     22 C4A        73.9840   87.3110  144.2030 C.ar      1 FDA601      0.0000 
     23 N1         71.1900   75.1900  157.3160 N.am      1 FDA601      0.0000 
     24 C2         70.9230   73.8410  157.6840 C.2       1 FDA601      0.0000 
     25 O2         70.2260   73.0230  156.8170 O.2       1 FDA601      0.0000 
     26 N3         71.3840   73.3470  158.9190 N.am      1 FDA601      0.0000 
     27 C4         72.1020   74.1680  159.7980 C.2       1 FDA601      0.0000 
     28 O4         72.5430   73.6870  161.0010 O.2       1 FDA601      0.0000 
     29 C4X        72.3820   75.5810  159.4210 C.2       1 FDA601      0.0000 
     30 N5         73.0740   76.4490  160.3440 N.pl3     1 FDA601      0.0000 
     31 C5X        73.4910   77.7500  159.8480 C.ar      1 FDA601      0.0000 
     32 C6         74.3950   78.5800  160.6870 C.ar      1 FDA601      0.0000 
     33 C7         74.7800   79.8610  160.2220 C.ar      1 FDA601      0.0000 
     34 C7M        75.6970   80.7120  161.0670 C.3       1 FDA601      0.0000 
     35 C8         74.3070   80.3530  158.9640 C.ar      1 FDA601      0.0000 
     36 C8M        74.7210   81.7250  158.4740 C.3       1 FDA601      0.0000 
     37 C9         73.4410   79.5600  158.1710 C.ar      1 FDA601      0.0000 
     38 C9A        73.0410   78.2190  158.6580 C.ar      1 FDA601      0.0000 
     39 N10        72.1630   77.4010  157.8390 N.pl3     1 FDA601      0.0000 
     40 C10        71.9340   76.0480  158.2190 C.2       1 FDA601      0.0000 
     41 C1'        71.2870   78.0000  156.8300 C.3       1 FDA601      0.0000 
     42 C2'        71.7810   77.8180  155.4110 C.3       1 FDA601      0.0000 
     43 O2'        73.0500   78.3450  155.2550 O.3       1 FDA601      0.0000 
     44 C3'        70.7880   78.5880  154.5520 C.3       1 FDA601      0.0000 
     45 O3'        69.5980   77.8890  154.5460 O.3       1 FDA601      0.0000 
     46 C4'        71.1320   78.7930  153.0960 C.3       1 FDA601      0.0000 
     47 O4'        72.4570   79.1990  152.9080 O.3       1 FDA601      0.0000 
     48 C5'        70.1590   79.8130  152.5530 C.3       1 FDA601      0.0000 
     49 O5'        70.2880   79.8690  151.1660 O.3       1 FDA601      0.0000 
     50 P          69.7260   81.1240  150.3920 P.3       1 FDA601      0.0000 
     51 O1P        68.2200   81.5500  150.6770 O.co2     1 FDA601      0.0000 
     52 O2P        70.0670   80.5040  148.9870 O.co2     1 FDA601      0.0000 
     53 O3P        70.8580   82.2950  150.4670 O.3       1 FDA601      0.0000 
     54 H          72.8164   84.4940  148.9959 H         1 FDA601      0.0000 
     55 H          71.3748   83.8058  148.2290 H         1 FDA601      0.0000 
     56 H          72.9591   82.6858  146.5862 H         1 FDA601      0.0000 
     57 H          74.8251   83.6874  148.3419 H         1 FDA601      0.0000 
     58 H          74.8810   85.7542  147.5740 H         1 FDA601      0.0000 
     59 H          74.3266   84.7730  144.8405 H         1 FDA601      0.0000 
     60 H          73.7269   87.5906  147.3759 H         1 FDA601      0.0000 
     61 H          73.7816   91.3107  144.4682 H         1 FDA601      0.0000 
     62 H          73.8411   91.5557  142.6900 H         1 FDA601      0.0000 
     63 H          74.2480   87.3566  140.9152 H         1 FDA601      0.0000 
     64 H          70.8679   75.5600  156.4323 H         1 FDA601      0.0000 
     65 H          71.1894   72.3693  159.1767 H         1 FDA601      0.0000 
     66 H          73.2587   76.1741  161.2757 H         1 FDA601      0.0000 
     67 H          74.7096   78.2104  161.5628 H         1 FDA601      0.0000 
     68 H          73.0875   79.8762  157.2871 H         1 FDA601      0.0000 
     69 H          71.1702   79.0870  157.0206 H         1 FDA601      0.0000 
     70 H          70.2678   77.5667  156.9015 H         1 FDA601      0.0000 
     71 H          71.6993   76.7857  155.1574 H         1 FDA601      0.0000 
     72 H          70.6307   79.5721  155.0047 H         1 FDA601      0.0000 
     73 H          70.9186   77.8491  152.5807 H         1 FDA601      0.0000 
     74 H          70.3815   80.7760  153.0338 H         1 FDA601      0.0000 
     75 H          69.1498   79.5129  152.8683 H         1 FDA601      0.0000 
     76 H          76.5765   80.2640  161.2273 H         1 FDA601      0.0000 
     77 H          75.8910   81.5921  160.6336 H         1 FDA601      0.0000 
     78 H          75.3002   80.9080  161.9637 H         1 FDA601      0.0000 
     79 H          75.7128   81.7985  158.3698 H         1 FDA601      0.0000 
     80 H          74.3162   81.9397  157.5852 H         1 FDA601      0.0000 
     81 H          74.4386   82.4461  159.1066 H         1 FDA601      0.0000 
     82 H          75.0831   82.9588  145.6206 H         1 FDA601      0.0000 
     83 H          76.2343   84.5886  145.3883 H         1 FDA601      0.0000 
     84 H          73.0525   78.7468  154.3393 H         1 FDA601      0.0000 
     85 H          69.3092   77.8617  155.5030 H         1 FDA601      0.0000 
     86 H          72.3930   80.1091  152.4985 H         1 FDA601      0.0000 
@<TRIPOS>BOND
     1    2    1 ar   
     2    3    1 ar   
     3    4    1 1    
     4   53    1 1    
     5    5    4 1    
     6    6    5 1    
     7   54    5 1    
     8   55    5 1    
     9    7    6 1    
    10    8    6 1    
    11   56    6 1    
    12   12    7 1    
    13    9    8 1    
    14   10    8 1    
    15   57    8 1    
    16   82    9 1    
    17   11   10 1    
    18   12   10 1    
    19   58   10 1    
    20   83   11 1    
    21   13   12 1    
    22   59   12 1    
    23   14   13 1    
    24   22   13 1    
    25   15   14 2    
    26   60   14 1    
    27   16   15 1    
    28   17   16 ar   
    29   22   16 ar   
    30   18   17 1    
    31   19   17 ar   
    32   61   18 1    
    33   62   18 1    
    34   20   19 ar   
    35   21   20 ar   
    36   63   20 1    
    37   22   21 ar   
    38   24   23 am   
    39   40   23 1    
    40   64   23 1    
    41   25   24 2    
    42   26   24 am   
    43   27   26 am   
    44   65   26 1    
    45   28   27 2    
    46   29   27 1    
    47   30   29 1    
    48   40   29 2    
    49   31   30 1    
    50   66   30 1    
    51   32   31 ar   
    52   38   31 ar   
    53   33   32 ar   
    54   67   32 1    
    55   34   33 1    
    56   35   33 ar   
    57   76   34 1    
    58   77   34 1    
    59   78   34 1    
    60   36   35 1    
    61   37   35 ar   
    62   79   36 1    
    63   80   36 1    
    64   81   36 1    
    65   38   37 ar   
    66   68   37 1    
    67   39   38 1    
    68   40   39 1    
    69   41   39 1    
    70   42   41 1    
    71   69   41 1    
    72   70   41 1    
    73   43   42 1    
    74   44   42 1    
    75   71   42 1    
    76   84   43 1    
    77   45   44 1    
    78   46   44 1    
    79   72   44 1    
    80   85   45 1    
    81   47   46 1    
    82   48   46 1    
    83   73   46 1    
    84   86   47 1    
    85   49   48 1    
    86   74   48 1    
    87   75   48 1    
    88   50   49 1    
    89   51   50 ar   
    90   52   50 ar   
    91   53   50 1    
@<TRIPOS>SUBSTRUCTURE
     1 FDA601      1 GROUP   
@<TRIPOS>SET

