#    Name: 3lvp_PDR_2_INTS_M
#    Modification time : Mon Mar 24 22:21:46 2014

@<TRIPOS>MOLECULE
3lvp_PDR_2_INTS_M
   59     0     9     0     0
SMALL
NO_CHARGES


@<TRIPOS>ATOM
      1 CA          9.6595   44.7270  -14.9645 C.3       3 GLC5        0.0000 
      2 CA         11.1620   45.9760  -15.5860 C.3       9 GLL5        0.0000 
      3 CA          8.1570   43.4780  -14.3430 C.3       6 GLP5        0.0000 
      4 CA         11.5615   44.9610  -16.9405 C.3       3 GLC5        0.0000 
      5 CA         11.9610   43.9460  -18.2950 C.3       6 GLP5        0.0000 
      6 CA          5.1990   46.5010  -12.6675 C.3       3 GLC5        0.0000 
      7 CA          4.9770   48.1460  -13.9400 C.3       9 GLL5        0.0000 
      8 CA          5.4210   44.8560  -11.3950 C.3       6 GLP5        0.0000 
      9 CA          6.6340   46.8775   -9.5285 C.3       3 GLC5        0.0000 
     10 CA          7.3060   48.8330  -10.0870 C.3       9 GLL5        0.0000 
     11 CA          5.9620   44.9220   -8.9700 C.3       6 GLP5        0.0000 
     12 CA         11.0095   46.4800   -9.9730 C.3       3 GLC5        0.0000 
     13 CA         11.0510   47.2570  -11.7590 C.3       9 GLL5        0.0000 
     14 CA         10.9680   45.7030   -8.1870 C.3       6 GLP5        0.0000 
     15 CA         12.1700   48.4800  -10.8290 C.3       3 GLC5        0.0000 
     16 CA         13.2890   49.7030   -9.8990 C.3       6 GLP5        0.0000 
     17 O          10.3475   48.6330   -9.9630 O.2       1 ALC1        0.0000 
     18 O          10.0650   47.7640  -10.9880 O.2       7 ALL1        0.0000 
     19 O          10.6300   49.5020   -8.9380 O.2       4 ALP1        0.0000 
     20 CA          8.9600   49.8935  -11.4320 C.3       3 GLC5        0.0000 
     21 CA          8.9890   47.7570  -11.8580 C.3       9 GLL5        0.0000 
     22 CA          8.9310   52.0300  -11.0060 C.3       6 GLP5        0.0000 
     23 CA         10.1705   49.0890  -13.8105 C.3       3 GLC5        0.0000 
     24 CA          9.2220   47.2540  -13.1810 C.3       9 GLL5        0.0000 
     25 CA         11.1190   50.9240  -14.4400 C.3       6 GLP5        0.0000 
     26 CA         15.2835   47.0575  -12.6710 C.3       3 GLC5        0.0000 
     27 CA         13.2640   46.5530  -12.2110 C.3       9 GLL5        0.0000 
     28 CA         17.3030   47.5620  -13.1310 C.3       6 GLP5        0.0000 
     29 CA         13.5720   45.9530  -10.2665 C.3       3 GLC5        0.0000 
     30 CA         13.8800   45.3530   -8.3220 C.3       6 GLP5        0.0000 
     31 CA         13.9715   47.9685  -11.3135 C.3       3 GLC5        0.0000 
     32 CA         14.6790   49.3840  -10.4160 C.3       6 GLP5        0.0000 
     33 N          12.7365   47.3225  -10.0435 N.am      2 SEC2        0.0000 
     34 N          12.3520   47.0660  -11.3420 N.am      8 SEL2        0.0000 
     35 N          13.1210   47.5790   -8.7450 N.am      5 SEP2        0.0000 
     36 CA          3.9985   47.1350  -15.4030 C.3       3 GLC5        0.0000 
     37 CA          5.3520   48.5820  -16.2200 C.3       9 GLL5        0.0000 
     38 CA          2.6450   45.6880  -14.5860 C.3       6 GLP5        0.0000 
     39 CA          2.0705   47.3785  -13.7880 C.3       3 GLC5        0.0000 
     40 CA          1.4960   49.0690  -12.9900 C.3       9 GLL5        0.0000 
     41 CA          1.4695   51.1125  -13.6415 C.3       3 GLC5        0.0000 
     42 CA          1.4430   53.1560  -14.2930 C.3       6 GLP5        0.0000 
     43 CA          5.2452   46.8734  -11.5770 C.3       3 GLC5        0.0000 
     44 CA          6.4560   48.3790  -12.0830 C.3       9 GLL5        0.0000 
     45 CA          3.5425   47.0607  -14.0742 C.3       3 GLC5        0.0000 
     46 CA          8.2060   50.2955  -10.8667 C.3       3 GLC5        0.0000 
     47 CA          7.6560   48.2890  -11.3680 C.3       9 GLL5        0.0000 
     48 CA          9.3040   45.8325  -11.4980 C.3       3 GLC5        0.0000 
     49 CA          7.7880   44.5600  -10.5930 C.3       6 GLP5        0.0000 
     50 CA          9.0312   45.2908  -13.7285 C.3       3 GLC5        0.0000 
     51 CA          8.2801   46.0992  -11.4950 C.3       3 GLC5        0.0000 
     52 CA         13.3581   45.2191  -15.2817 C.3       3 GLC5        0.0000 
     53 CA         12.9340   46.2020  -13.5450 C.3       9 GLL5        0.0000 
     54 CA         14.5610   44.2430  -16.4030 C.3       6 GLP5        0.0000 
     55 CA         12.0041   44.9261  -12.2166 C.3       3 GLC5        0.0000 
     56 CA         11.5910   46.4010  -13.9660 C.3       9 GLL5        0.0000 
     57 CA         11.8560   43.2870  -11.4020 C.3       6 GLP5        0.0000 
     58 CA         12.4811   48.4411  -13.6856 C.3       3 GLC5        0.0000 
     59 CA         12.8100   50.3170  -14.3400 C.3       6 GLP5        0.0000 
@<TRIPOS>BOND
@<TRIPOS>SUBSTRUCTURE
     1 ALC1       17 GROUP        1 X    ALC  0     ROOT ALC X 1
     2 SEC2       33 GROUP        1 X    SEC  0     **** SEC X 2
     3 GLC5        1 GROUP        1 X    GLC  0     **** GLC X 6
     4 ALP1       19 GROUP        1 Y    ALP  0     ROOT ALP Y 8
     5 SEP2       35 GROUP        1 Y    SEP  0     **** SEP Y 9
     6 GLP5        3 GROUP        1 Y    GLP  0     **** GLP Y 13
     7 ALL1       18 GROUP        1 Z    ALL  0     ROOT ALL Z 15
     8 SEL2       34 GROUP        1 Z    SEL  0     **** SEL Z 16
     9 GLL5        2 GROUP        1 Z    GLL  0     **** GLL Z 20
@<TRIPOS>SET

