#    Name: 3lvp_PDR_2_ligand
#    Modification time : Mon Mar 24 22:21:46 2014

@<TRIPOS>MOLECULE
3lvp_PDR_2_ligand
   39    42     1     0     0
SMALL
NO_CHARGES


@<TRIPOS>ATOM
      1 CL         11.1620   45.9760  -15.5860 Cl        1 PDR2        0.0000 
      2 C1          6.4560   48.3790  -12.0830 C.ar      1 PDR2        0.0000 
      3 C2          5.4680   48.9440  -11.2810 C.ar      1 PDR2        0.0000 
      4 C3          4.1770   49.1200  -11.8360 C.ar      1 PDR2        0.0000 
      5 C4          3.9030   48.7210  -13.1850 C.ar      1 PDR2        0.0000 
      6 C5          4.9770   48.1460  -13.9400 C.ar      1 PDR2        0.0000 
      7 N6          6.2210   47.9810  -13.4120 N.ar      1 PDR2        0.0000 
      8 C7          7.6560   48.2890  -11.3680 C.2       1 PDR2        0.0000 
      9 C8          7.3060   48.8330  -10.0870 C.2       1 PDR2        0.0000 
     10 N9          5.9800   49.2330  -10.0300 N.pl3     1 PDR2        0.0000 
     11 C10        10.5890   46.9530  -13.0470 C.ar      1 PDR2        0.0000 
     12 C11        11.0510   47.2570  -11.7590 C.ar      1 PDR2        0.0000 
     13 N12        10.0650   47.7640  -10.9880 N.pl3     1 PDR2        0.0000 
     14 C13         8.9890   47.7570  -11.8580 C.2       1 PDR2        0.0000 
     15 C14         9.2220   47.2540  -13.1810 C.2       1 PDR2        0.0000 
     16 C15        12.9340   46.2020  -13.5450 C.ar      1 PDR2        0.0000 
     17 C16        13.2640   46.5530  -12.2110 C.ar      1 PDR2        0.0000 
     18 N17        12.3520   47.0660  -11.3420 N.ar      1 PDR2        0.0000 
     19 C18        11.5910   46.4010  -13.9660 C.ar      1 PDR2        0.0000 
     20 C20         5.2990   49.8400   -8.8710 C.3       1 PDR2        0.0000 
     21 O21         4.7370   47.7350  -15.2550 O.3       1 PDR2        0.0000 
     22 C22         5.3520   48.5820  -16.2200 C.3       1 PDR2        0.0000 
     23 O23         2.6520   48.8510  -13.8160 O.3       1 PDR2        0.0000 
     24 C24         1.4960   49.0690  -12.9900 C.3       1 PDR2        0.0000 
     25 H           3.4301   49.5340  -11.2764 H         1 PDR2        0.0000 
     26 H           7.9428   48.9018   -9.3610 H         1 PDR2        0.0000 
     27 H          10.0818   48.0456  -10.1144 H         1 PDR2        0.0000 
     28 H           8.6698   47.1687  -13.8516 H         1 PDR2        0.0000 
     29 H          13.6218   45.8271  -14.1693 H         1 PDR2        0.0000 
     30 H          14.2545   46.4021  -11.9068 H         1 PDR2        0.0000 
     31 H           5.9141   49.9391   -8.0888 H         1 PDR2        0.0000 
     32 H           4.9455   50.7511   -9.0832 H         1 PDR2        0.0000 
     33 H           4.5229   49.2884   -8.5655 H         1 PDR2        0.0000 
     34 H           6.3456   48.6099  -16.1102 H         1 PDR2        0.0000 
     35 H           5.1688   48.2752  -17.1540 H         1 PDR2        0.0000 
     36 H           5.0229   49.5238  -16.1510 H         1 PDR2        0.0000 
     37 H           1.3551   48.3196  -12.3431 H         1 PDR2        0.0000 
     38 H           1.5764   49.9087  -12.4529 H         1 PDR2        0.0000 
     39 H           0.6605   49.1478  -13.5338 H         1 PDR2        0.0000 
@<TRIPOS>BOND
     1   19    1 1    
     2    3    2 ar   
     3    7    2 ar   
     4    8    2 1    
     5    4    3 ar   
     6   10    3 1    
     7    5    4 ar   
     8   25    4 1    
     9    6    5 ar   
    10   23    5 1    
    11    7    6 ar   
    12   21    6 1    
    13    9    8 2    
    14   14    8 1    
    15   10    9 1    
    16   26    9 1    
    17   20   10 1    
    18   12   11 ar   
    19   15   11 1    
    20   19   11 ar   
    21   13   12 1    
    22   18   12 ar   
    23   14   13 1    
    24   27   13 1    
    25   15   14 2    
    26   28   15 1    
    27   17   16 ar   
    28   19   16 ar   
    29   29   16 1    
    30   18   17 ar   
    31   30   17 1    
    32   31   20 1    
    33   32   20 1    
    34   33   20 1    
    35   22   21 1    
    36   34   22 1    
    37   35   22 1    
    38   36   22 1    
    39   24   23 1    
    40   37   24 1    
    41   38   24 1    
    42   39   24 1    
@<TRIPOS>SUBSTRUCTURE
     1 PDR2        1 GROUP   
@<TRIPOS>SET

