#    Name: 3uwq_U5P_2_INTS_M
#    Modification time : Mon Mar 24 23:40:26 2014

@<TRIPOS>MOLECULE
3uwq_U5P_2_INTS_M
   53     0    12     0     0
SMALL
NO_CHARGES


@<TRIPOS>ATOM
      1 N         -22.4275   -6.8250  -19.9665 N.am      2 SEC2        0.0000 
      2 N         -21.6020   -7.8750  -19.8910 N.am     10 SEL2        0.0000 
      3 N         -23.2530   -5.7750  -20.0420 N.am      6 SEP2        0.0000 
      4 CA        -17.2760   -7.3385  -17.9870 C.3       4 GLC5        0.0000 
      5 CA        -17.8700   -6.5690  -16.1180 C.3      12 GLL5        0.0000 
      6 CA        -16.6820   -8.1080  -19.8560 C.3       8 GLP5        0.0000 
      7 CA        -14.6310   -6.3005  -15.4760 C.3       4 GLC5        0.0000 
      8 CA        -16.0350   -7.7440  -15.2060 C.3      12 GLL5        0.0000 
      9 CA        -13.2270   -4.8570  -15.7460 C.3       8 GLP5        0.0000 
     10 N         -15.0155   -4.8520  -14.3225 N.am      2 SEC2        0.0000 
     11 N         -16.1310   -5.8080  -13.8240 N.am     10 SEL2        0.0000 
     12 N         -13.9000   -3.8960  -14.8210 N.am      6 SEP2        0.0000 
     13 O         -16.0945   -5.9745  -12.4625 O.2       1 ALC1        0.0000 
     14 O         -16.1310   -5.8080  -13.8240 O.2       9 ALL1        0.0000 
     15 O         -16.0580   -6.1410  -11.1010 O.2       5 ALP1        0.0000 
     16 CA        -14.5650  -10.8165  -15.6045 C.3       4 GLC5        0.0000 
     17 CA        -16.0330   -9.2630  -15.0710 C.3      12 GLL5        0.0000 
     18 CA        -13.0970  -12.3700  -16.1380 C.3       8 GLP5        0.0000 
     19 CA        -14.9855  -10.3925  -13.8110 C.3       4 GLC5        0.0000 
     20 CA        -13.9380  -11.5220  -12.5510 C.3       8 GLP5        0.0000 
     21 NZ        -18.4935  -11.2650  -11.6945 N.4       3 LYC4        0.0000 
     22 NZ        -17.2500  -10.9410  -12.5560 N.4      11 LYL4        0.0000 
     23 NZ        -20.9730  -11.3040  -11.2360 N.4       7 LYP4        0.0000 
     24 N         -16.3715  -11.8310  -11.8615 N.am      2 SEC2        0.0000 
     25 N         -17.2500  -10.9410  -12.5560 N.am     10 SEL2        0.0000 
     26 N         -15.4930  -12.7210  -11.1670 N.am      6 SEP2        0.0000 
     27 N         -18.4935  -11.2650  -11.6945 N.am      2 SEC2        0.0000 
     28 N         -19.7370  -11.5890  -10.8330 N.am      6 SEP2        0.0000 
     29 NZ        -19.4020  -12.7080  -14.0220 N.4       3 LYC4        0.0000 
     30 NZ        -19.0770  -11.3830  -14.2120 N.4      11 LYL4        0.0000 
     31 NZ        -19.1720  -14.9230  -14.6460 N.4       7 LYP4        0.0000 
     32 NZ        -20.1385  -11.1945  -13.3610 N.4       3 LYC4        0.0000 
     33 N         -19.4020  -12.7080  -14.0220 N.am      2 SEC2        0.0000 
     34 N         -19.0770  -11.3830  -14.2120 N.am     10 SEL2        0.0000 
     35 N         -19.7270  -14.0330  -13.8320 N.am      6 SEP2        0.0000 
     36 N         -19.4070  -11.4860  -12.5225 N.am      2 SEC2        0.0000 
     37 N         -20.1385  -11.1945  -13.3610 N.am      2 SEC2        0.0000 
     38 N         -21.2000  -11.0060  -12.5100 N.am      6 SEP2        0.0000 
     39 NZ        -17.4280  -13.3235  -15.0895 N.4       3 LYC4        0.0000 
     40 NZ        -16.6760  -12.0970  -14.7250 N.4      11 LYL4        0.0000 
     41 N         -17.4280  -13.3235  -15.0895 N.am      2 SEC2        0.0000 
     42 N         -16.6760  -12.0970  -14.7250 N.am     10 SEL2        0.0000 
     43 N         -18.1800  -14.5500  -15.4540 N.am      6 SEP2        0.0000 
     44 N         -15.3395  -12.0050  -14.3340 N.am      2 SEC2        0.0000 
     45 N         -14.0030  -11.9130  -13.9430 N.am      6 SEP2        0.0000 
     46 CA        -18.2612   -8.2410  -18.7473 C.3       4 GLC5        0.0000 
     47 CA        -19.3670   -8.2040  -17.1600 C.3      12 GLL5        0.0000 
     48 CA        -19.4883  -10.1075  -18.6852 C.3       4 GLC5        0.0000 
     49 CA        -19.1360  -11.8410  -19.7320 C.3       8 GLP5        0.0000 
     50 CA        -14.6035   -8.2263  -16.3313 C.3       4 GLC5        0.0000 
     51 CA        -13.1730   -7.9490  -17.5240 C.3       8 GLP5        0.0000 
     52 CA        -14.6394   -8.1231  -14.0370 C.3       4 GLC5        0.0000 
     53 CA        -13.0550   -7.9170  -13.2160 C.3       8 GLP5        0.0000 
@<TRIPOS>BOND
@<TRIPOS>SUBSTRUCTURE
     1 ALC1       13 GROUP        1 X    ALC  0     ROOT ALC X 1
     2 SEC2        1 GROUP        1 X    SEC  0     **** SEC X 2
     3 LYC4       21 GROUP        1 X    LYC  0     **** LYC X 4
     4 GLC5        4 GROUP        1 X    GLC  0     **** GLC X 6
     5 ALP1       15 GROUP        1 Y    ALP  0     ROOT ALP Y 8
     6 SEP2        3 GROUP        1 Y    SEP  0     **** SEP Y 9
     7 LYP4       23 GROUP        1 Y    LYP  0     **** LYP Y 11
     8 GLP5        6 GROUP        1 Y    GLP  0     **** GLP Y 13
     9 ALL1       14 GROUP        1 Z    ALL  0     ROOT ALL Z 15
    10 SEL2        2 GROUP        1 Z    SEL  0     **** SEL Z 16
    11 LYL4       22 GROUP        1 Z    LYL  0     **** LYL Z 18
    12 GLL5        5 GROUP        1 Z    GLL  0     **** GLL Z 20
@<TRIPOS>SET

