#    Name: 3uwq_U5P_2_ligand
#    Modification time : Mon Mar 24 23:40:26 2014

@<TRIPOS>MOLECULE
3uwq_U5P_2_ligand
   32    33     1     0     0
SMALL
NO_CHARGES


@<TRIPOS>ATOM
      1 N1        -18.8990   -6.9460  -17.0970 N.am      1 U5P232      0.0000 
      2 C2        -19.3470   -5.9810  -18.0240 C.2       1 U5P232      0.0000 
      3 N3        -20.2670   -6.3140  -18.9550 N.am      1 U5P232      0.0000 
      4 C4        -20.7540   -7.5760  -19.0180 C.2       1 U5P232      0.0000 
      5 C5        -20.3140   -8.5440  -18.1170 C.2       1 U5P232      0.0000 
      6 C6        -19.3670   -8.2040  -17.1600 C.2       1 U5P232      0.0000 
      7 O2        -18.8960   -4.8140  -17.9850 O.2       1 U5P232      0.0000 
      8 O4        -21.6020   -7.8750  -19.8910 O.2       1 U5P232      0.0000 
      9 C1'       -17.8700   -6.5690  -16.1180 C.3       1 U5P232      0.0000 
     10 C2'       -18.1840   -6.8340  -14.6570 C.3       1 U5P232      0.0000 
     11 O2'       -18.8430   -5.7210  -14.0570 O.3       1 U5P232      0.0000 
     12 C3'       -16.7940   -7.0470  -14.0840 C.3       1 U5P232      0.0000 
     13 C4'       -16.0350   -7.7440  -15.2060 C.3       1 U5P232      0.0000 
     14 O3'       -16.1310   -5.8080  -13.8240 O.3       1 U5P232      0.0000 
     15 O4'       -16.7040   -7.3480  -16.4090 O.3       1 U5P232      0.0000 
     16 C5'       -16.0330   -9.2630  -15.0710 C.3       1 U5P232      0.0000 
     17 O5'       -17.3420   -9.7220  -14.7310 O.3       1 U5P232      0.0000 
     18 P         -17.6030  -11.1400  -14.0140 P.3       1 U5P232      0.0000 
     19 O1P       -17.2500  -10.9410  -12.5560 O.co2     1 U5P232      0.0000 
     20 O2P       -19.0770  -11.3830  -14.2120 O.co2     1 U5P232      0.0000 
     21 O3P       -16.6760  -12.0970  -14.7250 O.co2     1 U5P232      0.0000 
     22 H         -20.6061   -5.5947  -19.6315 H         1 U5P232      0.0000 
     23 H         -20.6870   -9.4964  -18.1622 H         1 U5P232      0.0000 
     24 H         -19.0344   -8.9342  -16.5044 H         1 U5P232      0.0000 
     25 H         -17.6155   -5.5177  -16.2260 H         1 U5P232      0.0000 
     26 H         -18.7143   -7.7456  -14.5925 H         1 U5P232      0.0000 
     27 H         -16.8408   -7.6904  -13.2610 H         1 U5P232      0.0000 
     28 H         -15.0237   -7.3803  -15.2032 H         1 U5P232      0.0000 
     29 H         -15.2969   -9.5307  -14.3031 H         1 U5P232      0.0000 
     30 H         -15.6901   -9.6842  -16.0240 H         1 U5P232      0.0000 
     31 H         -18.1240   -5.0408  -13.9144 H         1 U5P232      0.0000 
     32 H         -16.0110   -5.7821  -12.8316 H         1 U5P232      0.0000 
@<TRIPOS>BOND
     1    2    1 1    
     2    6    1 1    
     3    9    1 1    
     4    3    2 1    
     5    7    2 2    
     6    4    3 1    
     7   22    3 1    
     8    5    4 1    
     9    8    4 2    
    10    6    5 2    
    11   23    5 1    
    12   24    6 1    
    13   10    9 1    
    14   15    9 1    
    15   25    9 1    
    16   11   10 1    
    17   12   10 1    
    18   26   10 1    
    19   31   11 1    
    20   13   12 1    
    21   14   12 1    
    22   27   12 1    
    23   15   13 1    
    24   16   13 1    
    25   28   13 1    
    26   32   14 1    
    27   17   16 1    
    28   29   16 1    
    29   30   16 1    
    30   18   17 1    
    31   19   18 ar   
    32   20   18 ar   
    33   21   18 ar   
@<TRIPOS>SUBSTRUCTURE
     1 U5P232      1 GROUP   
@<TRIPOS>SET

