#    Name: 3et7_349_1_INTS_M
#    Modification time : Tue Mar 25 02:26:40 2014

@<TRIPOS>MOLECULE
3et7_349_1_INTS_M
   69     0     9     0     0
SMALL
NO_CHARGES


@<TRIPOS>ATOM
      1 CA         18.5825   64.7380   21.2185 C.3       3 GLC5        0.0000 
      2 CA         19.5810   63.0670   20.5130 C.3       9 GLL5        0.0000 
      3 CA         17.5840   66.4090   21.9240 C.3       6 GLP5        0.0000 
      4 CA         25.1685   65.2690   18.1760 C.3       3 GLC5        0.0000 
      5 CA         23.9640   65.6060   19.9680 C.3       9 GLL5        0.0000 
      6 CA         26.3730   64.9320   16.3840 C.3       6 GLP5        0.0000 
      7 CA         22.9455   68.8055   20.4085 C.3       3 GLC5        0.0000 
      8 CA         23.5770   67.0580   19.7320 C.3       9 GLL5        0.0000 
      9 CA         22.3140   70.5530   21.0850 C.3       6 GLP5        0.0000 
     10 CA         25.8395   66.5545   17.3090 C.3       3 GLC5        0.0000 
     11 CA         25.3060   68.1770   18.2340 C.3       9 GLL5        0.0000 
     12 CA         24.0825   69.5805   15.2315 C.3       3 GLC5        0.0000 
     13 CA         25.0440   68.3070   15.9780 C.3       9 GLL5        0.0000 
     14 CA         23.1210   70.8540   14.4850 C.3       6 GLP5        0.0000 
     15 CA         25.7885   68.5385   14.0405 C.3       3 GLC5        0.0000 
     16 CA         26.5330   68.7700   12.1030 C.3       6 GLP5        0.0000 
     17 CA         25.7085   66.6195   16.1810 C.3       3 GLC5        0.0000 
     18 N          26.0830   69.4835   14.4010 N.am      2 SEC2        0.0000 
     19 N          26.0750   69.1450   15.7700 N.am      8 SEL2        0.0000 
     20 N          26.0910   69.8220   13.0320 N.am      5 SEP2        0.0000 
     21 CA         26.3080   70.8220   15.3300 C.3       3 GLC5        0.0000 
     22 CA         26.8320   69.4800   16.8270 C.3       9 GLL5        0.0000 
     23 CA         25.7840   72.1640   13.8330 C.3       6 GLP5        0.0000 
     24 CA         24.3275   70.2210   20.6060 C.3       3 GLC5        0.0000 
     25 CA         26.3410   69.8890   20.1270 C.3       9 GLL5        0.0000 
     26 CA         27.3780   71.5060   20.4085 C.3       3 GLC5        0.0000 
     27 CA         28.4150   73.1230   20.6900 C.3       6 GLP5        0.0000 
     28 CA         29.3575   69.6510   16.7785 C.3       3 GLC5        0.0000 
     29 CA         28.3560   69.8960   18.7630 C.3       9 GLL5        0.0000 
     30 CA         30.3590   69.4060   14.7940 C.3       6 GLP5        0.0000 
     31 O          24.4955   67.5435   13.6040 O.2       1 ALC1        0.0000 
     32 O          24.2300   67.9690   14.9630 O.2       7 ALL1        0.0000 
     33 O          24.7610   67.1180   12.2450 O.2       4 ALP1        0.0000 
     34 CA         21.9585   68.4820   16.2060 C.3       3 GLC5        0.0000 
     35 CA         23.1360   67.0770   15.2160 C.3       9 GLL5        0.0000 
     36 CA         20.7810   69.8870   17.1960 C.3       6 GLP5        0.0000 
     37 CA         19.5600   66.7460   15.3175 C.3       3 GLC5        0.0000 
     38 CA         19.8840   65.5810   13.5620 C.3       9 GLL5        0.0000 
     39 CA         19.2360   67.9110   17.0730 C.3       6 GLP5        0.0000 
     40 CA         21.8515   64.5165   13.5510 C.3       3 GLC5        0.0000 
     41 CA         23.8190   63.4520   13.5400 C.3       6 GLP5        0.0000 
     42 CA         18.7385   64.6683   22.3535 C.3       3 GLC5        0.0000 
     43 CA         20.5270   63.3990   22.7220 C.3       9 GLL5        0.0000 
     44 CA         24.2946   61.8634   19.0892 C.3       3 GLC5        0.0000 
     45 CA         23.2960   63.2900   20.7100 C.3       9 GLL5        0.0000 
     46 CA         23.8750   60.3100   17.8430 C.3       6 GLP5        0.0000 
     47 CA         26.8630   64.8067   18.9703 C.3       3 GLC5        0.0000 
     48 CA         25.4990   63.7790   20.0650 C.3       9 GLL5        0.0000 
     49 CA         28.3450   65.1600   18.0130 C.3       6 GLP5        0.0000 
     50 CA         25.3080   70.6724   17.7711 C.3       3 GLC5        0.0000 
     51 CA         24.2660   72.3230   18.0590 C.3       6 GLP5        0.0000 
     52 CA         25.5217   70.9497   18.8715 C.3       3 GLC5        0.0000 
     53 CA         27.2140   69.2640   19.2410 C.3       9 GLL5        0.0000 
     54 CA         28.1500   71.4280   19.1170 C.3       3 GLC5        0.0000 
     55 CA         28.5150   73.2760   19.2320 C.3       6 GLP5        0.0000 
     56 CA         27.7957   66.8877   18.6485 C.3       3 GLC5        0.0000 
     57 CA         26.4300   68.9500   18.0450 C.3       9 GLL5        0.0000 
     58 CA         29.5666   68.4540   18.8205 C.3       3 GLC5        0.0000 
     59 CA         31.2340   67.6130   18.4680 C.3       6 GLP5        0.0000 
     60 CA         22.8738   68.9125   14.6077 C.3       3 GLC5        0.0000 
     61 CA         20.8900   66.9357   16.7605 C.3       3 GLC5        0.0000 
     62 CA         23.0750   66.3970   16.3790 C.3       9 GLL5        0.0000 
     63 CA         23.1891   64.7912   14.8486 C.3       3 GLC5        0.0000 
     64 CA         22.0130   65.5240   16.5170 C.3       9 GLL5        0.0000 
     65 CA         24.4661   65.5312   16.2706 C.3       3 GLC5        0.0000 
     66 CA         20.4160   67.1680   15.7082 C.3       3 GLC5        0.0000 
     67 CA         22.1170   66.8650   14.2450 C.3       9 GLL5        0.0000 
     68 CA         22.7075   64.9385   13.9417 C.3       3 GLC5        0.0000 
     69 CA         21.0750   65.9850   14.4420 C.3       9 GLL5        0.0000 
@<TRIPOS>BOND
@<TRIPOS>SUBSTRUCTURE
     1 ALC1       31 GROUP        1 X    ALC  0     ROOT ALC X 1
     2 SEC2       18 GROUP        1 X    SEC  0     **** SEC X 2
     3 GLC5        1 GROUP        1 X    GLC  0     **** GLC X 6
     4 ALP1       33 GROUP        1 Y    ALP  0     ROOT ALP Y 8
     5 SEP2       20 GROUP        1 Y    SEP  0     **** SEP Y 9
     6 GLP5        3 GROUP        1 Y    GLP  0     **** GLP Y 13
     7 ALL1       32 GROUP        1 Z    ALL  0     ROOT ALL Z 15
     8 SEL2       19 GROUP        1 Z    SEL  0     **** SEL Z 16
     9 GLL5        2 GROUP        1 Z    GLL  0     **** GLL Z 20
@<TRIPOS>SET

