#    Name: 3et7_349_1_ligand
#    Modification time : Tue Mar 25 02:26:40 2014

@<TRIPOS>MOLECULE
3et7_349_1_ligand
   58    62     1     0     0
SMALL
NO_CHARGES


@<TRIPOS>ATOM
      1 O32        21.5830   66.1030   21.8780 O.2       1 349999      0.0000 
      2 S30        21.3840   65.2620   20.7320 S.o2      1 349999      0.0000 
      3 O31        20.8370   65.5760   19.4620 O.2       1 349999      0.0000 
      4 N33        20.5480   63.8960   21.3040 N.pl3     1 349999      0.0000 
      5 C34        20.5270   63.3990   22.7220 C.3       1 349999      0.0000 
      6 C35        19.2590   62.4560   22.8440 C.3       1 349999      0.0000 
      7 C36        19.0590   61.9040   21.4120 C.3       1 349999      0.0000 
      8 C37        19.5810   63.0670   20.5130 C.3       1 349999      0.0000 
      9 C29        23.0160   64.6640   20.4240 C.ar      1 349999      0.0000 
     10 C28        23.2960   63.2900   20.7100 C.ar      1 349999      0.0000 
     11 C27        24.5630   62.8190   20.5020 C.ar      1 349999      0.0000 
     12 C26        25.4990   63.7790   20.0650 C.ar      1 349999      0.0000 
     13 C25        25.2630   65.1280   19.7900 C.ar      1 349999      0.0000 
     14 C24        23.9640   65.6060   19.9680 C.ar      1 349999      0.0000 
     15 C23        23.5770   67.0580   19.7320 C.3       1 349999      0.0000 
     16 N22        24.8870   67.7350   19.4920 N.pl3     1 349999      0.0000 
     17 C21        25.3060   68.1770   18.2340 C.ar      1 349999      0.0000 
     18 N20        24.6050   67.8560   17.1570 N.ar      1 349999      0.0000 
     19 C8         25.0440   68.3070   15.9780 C.ar      1 349999      0.0000 
     20 N7         26.0750   69.1450   15.7700 N.ar      1 349999      0.0000 
     21 C6         26.8320   69.4800   16.8270 C.ar      1 349999      0.0000 
     22 C5         26.4300   68.9500   18.0450 C.ar      1 349999      0.0000 
     23 C2         27.2140   69.2640   19.2410 C.3       1 349999      0.0000 
     24 F4         26.3410   69.8890   20.1270 F         1 349999      0.0000 
     25 F3         27.6710   68.1240   19.9250 F         1 349999      0.0000 
     26 F1         28.3560   69.8960   18.7630 F         1 349999      0.0000 
     27 N9         24.2300   67.9690   14.9630 N.pl3     1 349999      0.0000 
     28 C10        23.1360   67.0770   15.2160 C.ar      1 349999      0.0000 
     29 C11        23.0750   66.3970   16.3790 C.ar      1 349999      0.0000 
     30 C12        22.0130   65.5240   16.5170 C.ar      1 349999      0.0000 
     31 C13        20.9940   65.2960   15.6410 C.ar      1 349999      0.0000 
     32 N14        19.8580   64.4620   15.7070 N.2       1 349999      0.0000 
     33 C18        21.0750   65.9850   14.4420 C.ar      1 349999      0.0000 
     34 C19        22.1170   66.8650   14.2450 C.ar      1 349999      0.0000 
     35 C17        19.8840   65.5810   13.5620 C.2       1 349999      0.0000 
     36 C15        19.1630   64.5920   14.4910 C.2       1 349999      0.0000 
     37 O16        18.1410   64.0210   14.1200 O.2       1 349999      0.0000 
     38 H          20.4026   64.2045   23.4107 H         1 349999      0.0000 
     39 H          21.3921   62.8127   22.9376 H         1 349999      0.0000 
     40 H          18.4302   63.0412   23.1264 H         1 349999      0.0000 
     41 H          19.4864   61.6703   23.5073 H         1 349999      0.0000 
     42 H          18.0351   61.7540   21.2273 H         1 349999      0.0000 
     43 H          19.6631   61.0556   21.2692 H         1 349999      0.0000 
     44 H          20.0668   62.6347   19.6500 H         1 349999      0.0000 
     45 H          18.7332   63.6616   20.2041 H         1 349999      0.0000 
     46 H          22.5466   62.6982   21.0606 H         1 349999      0.0000 
     47 H          24.8274   61.8685   20.6432 H         1 349999      0.0000 
     48 H          26.5077   63.4277   19.9296 H         1 349999      0.0000 
     49 H          26.0054   65.7346   19.4740 H         1 349999      0.0000 
     50 H          23.1093   67.4469   20.6050 H         1 349999      0.0000 
     51 H          22.9579   67.1244   18.8692 H         1 349999      0.0000 
     52 H          25.4877   67.8653   20.3257 H         1 349999      0.0000 
     53 H          27.6422   70.0749   16.7637 H         1 349999      0.0000 
     54 H          24.3543   68.3204   14.0106 H         1 349999      0.0000 
     55 H          23.7572   66.5078   17.1156 H         1 349999      0.0000 
     56 H          21.9939   64.9492   17.4442 H         1 349999      0.0000 
     57 H          22.1784   67.4065   13.3550 H         1 349999      0.0000 
     58 H          19.6815   65.8308   12.7871 H         1 349999      0.0000 
@<TRIPOS>BOND
     1    2    1 2    
     2    3    2 2    
     3    4    2 1    
     4    9    2 1    
     5    5    4 1    
     6    8    4 1    
     7    6    5 1    
     8   38    5 1    
     9   39    5 1    
    10    7    6 1    
    11   40    6 1    
    12   41    6 1    
    13    8    7 1    
    14   42    7 1    
    15   43    7 1    
    16   44    8 1    
    17   45    8 1    
    18   10    9 ar   
    19   14    9 ar   
    20   11   10 ar   
    21   46   10 1    
    22   12   11 ar   
    23   47   11 1    
    24   13   12 ar   
    25   48   12 1    
    26   14   13 ar   
    27   49   13 1    
    28   15   14 1    
    29   16   15 1    
    30   50   15 1    
    31   51   15 1    
    32   17   16 1    
    33   52   16 1    
    34   18   17 ar   
    35   22   17 ar   
    36   19   18 ar   
    37   20   19 ar   
    38   27   19 1    
    39   21   20 ar   
    40   22   21 ar   
    41   53   21 1    
    42   23   22 1    
    43   24   23 1    
    44   25   23 1    
    45   26   23 1    
    46   28   27 1    
    47   54   27 1    
    48   29   28 ar   
    49   34   28 ar   
    50   30   29 ar   
    51   55   29 1    
    52   31   30 ar   
    53   56   30 1    
    54   32   31 2    
    55   33   31 ar   
    56   36   32 1    
    57   34   33 ar   
    58   35   33 2    
    59   57   34 1    
    60   36   35 1    
    61   58   35 1    
    62   37   36 2    
@<TRIPOS>SUBSTRUCTURE
     1 349999      1 GROUP   
@<TRIPOS>SET

