#    Name: 1VA6_1_CAVITY_N1_6.mol2
#    Modification time : Mon Mar 10 12:35:50 2014

@<TRIPOS>MOLECULE
1VA6_1_CAVITY_N1_6.mol2
  112     0     7     0     0
SMALL
NO_CHARGES


@<TRIPOS>ATOM
      1 CA         36.8565   -2.4288   -5.2383 C.3       6 GLY6        0.0000 
      2 O          36.3185   -1.0312   -5.3231 O.2       2 ALA2        0.0000 
      3 O          35.7804    0.3664   -5.4079 O.2       2 ALA2        0.0000 
      4 OD1        32.3361    2.1563   -7.1205 O.3       3 ASP3        0.0000 
      5 CA         37.0657   -0.8214   -6.6067 C.3       6 GLY6        0.0000 
      6 NZ         36.3436    1.0351    2.0410 N.2       4 LYS4        0.0000 
      7 NZ         35.8055    2.4327    1.9562 N.2       4 LYS4        0.0000 
      8 CA         35.2674    3.8303    1.8715 C.3       6 GLY6        0.0000 
      9 NZ         35.6976   -0.8652    1.3543 N.2       4 LYS4        0.0000 
     10 NZ         35.1595    0.5324    1.2695 N.2       4 LYS4        0.0000 
     11 NZ         34.6214    1.9300    1.1847 N.2       4 LYS4        0.0000 
     12 OD1        34.0833    3.3276    1.0999 O.3       3 ASP3        0.0000 
     13 NZ         35.0516   -2.7655    0.6675 N.2       4 LYS4        0.0000 
     14 O          34.4055   -4.6658   -0.0193 O.2       2 ALA2        0.0000 
     15 NZ         33.8675   -3.2682   -0.1040 N.2       4 LYS4        0.0000 
     16 O          33.2215   -5.1684   -0.7908 O.2       2 ALA2        0.0000 
     17 O          32.1453   -2.3732   -0.9603 O.2       2 ALA2        0.0000 
     18 NZ         31.6072   -0.9756   -1.0451 N.2       4 LYS4        0.0000 
     19 OD1        31.0692    0.4220   -1.1299 O.3       3 ASP3        0.0000 
     20 O          30.4231   -1.4783   -1.8166 O.2       2 ALA2        0.0000 
     21 OD1        29.8851   -0.0807   -1.9014 O.3       3 ASP3        0.0000 
     22 O          29.2391   -1.9810   -2.5882 O.2       2 ALA2        0.0000 
     23 O          28.7010   -0.5834   -2.6729 O.2       2 ALA2        0.0000 
     24 OD1        28.1629    0.8142   -2.7577 O.3       3 ASP3        0.0000 
     25 NZ         27.6248    2.2118   -2.8425 N.2       4 LYS4        0.0000 
     26 O          27.5169   -1.0860   -3.4445 O.2       2 ALA2        0.0000 
     27 OG         26.9788    0.3116   -3.5292 O.2       1 SER1        0.0000 
     28 OG         26.4407    1.7092   -3.6140 O.2       1 SER1        0.0000 
     29 OD1        36.6540    0.9521   -1.2977 O.3       3 ASP3        0.0000 
     30 CA         36.1160    2.3497   -1.3824 C.3       6 GLY6        0.0000 
     31 N          35.5779    3.7473   -1.4672 N.2       2 ALA2        0.0000 
     32 O          35.4699    0.4494   -2.0692 O.2       2 ALA2        0.0000 
     33 O          34.9319    1.8470   -2.1540 O.2       2 ALA2        0.0000 
     34 O          34.3938    3.2446   -2.2387 O.2       2 ALA2        0.0000 
     35 O          34.2859   -0.0533   -2.8407 O.2       2 ALA2        0.0000 
     36 O          33.7478    1.3443   -2.9255 O.2       2 ALA2        0.0000 
     37 O          33.2097    2.7419   -3.0103 O.2       2 ALA2        0.0000 
     38 O          33.1018   -0.5559   -3.6122 O.2       2 ALA2        0.0000 
     39 O          32.5637    0.8417   -3.6970 O.2       2 ALA2        0.0000 
     40 NZ         32.0256    2.2393   -3.7818 N.2       4 LYS4        0.0000 
     41 CA         31.9177   -1.0586   -4.3838 C.3       6 GLY6        0.0000 
     42 CZ         31.3796    0.3390   -4.4686 C.ar      5 PHE5        0.0000 
     43 NZ         30.8415    1.7366   -4.5533 N.2       4 LYS4        0.0000 
     44 OG         30.7336   -1.5613   -5.1553 O.2       1 SER1        0.0000 
     45 OG         30.1955   -0.1637   -5.2401 O.2       1 SER1        0.0000 
     46 NZ         29.6574    1.2339   -5.3249 N.2       4 LYS4        0.0000 
     47 OD1        32.4742   -5.3783    0.4928 O.3       3 ASP3        0.0000 
     48 CA         27.4156    0.6044   -1.4741 C.3       6 GLY6        0.0000 
     49 O          26.2315    0.1017   -2.2457 O.2       2 ALA2        0.0000 
     50 NZ         25.6935    1.4993   -2.3304 N.2       4 LYS4        0.0000 
     51 NZ         25.1554    2.8969   -2.4152 N.2       4 LYS4        0.0000 
     52 CZ         25.0475   -0.4009   -3.0172 C.ar      5 PHE5        0.0000 
     53 CZ         24.5094    0.9967   -3.1020 C.ar      5 PHE5        0.0000 
     54 CZ         23.9713    2.3943   -3.1868 C.ar      5 PHE5        0.0000 
     55 DU         36.5528    2.6425    0.6727 H         7 CUB7        0.0000 
     56 CA         36.0147    4.0401    0.5879 C.3       6 GLY6        0.0000 
     57 DU         36.4448   -0.6554    0.0707 H         7 CUB7        0.0000 
     58 NZ         35.9068    0.7422   -0.0141 N.2       4 LYS4        0.0000 
     59 NZ         35.3687    2.1398   -0.0989 N.2       4 LYS4        0.0000 
     60 DU         34.8306    3.5374   -0.1836 H         7 CUB7        0.0000 
     61 N          34.2925    4.9350   -0.2684 N.2       2 ALA2        0.0000 
     62 N          22.1596   -2.9307    0.1468 N.2       2 ALA2        0.0000 
     63 N          21.5136   -4.8310   -0.5400 N.2       2 ALA2        0.0000 
     64 N          20.9755   -3.4334   -0.6248 N.2       2 ALA2        0.0000 
     65 CA         20.4375   -2.0358   -0.7095 C.3       6 GLY6        0.0000 
     66 N          25.4843   -0.1081   -0.9621 N.2       2 ALA2        0.0000 
     67 N          24.9462    1.2895   -1.0469 N.2       2 ALA2        0.0000 
     68 O          24.3002   -0.6108   -1.7336 O.2       2 ALA2        0.0000 
     69 N          23.7621    0.7868   -1.8184 N.2       2 ALA2        0.0000 
     70 O          23.2240    2.1844   -1.9032 O.2       2 ALA2        0.0000 
     71 CZ         23.1161   -1.1135   -2.5052 C.ar      5 PHE5        0.0000 
     72 CZ         22.5780    0.2841   -2.5899 C.ar      5 PHE5        0.0000 
     73 CZ         22.4701   -3.0137   -3.1919 C.ar      5 PHE5        0.0000 
     74 N          21.2860   -3.5164   -3.9634 N.2       2 ALA2        0.0000 
     75 N          23.5529   -0.8206   -0.4501 N.2       2 ALA2        0.0000 
     76 O          22.9069   -2.7209   -1.1368 O.2       2 ALA2        0.0000 
     77 O          22.3688   -1.3233   -1.2216 O.2       2 ALA2        0.0000 
     78 N          22.2609   -4.6212   -1.8236 N.2       2 ALA2        0.0000 
     79 N          21.7228   -3.2236   -1.9083 N.2       2 ALA2        0.0000 
     80 CZ         21.1847   -1.8260   -1.9931 C.ar      5 PHE5        0.0000 
     81 N          20.5387   -3.7262   -2.6799 N.2       2 ALA2        0.0000 
     82 N          20.0007   -2.3286   -2.7646 N.2       2 ALA2        0.0000 
     83 O          36.7553   -0.7384   -3.2680 O.2       2 ALA2        0.0000 
     84 CA         36.2172    0.6592   -3.3528 C.3       6 GLY6        0.0000 
     85 O          35.6791    2.0568   -3.4375 O.2       2 ALA2        0.0000 
     86 O          35.0331    0.1566   -4.1243 O.2       2 ALA2        0.0000 
     87 O          34.4951    1.5542   -4.2091 O.2       2 ALA2        0.0000 
     88 CZ         33.8490   -0.3461   -4.8958 C.ar      5 PHE5        0.0000 
     89 O          33.3110    1.0515   -4.9806 O.2       2 ALA2        0.0000 
     90 CZ         32.1269    0.5488   -5.7521 C.ar      5 PHE5        0.0000 
     91 O          31.5888    1.9464   -5.8369 O.2       2 ALA2        0.0000 
     92 CZ         30.9428    0.0462   -6.5237 C.ar      5 PHE5        0.0000 
     93 CA         30.4047    1.4438   -6.6084 C.3       6 GLY6        0.0000 
     94 O          35.7988   -2.5556   -0.6161 O.2       2 ALA2        0.0000 
     95 O          35.2607   -1.1580   -0.7008 O.2       2 ALA2        0.0000 
     96 NZ         34.7227    0.2396   -0.7856 N.2       4 LYS4        0.0000 
     97 NZ         34.1846    1.6372   -0.8704 N.2       4 LYS4        0.0000 
     98 OD1        33.6465    3.0348   -0.9552 O.3       3 ASP3        0.0000 
     99 N          33.1085    4.4324   -1.0399 N.2       2 ALA2        0.0000 
    100 NZ         33.5386   -0.2631   -1.5571 N.2       4 LYS4        0.0000 
    101 NZ         33.0005    1.1345   -1.6419 N.2       4 LYS4        0.0000 
    102 NZ         32.4624    2.5321   -1.7267 N.2       4 LYS4        0.0000 
    103 O          32.8926   -2.1634   -2.2439 O.2       2 ALA2        0.0000 
    104 O          32.3545   -0.7658   -2.3287 O.2       2 ALA2        0.0000 
    105 NZ         31.8164    0.6318   -2.4135 N.2       4 LYS4        0.0000 
    106 N          31.7085   -2.6661   -3.0154 N.2       2 ALA2        0.0000 
    107 N          31.1704   -1.2685   -3.1002 N.2       2 ALA2        0.0000 
    108 NZ         30.6323    0.1291   -3.1850 N.2       4 LYS4        0.0000 
    109 NZ         30.0943    1.5267   -3.2698 N.2       4 LYS4        0.0000 
    110 N          29.9863   -1.7711   -3.8717 N.2       2 ALA2        0.0000 
    111 CZ         29.4482   -0.3735   -3.9565 C.ar      5 PHE5        0.0000 
    112 NZ         28.9102    1.0241   -4.0413 N.2       4 LYS4        0.0000 
@<TRIPOS>BOND
@<TRIPOS>SUBSTRUCTURE
     1 SER1       27 GROUP   
     2 ALA2        2 GROUP   
     3 ASP3        4 GROUP   
     4 LYS4        6 GROUP   
     5 PHE5       42 GROUP   
     6 GLY6        1 GROUP   
     7 CUB7       55 GROUP   
@<TRIPOS>SET

