#    Name: 1va6_P2S_1_INTS_M
#    Modification time : Tue Mar 25 07:37:58 2014

@<TRIPOS>MOLECULE
1va6_P2S_1_INTS_M
   59     0    15     0     0
SMALL
NO_CHARGES


@<TRIPOS>ATOM
      1 Zn         29.4075   -0.3720    1.9220 Zn        4 ZIC7        0.0000 
      2 Zn         29.6530   -0.3710    0.8830 Zn       14 ZIL7        0.0000 
      3 Zn         29.1620   -0.3730    2.9610 Zn        9 ZIP7        0.0000 
      4 Zn         30.2325    2.3160   -0.0505 Zn        4 ZIC7        0.0000 
      5 Zn         31.0170    1.6600    0.2550 Zn       14 ZIL7        0.0000 
      6 Zn         29.4480    2.9720   -0.3560 Zn        9 ZIP7        0.0000 
      7 Zn         31.4455    1.8345    1.2295 Zn        4 ZIC7        0.0000 
      8 Zn         31.8740    2.0090    2.2040 Zn        9 ZIP7        0.0000 
      9 Zn         29.1560    2.0865   -0.6980 Zn        4 ZIC7        0.0000 
     10 Zn         28.8640    1.2010   -1.0400 Zn       14 ZIL7        0.0000 
     11 Zn         29.0130    0.4140    0.9605 Zn        4 ZIC7        0.0000 
     12 Zn         30.3690    1.6050    0.5820 Zn        4 ZIC7        0.0000 
     13 N          27.8955   -1.7690   -1.2270 N.am      2 SEC2        0.0000 
     14 N          28.2540   -0.9410   -2.4140 N.am     12 SEL2        0.0000 
     15 N          27.5370   -2.5970   -0.0400 N.am      7 SEP2        0.0000 
     16 N          27.1365   -1.8420   -2.0750 N.am      2 SEC2        0.0000 
     17 N          26.0190   -2.7430   -1.7360 N.am      7 SEP2        0.0000 
     18 CA         28.3920   -1.2555   -5.5030 C.3       5 GLC5        0.0000 
     19 CA         29.4930    0.4670   -5.0550 C.3      15 GLL5        0.0000 
     20 CA         27.2910   -2.9780   -5.9510 C.3      10 GLP5        0.0000 
     21 N          30.8735   -2.1095   -7.0075 N.am      2 SEC2        0.0000 
     22 N          30.0930   -1.3080   -6.4480 N.am     12 SEL2        0.0000 
     23 N          31.6540   -2.9110   -7.5670 N.am      7 SEP2        0.0000 
     24 N          28.9465   -1.4285   -7.1225 N.am      2 SEC2        0.0000 
     25 N          27.8000   -1.5490   -7.7970 N.am      7 SEP2        0.0000 
     26 CA         29.3770    3.4760   -6.8505 C.3       5 GLC5        0.0000 
     27 CA         29.6510    1.4890   -6.0390 C.3      15 GLL5        0.0000 
     28 CA         29.1030    5.4630   -7.6620 C.3      10 GLP5        0.0000 
     29 CA         30.7415    3.8630   -6.6090 C.3       5 GLC5        0.0000 
     30 CA         30.9940    1.8620   -6.0470 C.3      15 GLL5        0.0000 
     31 CA         30.4890    5.8640   -7.1710 C.3      10 GLP5        0.0000 
     32 CA         32.0695    0.3960   -6.8985 C.3       5 GLC5        0.0000 
     33 CA         33.1450   -1.0700   -7.7500 C.3      10 GLP5        0.0000 
     34 CA         24.3825    1.6895   -4.2925 C.3       5 GLC5        0.0000 
     35 CA         24.7200    1.8680   -2.4860 C.3      15 GLL5        0.0000 
     36 CA         24.0450    1.5110   -6.0990 C.3      10 GLP5        0.0000 
     37 O          25.2040    4.0105   -1.7255 O.2       1 ALC1        0.0000 
     38 O          24.8480    3.1910   -2.7730 O.2      11 ALL1        0.0000 
     39 O          25.5600    4.8300   -0.6780 O.2       6 ALP1        0.0000 
     40 O          23.9910    4.2145   -3.3285 O.2       1 ALC1        0.0000 
     41 O          23.1340    5.2380   -3.8840 O.2       6 ALP1        0.0000 
     42 NZ         21.8340    1.6945   -0.3770 N.4       3 LYC4        0.0000 
     43 NZ         23.5690    0.7600   -0.7520 N.4      13 LYL4        0.0000 
     44 NZ         19.9150    1.4290    0.4840 N.4       8 LYP4        0.0000 
     45 N          24.4400    0.4805    0.4260 N.am      2 SEC2        0.0000 
     46 N          23.5690    0.7600   -0.7520 N.am     12 SEL2        0.0000 
     47 N          25.3110    0.2010    1.6040 N.am      7 SEP2        0.0000 
     48 N          22.2940    0.7880    0.0620 N.am      2 SEC2        0.0000 
     49 N          21.0190    0.8160    0.8760 N.am      7 SEP2        0.0000 
     50 NZ         22.6490    2.5730   -1.6300 N.4      13 LYL4        0.0000 
     51 N          21.2925    2.4290   -1.0835 N.am      2 SEC2        0.0000 
     52 N          22.6490    2.5730   -1.6300 N.am     12 SEL2        0.0000 
     53 N          19.9360    2.2850   -0.5370 N.am      7 SEP2        0.0000 
     54 N          21.8340    1.6945   -0.3770 N.am      2 SEC2        0.0000 
     55 CA         30.2920    1.0765   -7.5595 C.3       5 GLC5        0.0000 
     56 CA         30.3010    0.7330   -9.3220 C.3      10 GLP5        0.0000 
     57 CA         25.6140    0.8782   -4.1292 C.3       5 GLC5        0.0000 
     58 CA         26.9890    1.4500   -2.8510 C.3      15 GLL5        0.0000 
     59 CA         24.7830    0.3860   -5.8740 C.3      10 GLP5        0.0000 
@<TRIPOS>BOND
@<TRIPOS>SUBSTRUCTURE
     1 ALC1       37 GROUP        1 X    ALC  0     ROOT ALC X 1
     2 SEC2       13 GROUP        1 X    SEC  0     **** SEC X 2
     3 LYC4       42 GROUP        1 X    LYC  0     **** LYC X 4
     4 ZIC7        1 GROUP        1 X    ZIC  0     **** ZIC X 5
     5 GLC5       18 GROUP        1 X    GLC  0     **** GLC X 6
     6 ALP1       39 GROUP        1 Y    ALP  0     ROOT ALP Y 8
     7 SEP2       15 GROUP        1 Y    SEP  0     **** SEP Y 9
     8 LYP4       44 GROUP        1 Y    LYP  0     **** LYP Y 11
     9 ZIP7        3 GROUP        1 Y    ZIP  0     **** ZIP Y 12
    10 GLP5       20 GROUP        1 Y    GLP  0     **** GLP Y 13
    11 ALL1       38 GROUP        1 Z    ALL  0     ROOT ALL Z 15
    12 SEL2       14 GROUP        1 Z    SEL  0     **** SEL Z 16
    13 LYL4       43 GROUP        1 Z    LYL  0     **** LYL Z 18
    14 ZIL7        2 GROUP        1 Z    ZIL  0     **** ZIL Z 19
    15 GLL5       19 GROUP        1 Z    GLL  0     **** GLL Z 20
@<TRIPOS>SET

