#    Name: 1va6_P2S_1_ligand
#    Modification time : Tue Mar 25 07:37:58 2014

@<TRIPOS>MOLECULE
1va6_P2S_1_ligand
   37    36     1     0     0
SMALL
NO_CHARGES


@<TRIPOS>ATOM
      1 OP3        29.6530   -0.3710    0.8830 O.co2     1 P2S520      0.0000 
      2 P          30.1620    0.4970   -0.3110 P.3       1 P2S520      0.0000 
      3 OP1        31.0170    1.6600    0.2550 O.co2     1 P2S520      0.0000 
      4 OP2        31.0760   -0.4290   -1.3490 O.co2     1 P2S520      0.0000 
      5 NS         28.8640    1.2010   -1.0400 N.2       1 P2S520      0.0000 
      6 S          28.4340    0.6250   -2.4980 S.o2      1 P2S520      0.0000 
      7 OS         28.2540   -0.9410   -2.4140 O.2       1 P2S520      0.0000 
      8 CD         29.6760    0.9700   -3.7330 C.3       1 P2S520      0.0000 
      9 CE         29.4930    0.4670   -5.0550 C.3       1 P2S520      0.0000 
     10 C2         30.3690   -0.5930   -5.4240 C.2       1 P2S520      0.0000 
     11 O2T        31.3920   -0.8970   -4.7020 O.co2     1 P2S520      0.0000 
     12 O2         30.0930   -1.3080   -6.4480 O.co2     1 P2S520      0.0000 
     13 CF         29.6510    1.4890   -6.0390 C.3       1 P2S520      0.0000 
     14 CH         30.9940    1.8620   -6.0470 C.3       1 P2S520      0.0000 
     15 CG         26.9890    1.4500   -2.8510 C.3       1 P2S520      0.0000 
     16 CB         25.9010    1.2910   -1.9180 C.3       1 P2S520      0.0000 
     17 CA         24.7200    1.8680   -2.4860 C.3       1 P2S520      0.0000 
     18 N          24.8480    3.1910   -2.7730 N.4       1 P2S520      0.0000 
     19 C1         23.6170    1.7340   -1.5800 C.2       1 P2S520      0.0000 
     20 O1         23.5690    0.7600   -0.7520 O.co2     1 P2S520      0.0000 
     21 O1T        22.6490    2.5730   -1.6300 O.co2     1 P2S520      0.0000 
     22 H          30.5963    0.5989   -3.2173 H         1 P2S520      0.0000 
     23 H          29.7396    2.0843   -3.6639 H         1 P2S520      0.0000 
     24 H          28.4420    0.0860   -5.1534 H         1 P2S520      0.0000 
     25 H          29.0000    2.3451   -5.7980 H         1 P2S520      0.0000 
     26 H          29.3353    1.1116   -7.0252 H         1 P2S520      0.0000 
     27 H          26.7412    1.1015   -3.8771 H         1 P2S520      0.0000 
     28 H          27.3195    2.5054   -2.9635 H         1 P2S520      0.0000 
     29 H          26.1478    1.7819   -0.9644 H         1 P2S520      0.0000 
     30 H          25.7418    0.2234   -1.7035 H         1 P2S520      0.0000 
     31 H          24.4571    1.3021   -3.4043 H         1 P2S520      0.0000 
     32 H          31.5921    1.0918   -6.2685 H         1 P2S520      0.0000 
     33 H          31.1766    2.5781   -6.7207 H         1 P2S520      0.0000 
     34 H          31.2869    2.2143   -5.1581 H         1 P2S520      0.0000 
     35 H          25.0575    3.7295   -1.9568 H         1 P2S520      0.0000 
     36 H          25.5818    3.3589   -3.4313 H         1 P2S520      0.0000 
     37 H          24.0096    3.5686   -3.1660 H         1 P2S520      0.0000 
@<TRIPOS>BOND
     1    2    1 ar   
     2    3    2 ar   
     3    4    2 ar   
     4    5    2 1    
     5    6    5 2    
     6    7    6 2    
     7    8    6 1    
     8   15    6 1    
     9    9    8 1    
    10   22    8 1    
    11   23    8 1    
    12   10    9 1    
    13   13    9 1    
    14   24    9 1    
    15   11   10 ar   
    16   12   10 ar   
    17   14   13 1    
    18   25   13 1    
    19   26   13 1    
    20   32   14 1    
    21   33   14 1    
    22   34   14 1    
    23   16   15 1    
    24   27   15 1    
    25   28   15 1    
    26   17   16 1    
    27   29   16 1    
    28   30   16 1    
    29   18   17 1    
    30   19   17 1    
    31   31   17 1    
    32   35   18 1    
    33   36   18 1    
    34   37   18 1    
    35   20   19 ar   
    36   21   19 ar   
@<TRIPOS>SUBSTRUCTURE
     1 P2S520      1 GROUP   
@<TRIPOS>SET

