#    Name: 2hm9_TRR_1_INTS_M
#    Modification time : Tue Mar 25 16:48:04 2014

@<TRIPOS>MOLECULE
2hm9_TRR_1_INTS_M
   58     0     9     0     0
SMALL
NO_CHARGES


@<TRIPOS>ATOM
      1 O           3.7775   -0.8635   -7.2510 O.2       1 ALC1        0.0000 
      2 O           3.0320   -0.1740   -6.0260 O.2       7 ALL1        0.0000 
      3 O           4.5230   -1.5530   -8.4760 O.2       4 ALP1        0.0000 
      4 CA          1.4580   -1.9055   -3.7530 C.3       3 GLC5        0.0000 
      5 CA          1.9590   -0.8820   -5.5270 C.3       9 GLL5        0.0000 
      6 CA          0.9570   -2.9290   -1.9790 C.3       6 GLP5        0.0000 
      7 CA          2.9120   -2.3605   -5.5280 C.3       3 GLC5        0.0000 
      8 CA          3.8650   -3.8390   -5.5290 C.3       6 GLP5        0.0000 
      9 CA          1.4730    0.8260   -6.0495 C.3       3 GLC5        0.0000 
     10 CA          0.9870    2.5340   -6.5720 C.3       6 GLP5        0.0000 
     11 O           2.1465   -2.4445   -7.4120 O.2       1 ALC1        0.0000 
     12 O           1.4760   -1.9610   -6.2190 O.2       7 ALL1        0.0000 
     13 O           2.8170   -2.9280   -8.6050 O.2       4 ALP1        0.0000 
     14 CA         -0.1320    0.4585   -3.6650 C.3       3 GLC5        0.0000 
     15 CA          1.8580    0.5560   -3.6430 C.3       9 GLL5        0.0000 
     16 CA         -2.1220    0.3610   -3.6870 C.3       6 GLP5        0.0000 
     17 CA          1.4075   -1.1865   -2.8110 C.3       3 GLC5        0.0000 
     18 O           0.5150    0.0925   -1.6560 O.2       1 ALC1        0.0000 
     19 O           1.2780    0.9090   -2.4650 O.2       7 ALL1        0.0000 
     20 O          -0.2480   -0.7240   -0.8470 O.2       4 ALP1        0.0000 
     21 CA          5.0220    1.3870   -6.7975 C.3       3 GLC5        0.0000 
     22 CA          3.5270    0.8940   -5.3390 C.3       9 GLL5        0.0000 
     23 CA          6.5170    1.8800   -8.2560 C.3       6 GLP5        0.0000 
     24 CA          1.9110    2.7730   -3.7795 C.3       3 GLC5        0.0000 
     25 CA          3.4460    2.4740   -3.3640 C.3       9 GLL5        0.0000 
     26 CA          0.3760    3.0720   -4.1950 C.3       6 GLP5        0.0000 
     27 N           9.4115    1.5180   -2.6575 N.am      2 SEC2        0.0000 
     28 N           8.2450    2.7180   -2.4080 N.am      8 SEL2        0.0000 
     29 N          10.5780    0.3180   -2.9070 N.am      5 SEP2        0.0000 
     30 CA          5.9945    3.6505   -7.6120 C.3       3 GLC5        0.0000 
     31 CA          5.4720    5.4210   -6.9680 C.3       9 GLL5        0.0000 
     32 CA          3.6045    5.0250   -6.1700 C.3       3 GLC5        0.0000 
     33 CA          1.7370    4.6290   -5.3720 C.3       6 GLP5        0.0000 
     34 CA          6.4390    6.9430   -6.2430 C.3       3 GLC5        0.0000 
     35 CA          7.4060    8.4650   -5.5180 C.3       6 GLP5        0.0000 
     36 CA          9.4370    1.3340   -5.0045 C.3       3 GLC5        0.0000 
     37 CA          9.5650    3.1790   -5.1810 C.3       9 GLL5        0.0000 
     38 CA          9.3090   -0.5110   -4.8280 C.3       6 GLP5        0.0000 
     39 CA          9.6810    1.9125   -0.9935 C.3       3 GLC5        0.0000 
     40 CA          7.9650    2.3810   -1.0640 C.3       9 GLL5        0.0000 
     41 CA         11.3970    1.4440   -0.9230 C.3       6 GLP5        0.0000 
     42 CA          7.4490    1.3270   -2.9235 C.3       3 GLC5        0.0000 
     43 CA          6.9330    0.2730   -4.7830 C.3       6 GLP5        0.0000 
     44 CA          8.9070    3.4580    0.0750 C.3       3 GLC5        0.0000 
     45 CA          9.8490    4.5350    1.2140 C.3       6 GLP5        0.0000 
     46 CA          5.0825    0.6778   -4.7592 C.3       3 GLC5        0.0000 
     47 CA          2.9370    1.2710   -4.1320 C.3       9 GLL5        0.0000 
     48 CA          1.9746    1.7189   -5.5926 C.3       3 GLC5        0.0000 
     49 CA          6.3080    2.0522   -4.9243 C.3       3 GLC5        0.0000 
     50 CA          5.0390    3.6270   -4.9010 C.3       9 GLL5        0.0000 
     51 CA          7.1220    5.9500   -4.4510 C.3       3 GLC5        0.0000 
     52 CA          6.3270    4.0360   -5.2300 C.3       9 GLL5        0.0000 
     53 CA          7.3870    8.0150   -4.0870 C.3       6 GLP5        0.0000 
     54 CA          7.1078    1.8237   -4.3015 C.3       3 GLC5        0.0000 
     55 CA          7.3870    3.7340   -4.4000 C.3       9 GLL5        0.0000 
     56 CA          6.5260    2.8314   -6.4944 C.3       3 GLC5        0.0000 
     57 CA          5.9690    1.4595   -4.0056 C.3       3 GLC5        0.0000 
     58 CA          5.8760    2.6020   -2.9060 C.3       9 GLL5        0.0000 
@<TRIPOS>BOND
@<TRIPOS>SUBSTRUCTURE
     1 ALC1        1 GROUP        1 X    ALC  0     ROOT ALC X 1
     2 SEC2       27 GROUP        1 X    SEC  0     **** SEC X 2
     3 GLC5        4 GROUP        1 X    GLC  0     **** GLC X 6
     4 ALP1        3 GROUP        1 Y    ALP  0     ROOT ALP Y 8
     5 SEP2       29 GROUP        1 Y    SEP  0     **** SEP Y 9
     6 GLP5        6 GROUP        1 Y    GLP  0     **** GLP Y 13
     7 ALL1        2 GROUP        1 Z    ALL  0     ROOT ALL Z 15
     8 SEL2       28 GROUP        1 Z    SEL  0     **** SEL Z 16
     9 GLL5        5 GROUP        1 Z    GLL  0     **** GLL Z 20
@<TRIPOS>SET

