#    Name: 2hm9_TRR_1_ligand
#    Modification time : Tue Mar 25 16:48:04 2014

@<TRIPOS>MOLECULE
2hm9_TRR_1_ligand
   40    41     1     0     0
SMALL
NO_CHARGES


@<TRIPOS>ATOM
      1 N1          3.0320   -0.1740   -6.0260 N.pl3     1 TRR170      0.0000 
      2 C2          1.9590   -0.8820   -5.5270 C.ar      1 TRR170      0.0000 
      3 N2          1.4760   -1.9610   -6.2190 N.pl3     1 TRR170      0.0000 
      4 N3          1.3770   -0.5160   -4.3380 N.ar      1 TRR170      0.0000 
      5 C4          1.8580    0.5560   -3.6430 C.ar      1 TRR170      0.0000 
      6 N4          1.2780    0.9090   -2.4650 N.pl3     1 TRR170      0.0000 
      7 C5          2.9370    1.2710   -4.1320 C.ar      1 TRR170      0.0000 
      8 C6          3.5270    0.8940   -5.3390 C.ar      1 TRR170      0.0000 
      9 C7          3.4460    2.4740   -3.3640 C.3       1 TRR170      0.0000 
     10 C11         4.8220    2.9060   -3.7370 C.ar      1 TRR170      0.0000 
     11 C12         5.0390    3.6270   -4.9010 C.ar      1 TRR170      0.0000 
     12 C13         6.3270    4.0360   -5.2300 C.ar      1 TRR170      0.0000 
     13 C14         7.3870    3.7340   -4.4000 C.ar      1 TRR170      0.0000 
     14 C15         7.1780    3.0150   -3.2400 C.ar      1 TRR170      0.0000 
     15 C16         5.8760    2.6020   -2.9060 C.ar      1 TRR170      0.0000 
     16 O13         6.5530    4.7540   -6.3900 O.3       1 TRR170      0.0000 
     17 O14         8.6640    4.1440   -4.7350 O.3       1 TRR170      0.0000 
     18 O15         8.2450    2.7180   -2.4080 O.3       1 TRR170      0.0000 
     19 C17         5.4720    5.4210   -6.9680 C.3       1 TRR170      0.0000 
     20 C18         9.5650    3.1790   -5.1810 C.3       1 TRR170      0.0000 
     21 C19         7.9650    2.3810   -1.0640 C.3       1 TRR170      0.0000 
     22 H           3.4579   -0.4603   -6.9259 H         1 TRR170      0.0000 
     23 H           0.6849   -2.4228   -5.8178 H         1 TRR170      0.0000 
     24 H           1.9568   -2.1924   -7.0647 H         1 TRR170      0.0000 
     25 H           0.8784    1.8249   -2.4284 H         1 TRR170      0.0000 
     26 H           1.3023    0.2216   -1.7392 H         1 TRR170      0.0000 
     27 H           4.3309    1.4289   -5.6961 H         1 TRR170      0.0000 
     28 H           3.4114    2.2406   -2.2794 H         1 TRR170      0.0000 
     29 H           2.7384    3.3154   -3.5171 H         1 TRR170      0.0000 
     30 H           4.2526    3.8594   -5.5198 H         1 TRR170      0.0000 
     31 H           5.7252    2.0729   -2.0370 H         1 TRR170      0.0000 
     32 H           5.7381    5.9087   -7.7995 H         1 TRR170      0.0000 
     33 H           4.7382    4.7902   -7.2203 H         1 TRR170      0.0000 
     34 H           5.0767    6.0966   -6.3457 H         1 TRR170      0.0000 
     35 H          10.4573    3.5755   -5.3968 H         1 TRR170      0.0000 
     36 H           9.7184    2.4685   -4.4942 H         1 TRR170      0.0000 
     37 H           9.2397    2.7214   -6.0085 H         1 TRR170      0.0000 
     38 H           8.7992    2.1841   -0.5489 H         1 TRR170      0.0000 
     39 H           7.4933    3.1219   -0.5859 H         1 TRR170      0.0000 
     40 H           7.3818    1.5714   -0.9979 H         1 TRR170      0.0000 
@<TRIPOS>BOND
     1    2    1 ar   
     2    8    1 ar   
     3   22    1 1    
     4    3    2 1    
     5    4    2 ar   
     6   23    3 1    
     7   24    3 1    
     8    5    4 ar   
     9    6    5 1    
    10    7    5 ar   
    11   25    6 1    
    12   26    6 1    
    13    8    7 ar   
    14    9    7 1    
    15   27    8 1    
    16   10    9 1    
    17   28    9 1    
    18   29    9 1    
    19   11   10 ar   
    20   15   10 ar   
    21   12   11 ar   
    22   30   11 1    
    23   13   12 ar   
    24   16   12 1    
    25   14   13 ar   
    26   17   13 1    
    27   15   14 ar   
    28   18   14 1    
    29   31   15 1    
    30   19   16 1    
    31   20   17 1    
    32   21   18 1    
    33   32   19 1    
    34   33   19 1    
    35   34   19 1    
    36   35   20 1    
    37   36   20 1    
    38   37   20 1    
    39   38   21 1    
    40   39   21 1    
    41   40   21 1    
@<TRIPOS>SUBSTRUCTURE
     1 TRR170      1 GROUP   
@<TRIPOS>SET

