#    Name: 2zx7_ZX7_2_INTS_M
#    Modification time : Tue Mar 25 11:15:44 2014

@<TRIPOS>MOLECULE
2zx7_ZX7_2_INTS_M
   73     0    12     0     0
SMALL
NO_CHARGES


@<TRIPOS>ATOM
      1 N          26.3065    2.0500   60.2560 N.am      2 SEC2        0.0000 
      2 N          25.8960    2.8760   59.2980 N.am     10 SEL2        0.0000 
      3 N          26.7170    1.2240   61.2140 N.am      6 SEP2        0.0000 
      4 N          24.6620    2.8395   60.0335 N.am      2 SEC2        0.0000 
      5 N          23.4280    2.8030   60.7690 N.am      6 SEP2        0.0000 
      6 CA         24.7050    3.1035   60.5610 C.3       4 GLC5        0.0000 
      7 CA         26.0080    4.3030   59.3100 C.3      12 GLL5        0.0000 
      8 CA         23.4020    1.9040   61.8120 C.3       8 GLP5        0.0000 
      9 CA         28.6550    3.7955   60.1050 C.3       4 GLC5        0.0000 
     10 CA         27.1270    4.7570   60.2520 C.3      12 GLL5        0.0000 
     11 CA         30.1830    2.8340   59.9580 C.3       8 GLP5        0.0000 
     12 CA         27.5700    4.5410   62.4205 C.3       4 GLC5        0.0000 
     13 CA         28.0130    4.3250   64.5890 C.3       8 GLP5        0.0000 
     14 CA         27.3300    2.9020   61.2705 C.3       4 GLC5        0.0000 
     15 CA         27.5330    1.0470   62.2890 C.3       8 GLP5        0.0000 
     16 N          26.7720    2.7910   61.4020 N.am      2 SEC2        0.0000 
     17 N          26.8270    4.3580   61.5900 N.am     10 SEL2        0.0000 
     18 O          28.1115    4.4300   62.1270 O.2       1 ALC1        0.0000 
     19 O          26.8270    4.3580   61.5900 O.2       9 ALL1        0.0000 
     20 O          29.3960    4.5020   62.6640 O.2       5 ALP1        0.0000 
     21 CA         27.2550    7.2420   61.9710 C.3       4 GLC5        0.0000 
     22 CA         27.2550    6.2800   60.2360 C.3      12 GLL5        0.0000 
     23 CA         27.2550    8.2040   63.7060 C.3       8 GLP5        0.0000 
     24 N          26.5000    7.7895   61.7105 N.am      2 SEC2        0.0000 
     25 N          26.1400    6.8460   60.9290 N.am     10 SEL2        0.0000 
     26 N          26.8600    8.7330   62.4920 N.am      6 SEP2        0.0000 
     27 O          25.5085    6.2195   62.0760 O.2       1 ALC1        0.0000 
     28 O          26.1400    6.8460   60.9290 O.2       9 ALL1        0.0000 
     29 O          24.8770    5.5930   63.2230 O.2       5 ALP1        0.0000 
     30 CA         29.2140    7.0280   59.1060 C.3       4 GLC5        0.0000 
     31 CA         27.3730    6.8130   58.8030 C.3      12 GLL5        0.0000 
     32 CA         31.0550    7.2430   59.4090 C.3       8 GLP5        0.0000 
     33 CA         27.1670   10.3345   59.1035 C.3       4 GLC5        0.0000 
     34 CA         27.3000    8.3410   58.8000 C.3      12 GLL5        0.0000 
     35 CA         27.0340   12.3280   59.4070 C.3       8 GLP5        0.0000 
     36 CA         26.0175    9.7675   57.6555 C.3       4 GLC5        0.0000 
     37 CA         24.7350   11.1940   56.5110 C.3       8 GLP5        0.0000 
     38 CA         29.1170    8.4435   58.8410 C.3       4 GLC5        0.0000 
     39 CA         30.9340    8.5460   58.8820 C.3       8 GLP5        0.0000 
     40 OD1        25.0030    6.6125   58.1885 O.co2     3 ASC3        0.0000 
     41 OD1        26.3060    6.2850   57.9340 O.co2    11 ASL3        0.0000 
     42 OD1        23.7000    6.9400   58.4430 O.co2     7 ASP3        0.0000 
     43 OD1        24.6255    6.6720   57.1985 O.co2     3 ASC3        0.0000 
     44 OD1        22.9450    7.0590   56.4630 O.co2     7 ASP3        0.0000 
     45 OD1        27.7085    5.9165   57.1145 O.co2     3 ASC3        0.0000 
     46 OD1        29.1110    5.5480   56.2950 O.co2     7 ASP3        0.0000 
     47 OD1        27.0970    6.7655   56.7680 O.co2     3 ASC3        0.0000 
     48 OD1        27.8880    7.2460   55.6020 O.co2     7 ASP3        0.0000 
     49 CA         23.7830    3.0130   56.5100 C.3       4 GLC5        0.0000 
     50 CA         25.2360    4.3010   56.9280 C.3      12 GLL5        0.0000 
     51 CA         22.3300    1.7250   56.0920 C.3       8 GLP5        0.0000 
     52 O          26.7265    5.9670   55.5765 O.2       1 ALC1        0.0000 
     53 O          25.5650    4.6880   55.5510 O.2       9 ALL1        0.0000 
     54 O          27.8880    7.2460   55.6020 O.2       5 ALP1        0.0000 
     55 CA         27.8205    8.1015   48.2080 C.3       4 GLC5        0.0000 
     56 CA         26.7990    7.7180   50.0050 C.3      12 GLL5        0.0000 
     57 CA         28.8420    8.4850   46.4110 C.3       8 GLP5        0.0000 
     58 CA         28.2233    4.0290   58.6745 C.3       4 GLC5        0.0000 
     59 CA         26.3010    4.8150   57.8980 C.3      12 GLL5        0.0000 
     60 CA         30.2920    3.4990   58.7450 C.3       8 GLP5        0.0000 
     61 CA         29.0445    6.2698   60.5305 C.3       4 GLC5        0.0000 
     62 CA         30.8980    7.0210   60.8170 C.3       8 GLP5        0.0000 
     63 CA         28.8030    5.0228   59.1322 C.3       4 GLC5        0.0000 
     64 CA         23.6235    7.4337   52.8813 C.3       4 GLC5        0.0000 
     65 CA         24.2510    5.4840   52.2840 C.3      12 GLL5        0.0000 
     66 CA         22.6530    9.0280   53.9250 C.3       8 GLP5        0.0000 
     67 CA         28.1535    8.9913   50.3628 C.3       4 GLC5        0.0000 
     68 CA         27.2090    6.9030   51.0560 C.3      12 GLL5        0.0000 
     69 CA         29.3030   10.6720   50.1950 C.3       8 GLP5        0.0000 
     70 CA         28.2670    5.9268   49.6088 C.3       4 GLC5        0.0000 
     71 CA         29.5300    4.5430   48.6870 C.3       8 GLP5        0.0000 
     72 CA         28.3010    7.1557   52.5625 C.3       4 GLC5        0.0000 
     73 CA         29.8580    7.7880   53.7180 C.3       8 GLP5        0.0000 
@<TRIPOS>BOND
@<TRIPOS>SUBSTRUCTURE
     1 ALC1       18 GROUP        1 X    ALC  0     ROOT ALC X 1
     2 SEC2        1 GROUP        1 X    SEC  0     **** SEC X 2
     3 ASC3       40 GROUP        1 X    ASC  0     **** ASC X 3
     4 GLC5        6 GROUP        1 X    GLC  0     **** GLC X 6
     5 ALP1       20 GROUP        1 Y    ALP  0     ROOT ALP Y 8
     6 SEP2        3 GROUP        1 Y    SEP  0     **** SEP Y 9
     7 ASP3       42 GROUP        1 Y    ASP  0     **** ASP Y 10
     8 GLP5        8 GROUP        1 Y    GLP  0     **** GLP Y 13
     9 ALL1       19 GROUP        1 Z    ALL  0     ROOT ALL Z 15
    10 SEL2        2 GROUP        1 Z    SEL  0     **** SEL Z 16
    11 ASL3       41 GROUP        1 Z    ASL  0     **** ASL Z 17
    12 GLL5        7 GROUP        1 Z    GLL  0     **** GLL Z 20
@<TRIPOS>SET

