#    Name: 2zx7_ZX7_2_ligand
#    Modification time : Tue Mar 25 11:15:44 2014

@<TRIPOS>MOLECULE
2zx7_ZX7_2_ligand
   43    45     1     0     0
SMALL
NO_CHARGES


@<TRIPOS>ATOM
      1 OAD        25.8960    2.8760   59.2980 O.3       1 ZX7902      0.0000 
      2 CAV        26.0080    4.3030   59.3100 C.3       1 ZX7902      0.0000 
      3 CAW        27.1270    4.7570   60.2520 C.3       1 ZX7902      0.0000 
      4 OAE        26.8270    4.3580   61.5900 O.3       1 ZX7902      0.0000 
      5 CAU        27.2550    6.2800   60.2360 C.3       1 ZX7902      0.0000 
      6 OAC        26.1400    6.8460   60.9290 O.3       1 ZX7902      0.0000 
      7 CAS        27.3730    6.8130   58.8030 C.3       1 ZX7902      0.0000 
      8 CAA        27.3000    8.3410   58.8000 C.3       1 ZX7902      0.0000 
      9 NAM        26.3060    6.2850   57.9340 N.4       1 ZX7902      0.0000 
     10 CAT        26.3010    4.8150   57.8980 C.3       1 ZX7902      0.0000 
     11 CAK        25.2360    4.3010   56.9280 C.3       1 ZX7902      0.0000 
     12 NAL        25.5650    4.6880   55.5510 N.am      1 ZX7902      0.0000 
     13 CAO        24.6640    4.5980   54.5760 C.2       1 ZX7902      0.0000 
     14 OAB        23.5000    4.2450   54.7570 O.2       1 ZX7902      0.0000 
     15 CAP        25.1280    5.0510   53.1860 C.2       1 ZX7902      0.0000 
     16 CAJ        24.2510    5.4840   52.2840 C.2       1 ZX7902      0.0000 
     17 CAQ        24.9370    6.1950   51.3910 C.ar      1 ZX7902      0.0000 
     18 CAH        24.5300    7.0060   50.3350 C.ar      1 ZX7902      0.0000 
     19 CAF        25.4570    7.7770   49.6410 C.ar      1 ZX7902      0.0000 
     20 CAG        26.7990    7.7180   50.0050 C.ar      1 ZX7902      0.0000 
     21 CAI        27.2090    6.9030   51.0560 C.ar      1 ZX7902      0.0000 
     22 CAR        26.2790    6.1440   51.7580 C.ar      1 ZX7902      0.0000 
     23 NAN        26.3690    5.4100   52.8680 N.pl3     1 ZX7902      0.0000 
     24 H          25.0869    4.7663   59.6418 H         1 ZX7902      0.0000 
     25 H          28.0535    4.3366   59.9160 H         1 ZX7902      0.0000 
     26 H          28.1878    6.5265   60.7578 H         1 ZX7902      0.0000 
     27 H          28.3422    6.5284   58.4111 H         1 ZX7902      0.0000 
     28 H          27.2592    4.4429   57.5957 H         1 ZX7902      0.0000 
     29 H          24.2694    4.7171   57.2274 H         1 ZX7902      0.0000 
     30 H          25.1823    3.2123   57.0226 H         1 ZX7902      0.0000 
     31 H          26.5304    5.0295   55.3964 H         1 ZX7902      0.0000 
     32 H          23.3032    5.3161   52.2774 H         1 ZX7902      0.0000 
     33 H          23.5353    7.0350   50.0660 H         1 ZX7902      0.0000 
     34 H          25.1560    8.3804   48.8721 H         1 ZX7902      0.0000 
     35 H          27.4938    8.2816   49.4929 H         1 ZX7902      0.0000 
     36 H          28.2051    6.8622   51.3145 H         1 ZX7902      0.0000 
     37 H          27.1732    5.1857   53.3431 H         1 ZX7902      0.0000 
     38 H          28.0367    8.7491   59.3393 H         1 ZX7902      0.0000 
     39 H          27.3723    8.7145   57.8752 H         1 ZX7902      0.0000 
     40 H          26.4379    8.6724   59.1834 H         1 ZX7902      0.0000 
     41 H          26.1166    2.6071   58.3604 H         1 ZX7902      0.0000 
     42 H          27.7092    4.3475   62.0608 H         1 ZX7902      0.0000 
     43 H          25.9450    6.2057   61.6720 H         1 ZX7902      0.0000 
@<TRIPOS>BOND
     1    2    1 1    
     2   41    1 1    
     3    3    2 1    
     4   10    2 1    
     5   24    2 1    
     6    4    3 1    
     7    5    3 1    
     8   25    3 1    
     9   42    4 1    
    10    6    5 1    
    11    7    5 1    
    12   26    5 1    
    13   43    6 1    
    14    8    7 1    
    15    9    7 1    
    16   27    7 1    
    17   38    8 1    
    18   39    8 1    
    19   40    8 1    
    20   10    9 1    
    21   11   10 1    
    22   28   10 1    
    23   12   11 1    
    24   29   11 1    
    25   30   11 1    
    26   13   12 am   
    27   31   12 1    
    28   14   13 2    
    29   15   13 1    
    30   16   15 2    
    31   23   15 1    
    32   17   16 1    
    33   32   16 1    
    34   18   17 ar   
    35   22   17 ar   
    36   19   18 ar   
    37   33   18 1    
    38   20   19 ar   
    39   34   19 1    
    40   21   20 ar   
    41   35   20 1    
    42   22   21 ar   
    43   36   21 1    
    44   23   22 1    
    45   37   23 1    
@<TRIPOS>SUBSTRUCTURE
     1 ZX7902      1 GROUP   
@<TRIPOS>SET

