#    Name: 3t8m_3T8_1_INTS_M
#    Modification time : Mon Mar 24 19:20:20 2014

@<TRIPOS>MOLECULE
3t8m_3T8_1_INTS_M
   88     0     9     0     0
SMALL
NO_CHARGES


@<TRIPOS>ATOM
      1 CA         13.6360   62.1480   21.3165 C.3       3 GLC5        0.0000 
      2 CA         13.1760   62.6100   23.1590 C.3       9 GLL5        0.0000 
      3 CA         14.0960   61.6860   19.4740 C.3       6 GLP5        0.0000 
      4 CA         14.0830   60.6945   22.4185 C.3       3 GLC5        0.0000 
      5 CA         14.9900   58.7790   21.6780 C.3       6 GLP5        0.0000 
      6 CA         12.2130   62.5340   25.1745 C.3       3 GLC5        0.0000 
      7 CA         11.2500   62.4580   27.1900 C.3       6 GLP5        0.0000 
      8 O          14.7255   61.1960   24.1160 O.2       1 ALC1        0.0000 
      9 O          14.6110   62.3060   23.0680 O.2       7 ALL1        0.0000 
     10 O          14.8400   60.0860   25.1640 O.2       4 ALP1        0.0000 
     11 CA         17.7535   59.0980   22.6950 C.3       3 GLC5        0.0000 
     12 CA         18.6430   60.9270   23.1550 C.3       9 GLL5        0.0000 
     13 CA         16.8640   57.2690   22.2350 C.3       6 GLP5        0.0000 
     14 CA         16.6785   59.7390   24.4700 C.3       3 GLC5        0.0000 
     15 CA         17.3350   61.3880   23.1270 C.3       9 GLL5        0.0000 
     16 CA         16.0220   58.0900   25.8130 C.3       6 GLP5        0.0000 
     17 N          17.8195   58.9175   24.1785 N.am      2 SEC2        0.0000 
     18 N          18.9810   59.8030   23.8290 N.am      8 SEL2        0.0000 
     19 N          16.6580   58.0320   24.5280 N.am      5 SEP2        0.0000 
     20 CA         19.0750   58.8660   25.9215 C.3       3 GLC5        0.0000 
     21 CA         19.9900   59.8790   24.8130 C.3       9 GLL5        0.0000 
     22 CA         18.1600   57.8530   27.0300 C.3       6 GLP5        0.0000 
     23 CA         20.2220   61.8940   25.0150 C.3       3 GLC5        0.0000 
     24 CA         20.4540   63.9090   25.2170 C.3       6 GLP5        0.0000 
     25 CA         23.9070   62.6320   22.7470 C.3       3 GLC5        0.0000 
     26 CA         23.6040   61.1500   21.7290 C.3       9 GLL5        0.0000 
     27 CA         24.2100   64.1140   23.7650 C.3       6 GLP5        0.0000 
     28 N          26.6355   61.0990   22.7930 N.am      2 SEC2        0.0000 
     29 N          25.8170   60.5190   21.5400 N.am      8 SEL2        0.0000 
     30 N          27.4540   61.6790   24.0460 N.am      5 SEP2        0.0000 
     31 CA         27.5175   62.7205   21.0490 C.3       3 GLC5        0.0000 
     32 CA         26.7200   62.1280   19.6690 C.3       9 GLL5        0.0000 
     33 CA         28.3150   63.3130   22.4290 C.3       6 GLP5        0.0000 
     34 CA         23.5910   65.9635   16.3975 C.3       3 GLC5        0.0000 
     35 CA         22.7430   64.8620   18.1260 C.3       9 GLL5        0.0000 
     36 CA         24.4390   67.0650   14.6690 C.3       6 GLP5        0.0000 
     37 CA         21.0385   63.0535   17.0800 C.3       3 GLC5        0.0000 
     38 CA         22.8470   63.5160   17.7660 C.3       9 GLL5        0.0000 
     39 CA         19.2300   62.5910   16.3940 C.3       6 GLP5        0.0000 
     40 CA         22.8615   62.8145   15.7905 C.3       3 GLC5        0.0000 
     41 CA         22.8760   62.1130   13.8150 C.3       6 GLP5        0.0000 
     42 CA         22.0135   61.1690   16.8440 C.3       3 GLC5        0.0000 
     43 CA         23.7950   61.0290   17.9670 C.3       9 GLL5        0.0000 
     44 CA         20.2320   61.3090   15.7210 C.3       6 GLP5        0.0000 
     45 CA         23.3355   61.5710   15.8910 C.3       3 GLC5        0.0000 
     46 CA         22.6325   59.7005   17.2435 C.3       3 GLC5        0.0000 
     47 CA         21.4700   58.3720   16.5200 C.3       6 GLP5        0.0000 
     48 CA         25.1665   60.4860   16.4820 C.3       3 GLC5        0.0000 
     49 CA         26.5380   59.9430   14.9970 C.3       6 GLP5        0.0000 
     50 CA         24.2860   59.2295   18.6615 C.3       3 GLC5        0.0000 
     51 CA         24.7770   57.4300   19.3560 C.3       6 GLP5        0.0000 
     52 N          23.0430   65.9735   15.2720 N.am      2 SEC2        0.0000 
     53 N          22.0660   66.1760   16.2910 N.am      8 SEL2        0.0000 
     54 N          24.0200   65.7710   14.2530 N.am      5 SEP2        0.0000 
     55 CA         19.7040   65.7620   15.7990 C.3       3 GLC5        0.0000 
     56 CA         19.7400   67.1620   17.2810 C.3       9 GLL5        0.0000 
     57 CA         19.6680   64.3620   14.3170 C.3       6 GLP5        0.0000 
     58 CA         19.7335   64.2045   17.8600 C.3       3 GLC5        0.0000 
     59 CA         20.2370   65.8180   19.3260 C.3       9 GLL5        0.0000 
     60 CA         17.0540   70.0640   21.2045 C.3       3 GLC5        0.0000 
     61 CA         18.3570   68.9560   20.2740 C.3       9 GLL5        0.0000 
     62 CA         15.7510   71.1720   22.1350 C.3       6 GLP5        0.0000 
     63 CA         16.0710   60.3747   22.2287 C.3       3 GLC5        0.0000 
     64 CA         16.9690   62.5530   22.4320 C.3       9 GLL5        0.0000 
     65 CA         19.5645   60.8745   20.5525 C.3       3 GLC5        0.0000 
     66 CA         19.2770   62.7980   21.7610 C.3       9 GLL5        0.0000 
     67 CA         19.6660   59.5270   18.9910 C.3       6 GLP5        0.0000 
     68 CA         18.5476   63.6160   23.5380 C.3       3 GLC5        0.0000 
     69 CA         18.7220   64.3800   25.1510 C.3       6 GLP5        0.0000 
     70 CA         18.3555   62.7687   24.1460 C.3       3 GLC5        0.0000 
     71 CA         21.6250   58.1575   25.4835 C.3       3 GLC5        0.0000 
     72 CA         22.5800   56.6510   26.4260 C.3       6 GLP5        0.0000 
     73 CA         20.8095   60.2485   26.3425 C.3       3 GLC5        0.0000 
     74 CA         21.3500   59.4490   24.2690 C.3       9 GLL5        0.0000 
     75 CA         20.9490   60.8330   28.1440 C.3       6 GLP5        0.0000 
     76 CA         22.1825   60.7685   25.2655 C.3       3 GLC5        0.0000 
     77 CA         23.6950   61.8730   25.9900 C.3       6 GLP5        0.0000 
     78 CA         20.7879   62.3984   24.0066 C.3       3 GLC5        0.0000 
     79 CA         21.8700   60.3310   23.1510 C.3       9 GLL5        0.0000 
     80 CA         23.1170   61.0958   24.4700 C.3       3 GLC5        0.0000 
     81 CA         20.6455   60.5768   20.4147 C.3       3 GLC5        0.0000 
     82 CA         21.0980   61.2430   22.4160 C.3       9 GLL5        0.0000 
     83 CA         22.9175   62.8702   22.8017 C.3       3 GLC5        0.0000 
     84 CA         22.4840   58.4105   22.3077 C.3       3 GLC5        0.0000 
     85 CA         23.2080   60.3060   22.7490 C.3       9 GLL5        0.0000 
     86 CA         22.5590   56.7230   21.3860 C.3       6 GLP5        0.0000 
     87 CA         24.3432   63.9515   21.7293 C.3       3 GLC5        0.0000 
     88 CA         24.5210   63.1150   19.5100 C.3       9 GLL5        0.0000 
@<TRIPOS>BOND
@<TRIPOS>SUBSTRUCTURE
     1 ALC1        8 GROUP        1 X    ALC  0     ROOT ALC X 1
     2 SEC2       17 GROUP        1 X    SEC  0     **** SEC X 2
     3 GLC5        1 GROUP        1 X    GLC  0     **** GLC X 6
     4 ALP1       10 GROUP        1 Y    ALP  0     ROOT ALP Y 8
     5 SEP2       19 GROUP        1 Y    SEP  0     **** SEP Y 9
     6 GLP5        3 GROUP        1 Y    GLP  0     **** GLP Y 13
     7 ALL1        9 GROUP        1 Z    ALL  0     ROOT ALL Z 15
     8 SEL2       18 GROUP        1 Z    SEL  0     **** SEL Z 16
     9 GLL5        2 GROUP        1 Z    GLL  0     **** GLL Z 20
@<TRIPOS>SET

