#    Name: 3t8m_3T8_1_ligand
#    Modification time : Mon Mar 24 19:20:21 2014

@<TRIPOS>MOLECULE
3t8m_3T8_1_ligand
   68    72     1     0     0
SMALL
NO_CHARGES


@<TRIPOS>ATOM
      1 C1         13.1760   62.6100   23.1590 C.3       1 3T81        0.0000 
      2 N2         14.6110   62.3060   23.0680 N.am      1 3T81        0.0000 
      3 C3         15.5580   63.0380   22.4090 C.2       1 3T81        0.0000 
      4 O4         15.3070   64.0690   21.7980 O.2       1 3T81        0.0000 
      5 C5         16.9690   62.5530   22.4320 C.ar      1 3T81        0.0000 
      6 C6         17.9700   63.2590   21.7460 C.ar      1 3T81        0.0000 
      7 C7         19.2770   62.7980   21.7610 C.ar      1 3T81        0.0000 
      8 C8         19.6490   61.6460   22.4670 C.ar      1 3T81        0.0000 
      9 C9         18.6430   60.9270   23.1550 C.ar      1 3T81        0.0000 
     10 C10        17.3350   61.3880   23.1270 C.ar      1 3T81        0.0000 
     11 O11        18.9810   59.8030   23.8290 O.3       1 3T81        0.0000 
     12 C12        19.9900   59.8790   24.8130 C.3       1 3T81        0.0000 
     13 C13        21.3500   59.4490   24.2690 C.3       1 3T81        0.0000 
     14 C14        21.8700   60.3310   23.1510 C.2       1 3T81        0.0000 
     15 C15        21.0980   61.2430   22.4160 C.2       1 3T81        0.0000 
     16 S16        22.1520   62.0100   21.2610 S.3       1 3T81        0.0000 
     17 C17        23.6040   61.1500   21.7290 C.2       1 3T81        0.0000 
     18 C18        23.2080   60.3060   22.7490 C.2       1 3T81        0.0000 
     19 C19        24.9670   61.2800   21.1350 C.2       1 3T81        0.0000 
     20 O20        25.8170   60.5190   21.5400 O.2       1 3T81        0.0000 
     21 N21        25.3570   62.1690   20.1490 N.am      1 3T81        0.0000 
     22 C22        26.7200   62.1280   19.6690 C.3       1 3T81        0.0000 
     23 C23        24.5210   63.1150   19.5100 C.ar      1 3T81        0.0000 
     24 C24        24.4320   64.4630   19.8770 C.ar      1 3T81        0.0000 
     25 C25        23.5620   65.3120   19.1930 C.ar      1 3T81        0.0000 
     26 C26        22.7430   64.8620   18.1260 C.ar      1 3T81        0.0000 
     27 C27        22.8470   63.5160   17.7660 C.ar      1 3T81        0.0000 
     28 C28        23.7280   62.6870   18.4410 C.ar      1 3T81        0.0000 
     29 CL29       23.7950   61.0290   17.9670 Cl        1 3T81        0.0000 
     30 C30        21.8070   65.7890   17.4090 C.2       1 3T81        0.0000 
     31 O31        22.0660   66.1760   16.2910 O.2       1 3T81        0.0000 
     32 N32        20.6560   66.2390   17.9830 N.am      1 3T81        0.0000 
     33 C33        19.7400   67.1620   17.2810 C.3       1 3T81        0.0000 
     34 C34        19.4450   68.3540   18.2060 C.3       1 3T81        0.0000 
     35 N35        18.8180   67.8460   19.4270 N.4       1 3T81        0.0000 
     36 C36        19.7980   67.0270   20.1590 C.3       1 3T81        0.0000 
     37 C37        20.2370   65.8180   19.3260 C.3       1 3T81        0.0000 
     38 C38        18.3570   68.9560   20.2740 C.3       1 3T81        0.0000 
     39 H          14.9040   61.4165   23.5808 H         1 3T81        0.0000 
     40 H          17.7258   64.1158   21.2356 H         1 3T81        0.0000 
     41 H          20.0088   63.3183   21.2343 H         1 3T81        0.0000 
     42 H          16.5955   60.8594   23.6347 H         1 3T81        0.0000 
     43 H          19.7656   59.2341   25.6850 H         1 3T81        0.0000 
     44 H          20.1041   60.9071   25.2087 H         1 3T81        0.0000 
     45 H          21.2747   58.4099   23.9058 H         1 3T81        0.0000 
     46 H          22.0789   59.4460   25.0973 H         1 3T81        0.0000 
     47 H          23.8695   59.6787   23.2011 H         1 3T81        0.0000 
     48 H          25.0053   64.8228   20.6463 H         1 3T81        0.0000 
     49 H          23.5045   66.3135   19.4680 H         1 3T81        0.0000 
     50 H          22.2688   63.1468   17.0013 H         1 3T81        0.0000 
     51 H          18.8031   66.6707   17.0454 H         1 3T81        0.0000 
     52 H          20.1936   67.5380   16.3712 H         1 3T81        0.0000 
     53 H          18.7851   69.0363   17.6804 H         1 3T81        0.0000 
     54 H          20.3827   68.8540   18.4249 H         1 3T81        0.0000 
     55 H          17.9704   67.2217   19.1604 H         1 3T81        0.0000 
     56 H          19.3694   66.6590   21.0978 H         1 3T81        0.0000 
     57 H          20.6887   67.6166   20.4031 H         1 3T81        0.0000 
     58 H          21.0586   65.3211   19.8510 H         1 3T81        0.0000 
     59 H          19.3972   65.1186   19.2692 H         1 3T81        0.0000 
     60 H          13.0109   63.4974   23.5894 H         1 3T81        0.0000 
     61 H          12.7441   62.6366   22.2575 H         1 3T81        0.0000 
     62 H          12.6851   61.9264   23.6991 H         1 3T81        0.0000 
     63 H          27.3773   62.3029   20.4020 H         1 3T81        0.0000 
     64 H          26.9489   61.2372   19.2765 H         1 3T81        0.0000 
     65 H          26.8843   62.8123   18.9586 H         1 3T81        0.0000 
     66 H          19.1111   69.5541   20.5453 H         1 3T81        0.0000 
     67 H          17.6843   69.5273   19.8039 H         1 3T81        0.0000 
     68 H          17.9263   68.6276   21.1147 H         1 3T81        0.0000 
@<TRIPOS>BOND
     1    2    1 1    
     2   60    1 1    
     3   61    1 1    
     4   62    1 1    
     5    3    2 am   
     6   39    2 1    
     7    4    3 2    
     8    5    3 1    
     9    6    5 ar   
    10   10    5 ar   
    11    7    6 ar   
    12   40    6 1    
    13    8    7 ar   
    14   41    7 1    
    15    9    8 ar   
    16   15    8 1    
    17   10    9 ar   
    18   11    9 1    
    19   42   10 1    
    20   12   11 1    
    21   13   12 1    
    22   43   12 1    
    23   44   12 1    
    24   14   13 1    
    25   45   13 1    
    26   46   13 1    
    27   15   14 2    
    28   18   14 1    
    29   16   15 1    
    30   17   16 1    
    31   18   17 2    
    32   19   17 1    
    33   47   18 1    
    34   20   19 2    
    35   21   19 am   
    36   22   21 1    
    37   23   21 1    
    38   63   22 1    
    39   64   22 1    
    40   65   22 1    
    41   24   23 ar   
    42   28   23 ar   
    43   25   24 ar   
    44   48   24 1    
    45   26   25 ar   
    46   49   25 1    
    47   27   26 ar   
    48   30   26 1    
    49   28   27 ar   
    50   50   27 1    
    51   29   28 1    
    52   31   30 2    
    53   32   30 am   
    54   33   32 1    
    55   37   32 1    
    56   34   33 1    
    57   51   33 1    
    58   52   33 1    
    59   35   34 1    
    60   53   34 1    
    61   54   34 1    
    62   36   35 1    
    63   38   35 1    
    64   55   35 1    
    65   37   36 1    
    66   56   36 1    
    67   57   36 1    
    68   58   37 1    
    69   59   37 1    
    70   66   38 1    
    71   67   38 1    
    72   68   38 1    
@<TRIPOS>SUBSTRUCTURE
     1 3T81        1 GROUP   
@<TRIPOS>SET

