#    Name: 1ove_358_1_INTS_M
#    Modification time : Mon Mar 24 20:37:29 2014

@<TRIPOS>MOLECULE
1ove_358_1_INTS_M
   94     0     9     0     0
SMALL
NO_CHARGES


@<TRIPOS>ATOM
      1 CA         27.1910   12.0175   28.4630 C.3       3 GLC5        0.0000 
      2 CA         25.4610   11.1920   29.3270 C.3       9 GLL5        0.0000 
      3 CA         28.9210   12.8430   27.5990 C.3       6 GLP5        0.0000 
      4 CA         24.7510   10.4970   27.7935 C.3       3 GLC5        0.0000 
      5 CA         24.0410    9.8020   26.2600 C.3       6 GLP5        0.0000 
      6 CA         23.7470   11.9425   28.2040 C.3       3 GLC5        0.0000 
      7 CA         22.0330   12.6930   27.0810 C.3       6 GLP5        0.0000 
      8 CA         25.1255   10.0635   35.6735 C.3       3 GLC5        0.0000 
      9 CA         25.6630    9.7640   33.6410 C.3       9 GLL5        0.0000 
     10 CA         24.5880   10.3630   37.7060 C.3       6 GLP5        0.0000 
     11 CA         23.3090    9.3300   35.6815 C.3       3 GLC5        0.0000 
     12 CA         22.9370    9.4910   33.7730 C.3       9 GLL5        0.0000 
     13 CA         23.6810    9.1690   37.5900 C.3       6 GLP5        0.0000 
     14 CA         21.6390   10.5945   34.8310 C.3       3 GLC5        0.0000 
     15 CA         20.3410   11.6980   35.8890 C.3       6 GLP5        0.0000 
     16 CA         21.0770    8.8895   33.5895 C.3       3 GLC5        0.0000 
     17 CA         19.2170    8.2880   33.4060 C.3       6 GLP5        0.0000 
     18 N          23.0525    6.9125   29.9165 N.am      1 SEC2        0.0000 
     19 N          23.1460    8.2470   30.1610 N.am      7 SEL2        0.0000 
     20 N          22.9590    5.5780   29.6720 N.am      4 SEP2        0.0000 
     21 N          24.2670    7.2255   30.3515 N.am      1 SEC2        0.0000 
     22 N          25.3880    6.2040   30.5420 N.am      4 SEP2        0.0000 
     23 CA         22.0385    7.9615   28.2015 C.3       3 GLC5        0.0000 
     24 CA         21.1570    9.4630   29.5990 C.3       9 GLL5        0.0000 
     25 CA         22.9200    6.4600   26.8040 C.3       6 GLP5        0.0000 
     26 CA         22.5990    9.6325   27.9295 C.3       3 GLC5        0.0000 
     27 CA         21.5950   11.0780   28.3400 C.3       3 GLC5        0.0000 
     28 CA         20.3910   14.1180   33.5680 C.3       3 GLC5        0.0000 
     29 CA         20.8030   14.0820   31.3600 C.3       9 GLL5        0.0000 
     30 CA         19.9790   14.1540   35.7760 C.3       6 GLP5        0.0000 
     31 CA         21.0695   12.7735   29.0570 C.3       3 GLC5        0.0000 
     32 CA         20.1060   12.8540   31.0330 C.3       9 GLL5        0.0000 
     33 CA         15.1405   13.7585   28.1850 C.3       3 GLC5        0.0000 
     34 CA         16.4870   13.5510   29.7500 C.3       9 GLL5        0.0000 
     35 CA         13.7940   13.9660   26.6200 C.3       6 GLP5        0.0000 
     36 CA         12.6315   11.9785   30.1230 C.3       3 GLC5        0.0000 
     37 CA         14.4260   12.8280   30.7190 C.3       9 GLL5        0.0000 
     38 CA         10.8370   11.1290   29.5270 C.3       6 GLP5        0.0000 
     39 CA         19.3325   11.6275   34.4195 C.3       3 GLC5        0.0000 
     40 CA         18.3240   11.5570   32.9500 C.3       9 GLL5        0.0000 
     41 CA         24.2520   14.5310   32.7850 C.3       3 GLC5        0.0000 
     42 CA         22.9910   15.5020   31.9050 C.3       9 GLL5        0.0000 
     43 CA         25.5130   13.5600   33.6650 C.3       6 GLP5        0.0000 
     44 OD1        22.6980   18.4780   29.5325 O.co2     2 ASC3        0.0000 
     45 OD1        23.7960   18.1860   30.8620 O.co2     8 ASL3        0.0000 
     46 OD1        21.6000   18.7700   28.2030 O.co2     5 ASP3        0.0000 
     47 CA         23.1390   16.0945   28.2995 C.3       3 GLC5        0.0000 
     48 CA         24.0150   17.0570   29.9620 C.3       9 GLL5        0.0000 
     49 CA         22.2630   15.1320   26.6370 C.3       6 GLP5        0.0000 
     50 CA         25.2235   15.0610   31.8430 C.3       3 GLC5        0.0000 
     51 CA         24.0860   15.7500   30.7630 C.3       9 GLL5        0.0000 
     52 CA         26.3610   14.3720   32.9230 C.3       6 GLP5        0.0000 
     53 CA         27.2305    9.7340   29.9290 C.3       3 GLC5        0.0000 
     54 CA         25.5450   10.6500   30.9290 C.3       9 GLL5        0.0000 
     55 CA         28.9580    8.5470   29.7300 C.3       6 GLP5        0.0000 
     56 CA         26.6632    8.2873   31.8700 C.3       3 GLC5        0.0000 
     57 CA         26.8120   10.5510   31.5650 C.3       9 GLL5        0.0000 
     58 CA         26.4870    6.2470   31.4930 C.3       6 GLP5        0.0000 
     59 CA         27.8987    9.4372   30.9885 C.3       3 GLC5        0.0000 
     60 CA         26.8670   10.1040   32.9290 C.3       9 GLL5        0.0000 
     61 CA         25.7620    8.0340   32.3960 C.3       3 GLC5        0.0000 
     62 CA         23.2235    7.8537   33.4785 C.3       3 GLC5        0.0000 
     63 CA         24.4110    9.8780   32.9570 C.3       9 GLL5        0.0000 
     64 CA         22.7730    6.0230   33.5920 C.3       6 GLP5        0.0000 
     65 CA         19.9372    9.0738   31.7308 C.3       3 GLC5        0.0000 
     66 CA         19.5767    9.6103   28.3648 C.3       3 GLC5        0.0000 
     67 CA         20.1580   10.2560   30.5120 C.3       9 GLL5        0.0000 
     68 CA         18.4960    9.3610   26.6740 C.3       6 GLP5        0.0000 
     69 CA         18.7728    9.4947   29.9997 C.3       3 GLC5        0.0000 
     70 CA         16.8880    9.1300   29.9440 C.3       6 GLP5        0.0000 
     71 CA         22.1670   12.4950   29.1374 C.3       3 GLC5        0.0000 
     72 CA         20.9360   11.6600   30.8950 C.3       9 GLL5        0.0000 
     73 CA         17.4535   14.7500   31.5710 C.3       3 GLC5        0.0000 
     74 CA         18.6070   12.9010   30.8860 C.3       9 GLL5        0.0000 
     75 CA         16.6390   16.2620   32.7970 C.3       6 GLP5        0.0000 
     76 CA         17.4275   12.1035   28.1765 C.3       3 GLC5        0.0000 
     77 CA         17.9290   13.5750   29.8040 C.3       9 GLL5        0.0000 
     78 CA         17.6470   10.6440   26.5760 C.3       6 GLP5        0.0000 
     79 CA         16.3802   14.7330   31.5287 C.3       3 GLC5        0.0000 
     80 CA         16.5048   11.1670   30.1023 C.3       3 GLC5        0.0000 
     81 CA         15.7560   12.8570   30.7710 C.3       9 GLL5        0.0000 
     82 CA         13.8770   13.8442   29.7055 C.3       3 GLC5        0.0000 
     83 CA         12.6630   14.8460   28.6660 C.3       6 GLP5        0.0000 
     84 CA         13.9203   12.7479   32.0340 C.3       3 GLC5        0.0000 
     85 CA         16.4020   12.1950   31.8430 C.3       9 GLL5        0.0000 
     86 CA         12.0940   12.9770   32.7740 C.3       6 GLP5        0.0000 
     87 CA         18.6387   10.0877   32.9145 C.3       3 GLC5        0.0000 
     88 CA         17.7970   12.2180   31.8960 C.3       9 GLL5        0.0000 
     89 CA         16.8594   12.9674   33.6774 C.3       3 GLC5        0.0000 
     90 CA         16.0070   14.0530   34.9450 C.3       6 GLP5        0.0000 
     91 CA         17.3505   10.5486   31.1138 C.3       3 GLC5        0.0000 
     92 CA         22.9903   18.8265   33.2963 C.3       3 GLC5        0.0000 
     93 CA         22.1620   16.8360   32.2690 C.3       9 GLL5        0.0000 
     94 CA         23.6750   20.1620   34.7390 C.3       6 GLP5        0.0000 
@<TRIPOS>BOND
@<TRIPOS>SUBSTRUCTURE
     1 SEC2       18 GROUP        1 X    SEC  0     ROOT SEC X 2
     2 ASC3       44 GROUP        1 X    ASC  0     **** ASC X 3
     3 GLC5        1 GROUP        1 X    GLC  0     **** GLC X 6
     4 SEP2       20 GROUP        1 Y    SEP  0     ROOT SEP Y 9
     5 ASP3       46 GROUP        1 Y    ASP  0     **** ASP Y 10
     6 GLP5        3 GROUP        1 Y    GLP  0     **** GLP Y 13
     7 SEL2       19 GROUP        1 Z    SEL  0     ROOT SEL Z 16
     8 ASL3       45 GROUP        1 Z    ASL  0     **** ASL Z 17
     9 GLL5        2 GROUP        1 Z    GLL  0     **** GLL Z 20
@<TRIPOS>SET

