#    Name: 1ove_358_1_ligand
#    Modification time : Mon Mar 24 20:37:29 2014

@<TRIPOS>MOLECULE
1ove_358_1_ligand
   54    58     1     0     0
SMALL
NO_CHARGES


@<TRIPOS>ATOM
      1 CL1        25.4610   11.1920   29.3270 Cl        1 358401      0.0000 
      2 C1         25.5450   10.6500   30.9290 C.ar      1 358401      0.0000 
      3 C2         26.8120   10.5510   31.5650 C.ar      1 358401      0.0000 
      4 C3         26.8670   10.1040   32.9290 C.ar      1 358401      0.0000 
      5 C4         25.6630    9.7640   33.6410 C.ar      1 358401      0.0000 
      6 C5         24.4110    9.8780   32.9570 C.ar      1 358401      0.0000 
      7 CL2        22.9370    9.4910   33.7730 Cl        1 358401      0.0000 
      8 C6         24.3230   10.3190   31.5960 C.ar      1 358401      0.0000 
      9 N1         23.0540   10.4210   30.9550 N.am      1 358401      0.0000 
     10 C7         22.5670    9.3050   30.2650 C.2       1 358401      0.0000 
     11 O1         23.1460    8.2470   30.1610 O.2       1 358401      0.0000 
     12 C8         21.1570    9.4630   29.5990 C.3       1 358401      0.0000 
     13 C9         20.1580   10.2560   30.5120 C.3       1 358401      0.0000 
     14 C10        20.9360   11.6600   30.8950 C.ar      1 358401      0.0000 
     15 C11        22.3300   11.6460   31.0720 C.ar      1 358401      0.0000 
     16 C12        22.9690   12.9410   31.4040 C.ar      1 358401      0.0000 
     17 C13        22.2470   14.1610   31.5460 C.ar      1 358401      0.0000 
     18 C14        20.8030   14.0820   31.3600 C.ar      1 358401      0.0000 
     19 C15        20.1060   12.8540   31.0330 C.ar      1 358401      0.0000 
     20 C16        18.6070   12.9010   30.8860 C.ar      1 358401      0.0000 
     21 C17        17.9290   13.5750   29.8040 C.ar      1 358401      0.0000 
     22 C18        16.4870   13.5510   29.7500 C.ar      1 358401      0.0000 
     23 C19        15.7560   12.8570   30.7710 C.ar      1 358401      0.0000 
     24 F1         14.4260   12.8280   30.7190 F         1 358401      0.0000 
     25 C20        16.4020   12.1950   31.8430 C.ar      1 358401      0.0000 
     26 C21        17.7970   12.2180   31.8960 C.ar      1 358401      0.0000 
     27 F2         18.3240   11.5570   32.9500 F         1 358401      0.0000 
     28 C22        22.9910   15.5020   31.9050 C.3       1 358401      0.0000 
     29 C23        22.1620   16.8360   32.2690 C.3       1 358401      0.0000 
     30 C24        22.4490   18.1460   31.4380 C.3       1 358401      0.0000 
     31 N2         23.7960   18.1860   30.8620 N.4       1 358401      0.0000 
     32 C25        24.0150   17.0570   29.9620 C.3       1 358401      0.0000 
     33 C26        24.0860   15.7500   30.7630 C.3       1 358401      0.0000 
     34 H          27.6587   10.7879   31.0751 H         1 358401      0.0000 
     35 H          27.7667   10.0263   33.3985 H         1 358401      0.0000 
     36 H          25.7045    9.4550   34.5935 H         1 358401      0.0000 
     37 H          20.7473    8.4762   29.4069 H         1 358401      0.0000 
     38 H          21.2705    9.9954   28.6598 H         1 358401      0.0000 
     39 H          19.9892    9.7391   31.4090 H         1 358401      0.0000 
     40 H          19.2948   10.5150   29.9752 H         1 358401      0.0000 
     41 H          23.9943   12.9349   31.5351 H         1 358401      0.0000 
     42 H          20.2512   14.9481   31.4676 H         1 358401      0.0000 
     43 H          18.4562   14.0560   29.0956 H         1 358401      0.0000 
     44 H          16.0017   14.0184   29.0008 H         1 358401      0.0000 
     45 H          15.8567   11.7184   32.5505 H         1 358401      0.0000 
     46 H          23.6272   15.2649   32.8176 H         1 358401      0.0000 
     47 H          22.3400   17.0516   33.3416 H         1 358401      0.0000 
     48 H          21.0852   16.5891   32.1790 H         1 358401      0.0000 
     49 H          22.2796   18.9976   32.1168 H         1 358401      0.0000 
     50 H          21.6773   18.2010   30.6531 H         1 358401      0.0000 
     51 H          24.9527   17.1692   29.4120 H         1 358401      0.0000 
     52 H          23.2008   16.9677   29.2385 H         1 358401      0.0000 
     53 H          24.0254   14.8845   30.0649 H         1 358401      0.0000 
     54 H          25.0840   15.6684   31.2502 H         1 358401      0.0000 
@<TRIPOS>BOND
     1    2    1 1    
     2    3    2 ar   
     3    8    2 ar   
     4    4    3 ar   
     5   34    3 1    
     6    5    4 ar   
     7   35    4 1    
     8    6    5 ar   
     9   36    5 1    
    10    7    6 1    
    11    8    6 ar   
    12    9    8 1    
    13   10    9 am   
    14   15    9 1    
    15   11   10 2    
    16   12   10 1    
    17   13   12 1    
    18   37   12 1    
    19   38   12 1    
    20   14   13 1    
    21   39   13 1    
    22   40   13 1    
    23   15   14 ar   
    24   19   14 ar   
    25   16   15 ar   
    26   17   16 ar   
    27   41   16 1    
    28   18   17 ar   
    29   28   17 1    
    30   19   18 ar   
    31   42   18 1    
    32   20   19 1    
    33   21   20 ar   
    34   26   20 ar   
    35   22   21 ar   
    36   43   21 1    
    37   23   22 ar   
    38   44   22 1    
    39   24   23 1    
    40   25   23 ar   
    41   26   25 ar   
    42   45   25 1    
    43   27   26 1    
    44   29   28 1    
    45   33   28 1    
    46   46   28 1    
    47   30   29 1    
    48   47   29 1    
    49   48   29 1    
    50   31   30 1    
    51   49   30 1    
    52   50   30 1    
    53   32   31 1    
    54   33   32 1    
    55   51   32 1    
    56   52   32 1    
    57   53   33 1    
    58   54   33 1    
@<TRIPOS>SUBSTRUCTURE
     1 358401      1 GROUP   
@<TRIPOS>SET

