#    Name: 2hwq_DRY_1_INTS_M
#    Modification time : Tue Mar 25 17:08:34 2014

@<TRIPOS>MOLECULE
2hwq_DRY_1_INTS_M
   83     0     3     0     0
SMALL
NO_CHARGES


@<TRIPOS>ATOM
      1 CA        -36.6190    7.8145   45.9875 C.3       1 GLC5        0.0000 
      2 CA        -34.5630    7.2620   46.1340 C.3       3 GLL5        0.0000 
      3 CA        -38.6750    8.3670   45.8410 C.3       2 GLP5        0.0000 
      4 CA        -34.5265    4.2330   45.3660 C.3       1 GLC5        0.0000 
      5 CA        -34.4150    6.3900   45.0570 C.3       3 GLL5        0.0000 
      6 CA        -34.6380    2.0760   45.6750 C.3       2 GLP5        0.0000 
      7 CA        -37.4185    1.6255   36.9515 C.3       1 GLC5        0.0000 
      8 CA        -36.9210    3.3280   37.7470 C.3       3 GLL5        0.0000 
      9 CA        -37.9160   -0.0770   36.1560 C.3       2 GLP5        0.0000 
     10 CA        -37.5670    6.0205   37.9915 C.3       1 GLC5        0.0000 
     11 CA        -36.9530    4.6170   36.8190 C.3       3 GLL5        0.0000 
     12 CA        -38.1810    7.4240   39.1640 C.3       2 GLP5        0.0000 
     13 CA        -36.7725    3.6825   33.2745 C.3       1 GLC5        0.0000 
     14 CA        -36.8350    4.1770   35.3520 C.3       3 GLL5        0.0000 
     15 CA        -36.7100    3.1880   31.1970 C.3       2 GLP5        0.0000 
     16 CA        -38.3500    2.5515   35.1595 C.3       1 GLC5        0.0000 
     17 CA        -39.8650    0.9260   34.9670 C.3       2 GLP5        0.0000 
     18 CA        -38.7085    4.0380   43.7645 C.3       1 GLC5        0.0000 
     19 CA        -38.0890    4.3830   41.8280 C.3       3 GLL5        0.0000 
     20 CA        -39.3280    3.6930   45.7010 C.3       2 GLP5        0.0000 
     21 CA        -40.5780    4.0035   42.4465 C.3       1 GLC5        0.0000 
     22 CA        -39.0160    3.8400   40.9370 C.3       3 GLL5        0.0000 
     23 CA        -42.1400    4.1670   43.9560 C.3       2 GLP5        0.0000 
     24 CA        -41.6880    2.5515   40.9955 C.3       1 GLC5        0.0000 
     25 CA        -40.9200    3.1860   39.1180 C.3       3 GLL5        0.0000 
     26 CA        -42.4560    1.9170   42.8730 C.3       2 GLP5        0.0000 
     27 CA        -41.5860    4.1220   40.0990 C.3       1 GLC5        0.0000 
     28 CA        -42.2520    5.0580   41.0800 C.3       2 GLP5        0.0000 
     29 CA        -40.8205    2.1325   36.4080 C.3       1 GLC5        0.0000 
     30 CA        -41.7760    3.3390   37.8490 C.3       3 GLL5        0.0000 
     31 CA        -41.9450    1.1710   37.6100 C.3       1 GLC5        0.0000 
     32 CA        -42.1140   -0.9970   37.3710 C.3       2 GLP5        0.0000 
     33 CA        -43.0405    3.5780   38.7390 C.3       1 GLC5        0.0000 
     34 CA        -44.3050    3.8170   39.6290 C.3       2 GLP5        0.0000 
     35 CA        -42.6795    2.7975   35.9510 C.3       1 GLC5        0.0000 
     36 CA        -43.5830    2.2560   34.0530 C.3       2 GLP5        0.0000 
     37 CA        -43.4650    6.6085   37.6720 C.3       1 GLC5        0.0000 
     38 CA        -42.1590    4.8040   37.6030 C.3       3 GLL5        0.0000 
     39 CA        -44.7710    8.4130   37.7410 C.3       2 GLP5        0.0000 
     40 CA        -43.6165    4.4335   37.9635 C.3       1 GLC5        0.0000 
     41 CA        -45.0740    4.0630   38.3240 C.3       2 GLP5        0.0000 
     42 CA        -43.0330    4.7610   35.5880 C.3       1 GLC5        0.0000 
     43 CA        -43.9070    4.7180   33.5730 C.3       2 GLP5        0.0000 
     44 CA        -40.3285    2.8220   35.2475 C.3       1 GLC5        0.0000 
     45 CA        -40.7920    4.7180   35.5280 C.3       3 GLL5        0.0000 
     46 CA        -39.6000   11.6400   35.4340 C.3       1 GLC5        0.0000 
     47 CA        -38.3730   10.2540   34.4670 C.3       3 GLL5        0.0000 
     48 CA        -40.8270   13.0260   36.4010 C.3       2 GLP5        0.0000 
     49 CA        -37.7560    9.3650   36.2945 C.3       1 GLC5        0.0000 
     50 CA        -37.1390    8.4760   38.1220 C.3       2 GLP5        0.0000 
     51 CA        -36.9755   11.6290   35.3545 C.3       1 GLC5        0.0000 
     52 CA        -35.5780   13.0040   36.2420 C.3       2 GLP5        0.0000 
     53 CA        -33.3001    8.4031   42.6186 C.3       1 GLC5        0.0000 
     54 CA        -32.8770    7.9420   44.0210 C.3       3 GLL5        0.0000 
     55 CA        -33.3380    9.2530   40.9600 C.3       2 GLP5        0.0000 
     56 CA        -33.8323    7.1848   41.0960 C.3       1 GLC5        0.0000 
     57 CA        -34.5020    5.2790   41.8890 C.3       3 GLL5        0.0000 
     58 CA        -35.1345    6.4157   39.1390 C.3       1 GLC5        0.0000 
     59 CA        -35.0950    4.4450   39.6910 C.3       3 GLL5        0.0000 
     60 CA        -35.6460    8.1320   38.1450 C.3       2 GLP5        0.0000 
     61 CA        -32.9620    4.6372   39.0550 C.3       1 GLC5        0.0000 
     62 CA        -31.3010    4.5750   37.9770 C.3       2 GLP5        0.0000 
     63 CA        -37.5260    5.7008   39.4057 C.3       1 GLC5        0.0000 
     64 CA        -36.4110    4.2500   40.1030 C.3       3 GLL5        0.0000 
     65 CA        -37.8065    5.9545   40.3920 C.3       1 GLC5        0.0000 
     66 CA        -36.7750    4.5870   41.4120 C.3       3 GLL5        0.0000 
     67 CA        -38.0811    6.0947   42.6559 C.3       1 GLC5        0.0000 
     68 CA        -38.9680    7.5760   43.4690 C.3       2 GLP5        0.0000 
     69 CA        -36.5226    2.7015   42.1786 C.3       1 GLC5        0.0000 
     70 CA        -35.8230    0.9380   42.9530 C.3       2 GLP5        0.0000 
     71 CA        -38.5060    5.5477   39.7250 C.3       1 GLC5        0.0000 
     72 CA        -39.0915    1.6218   40.9375 C.3       1 GLC5        0.0000 
     73 CA        -38.6460    3.5030   39.6350 C.3       3 GLL5        0.0000 
     74 CA        -39.3520   -0.4280   41.5890 C.3       2 GLP5        0.0000 
     75 CA        -40.4256    4.4326   40.7944 C.3       1 GLC5        0.0000 
     76 CA        -42.1803    4.9325   34.3595 C.3       1 GLC5        0.0000 
     77 CA        -39.4073    7.0815   37.5148 C.3       1 GLC5        0.0000 
     78 CA        -40.2380    6.7960   35.2920 C.3       3 GLL5        0.0000 
     79 CA        -38.5160    8.5405   36.7060 C.3       1 GLC5        0.0000 
     80 CA        -39.7440    8.0370   34.9080 C.3       3 GLL5        0.0000 
     81 CA        -39.6312    7.9303   38.0872 C.3       1 GLC5        0.0000 
     82 CA        -41.3280    7.8140   37.2040 C.3       3 GLL5        0.0000 
     83 CA        -42.8889    8.2833   37.2801 C.3       1 GLC5        0.0000 
@<TRIPOS>BOND
@<TRIPOS>SUBSTRUCTURE
     1 GLC5        1 GROUP        1 X    GLC  0     ROOT GLC X 6
     2 GLP5        3 GROUP        1 Y    GLP  0     ROOT GLP Y 13
     3 GLL5        2 GROUP        1 Z    GLL  0     ROOT GLL Z 20
@<TRIPOS>SET

