#    Name: 2hwq_DRY_1_ligand
#    Modification time : Tue Mar 25 17:08:34 2014

@<TRIPOS>MOLECULE
2hwq_DRY_1_ligand
   69    73     1     0     0
SMALL
NO_CHARGES


@<TRIPOS>ATOM
      1 CAO       -32.8770    7.9420   44.0210 C.ar      1 DRY1101     0.0000 
      2 CAR       -33.0220    8.8130   45.0980 C.ar      1 DRY1101     0.0000 
      3 CAQ       -33.8650    8.4720   46.1530 C.ar      1 DRY1101     0.0000 
      4 CAP       -34.5630    7.2620   46.1340 C.ar      1 DRY1101     0.0000 
      5 CAS       -34.4150    6.3900   45.0570 C.ar      1 DRY1101     0.0000 
      6 CAT       -33.5750    6.7290   43.9950 C.ar      1 DRY1101     0.0000 
      7 CAU       -33.3690    5.7710   42.8140 C.2       1 DRY1101     0.0000 
      8 OBH       -32.2200    5.3530   42.6030 O.2       1 DRY1101     0.0000 
      9 CAV       -34.5020    5.2790   41.8890 C.ar      1 DRY1101     0.0000 
     10 CBA       -35.8240    5.1010   42.3030 C.ar      1 DRY1101     0.0000 
     11 CAW       -34.1510    4.9540   40.5750 C.ar      1 DRY1101     0.0000 
     12 CAZ       -35.0950    4.4450   39.6910 C.ar      1 DRY1101     0.0000 
     13 CAY       -36.4110    4.2500   40.1030 C.ar      1 DRY1101     0.0000 
     14 CBD       -37.3310    3.7050   39.1920 C.ar      1 DRY1101     0.0000 
     15 CBE       -36.9210    3.3280   37.7470 C.3       1 DRY1101     0.0000 
     16 CBF       -36.9530    4.6170   36.8190 C.3       1 DRY1101     0.0000 
     17 CBG       -36.8350    4.1770   35.3520 C.3       1 DRY1101     0.0000 
     18 CAX       -36.7750    4.5870   41.4120 C.ar      1 DRY1101     0.0000 
     19 CBB       -38.0890    4.3830   41.8280 C.ar      1 DRY1101     0.0000 
     20 CBC       -39.0160    3.8400   40.9370 C.ar      1 DRY1101     0.0000 
     21 CAE       -38.6460    3.5030   39.6350 C.ar      1 DRY1101     0.0000 
     22 OAD       -39.5390    2.9620   38.7510 O.3       1 DRY1101     0.0000 
     23 CAC       -40.9200    3.1860   39.1180 C.3       1 DRY1101     0.0000 
     24 CAB       -41.7760    3.3390   37.8490 C.3       1 DRY1101     0.0000 
     25 CAA       -42.1590    4.8040   37.6030 C.3       1 DRY1101     0.0000 
     26 NAM       -41.3370    5.3950   36.5390 N.pl3     1 DRY1101     0.0000 
     27 CAN       -40.7920    4.7180   35.5280 C.2       1 DRY1101     0.0000 
     28 CAF       -40.1150    5.5760   34.7640 C.2       1 DRY1101     0.0000 
     29 CAG       -40.2380    6.7960   35.2920 C.ar      1 DRY1101     0.0000 
     30 CAL       -39.7440    8.0370   34.9080 C.ar      1 DRY1101     0.0000 
     31 CAH       -41.0290    6.6820   36.4390 C.ar      1 DRY1101     0.0000 
     32 CAK       -41.3280    7.8140   37.2040 C.ar      1 DRY1101     0.0000 
     33 CAJ       -40.8350    9.0590   36.8170 C.ar      1 DRY1101     0.0000 
     34 CAI       -40.0420    9.1730   35.6720 C.ar      1 DRY1101     0.0000 
     35 OBI       -39.5610   10.3930   35.3000 O.3       1 DRY1101     0.0000 
     36 CBJ       -38.3730   10.2540   34.4670 C.3       1 DRY1101     0.0000 
     37 CBK       -37.9200   11.6610   34.0250 C.2       1 DRY1101     0.0000 
     38 OBM       -38.5890   12.6690   34.3940 O.co2     1 DRY1101     0.0000 
     39 OBL       -36.8960   11.7350   33.3110 O.co2     1 DRY1101     0.0000 
     40 H         -32.2551    8.1883   43.2398 H         1 DRY1101     0.0000 
     41 H         -32.5103    9.7016   45.1143 H         1 DRY1101     0.0000 
     42 H         -33.9754    9.1126   46.9504 H         1 DRY1101     0.0000 
     43 H         -35.1841    7.0167   46.9135 H         1 DRY1101     0.0000 
     44 H         -34.9234    5.4979   45.0438 H         1 DRY1101     0.0000 
     45 H         -36.1007    5.3463   43.2599 H         1 DRY1101     0.0000 
     46 H         -33.1772    5.0953   40.2611 H         1 DRY1101     0.0000 
     47 H         -34.8212    4.2104   38.7258 H         1 DRY1101     0.0000 
     48 H         -37.6146    2.6084   37.3471 H         1 DRY1101     0.0000 
     49 H         -35.9186    2.9355   37.7429 H         1 DRY1101     0.0000 
     50 H         -36.1219    5.2411   37.0867 H         1 DRY1101     0.0000 
     51 H         -37.8866    5.1210   36.9807 H         1 DRY1101     0.0000 
     52 H         -38.3735    4.6292   42.7799 H         1 DRY1101     0.0000 
     53 H         -39.9895    3.6857   41.2464 H         1 DRY1101     0.0000 
     54 H         -41.0344    4.0972   39.7100 H         1 DRY1101     0.0000 
     55 H         -41.3224    2.3489   39.6935 H         1 DRY1101     0.0000 
     56 H         -42.6828    2.7447   37.9580 H         1 DRY1101     0.0000 
     57 H         -41.2131    2.9669   36.9933 H         1 DRY1101     0.0000 
     58 H         -42.0301    5.3527   38.5433 H         1 DRY1101     0.0000 
     59 H         -43.2219    4.8386   37.3369 H         1 DRY1101     0.0000 
     60 H         -40.8740    3.7621   35.3739 H         1 DRY1101     0.0000 
     61 H         -39.6173    5.3525   33.9607 H         1 DRY1101     0.0000 
     62 H         -39.1622    8.1263   34.0681 H         1 DRY1101     0.0000 
     63 H         -41.9068    7.7263   38.0445 H         1 DRY1101     0.0000 
     64 H         -41.0539    9.8945   37.3729 H         1 DRY1101     0.0000 
     65 H         -38.5803    9.6726   33.5741 H         1 DRY1101     0.0000 
     66 H         -37.5558    9.7953   35.0147 H         1 DRY1101     0.0000 
     67 H         -35.9850    3.6788   35.1809 H         1 DRY1101     0.0000 
     68 H         -37.5868    3.5749   35.0832 H         1 DRY1101     0.0000 
     69 H         -36.8476    4.9582   34.7278 H         1 DRY1101     0.0000 
@<TRIPOS>BOND
     1    2    1 ar   
     2    6    1 ar   
     3   40    1 1    
     4    3    2 ar   
     5   41    2 1    
     6    4    3 ar   
     7   42    3 1    
     8    5    4 ar   
     9   43    4 1    
    10    6    5 ar   
    11   44    5 1    
    12    7    6 1    
    13    8    7 2    
    14    9    7 1    
    15   10    9 ar   
    16   11    9 ar   
    17   18   10 ar   
    18   45   10 1    
    19   12   11 ar   
    20   46   11 1    
    21   13   12 ar   
    22   47   12 1    
    23   14   13 ar   
    24   18   13 ar   
    25   15   14 1    
    26   21   14 ar   
    27   16   15 1    
    28   48   15 1    
    29   49   15 1    
    30   17   16 1    
    31   50   16 1    
    32   51   16 1    
    33   67   17 1    
    34   68   17 1    
    35   69   17 1    
    36   19   18 ar   
    37   20   19 ar   
    38   52   19 1    
    39   21   20 ar   
    40   53   20 1    
    41   22   21 1    
    42   23   22 1    
    43   24   23 1    
    44   54   23 1    
    45   55   23 1    
    46   25   24 1    
    47   56   24 1    
    48   57   24 1    
    49   26   25 1    
    50   58   25 1    
    51   59   25 1    
    52   27   26 1    
    53   31   26 1    
    54   28   27 2    
    55   60   27 1    
    56   29   28 1    
    57   61   28 1    
    58   30   29 ar   
    59   31   29 ar   
    60   34   30 ar   
    61   62   30 1    
    62   32   31 ar   
    63   33   32 ar   
    64   63   32 1    
    65   34   33 ar   
    66   64   33 1    
    67   35   34 1    
    68   36   35 1    
    69   37   36 1    
    70   65   36 1    
    71   66   36 1    
    72   38   37 ar   
    73   39   37 ar   
@<TRIPOS>SUBSTRUCTURE
     1 DRY1101     1 GROUP   
@<TRIPOS>SET

