#    Name: 2b60_RIT_1_INTS_M
#    Modification time : Mon Mar 24 20:17:55 2014

@<TRIPOS>MOLECULE
2b60_RIT_1_INTS_M
   98     0     9     0     0
SMALL
NO_CHARGES


@<TRIPOS>ATOM
      1 CA          7.1560   17.6685    5.5055 C.3       3 GLC5        0.0000 
      2 CA          8.5700   16.3390    4.8710 C.3       9 GLL5        0.0000 
      3 CA          5.7420   18.9980    6.1400 C.3       6 GLP5        0.0000 
      4 CA          6.7195   15.7990    5.0950 C.3       3 GLC5        0.0000 
      5 CA          4.8690   15.2590    5.3190 C.3       6 GLP5        0.0000 
      6 CA          9.5060   16.9075    0.6335 C.3       3 GLC5        0.0000 
      7 CA          9.0660   16.1850    2.5090 C.3       9 GLL5        0.0000 
      8 CA          9.9460   17.6300   -1.2420 C.3       6 GLP5        0.0000 
      9 O          12.2890   16.5435    7.1820 O.2       1 ALC1        0.0000 
     10 O          11.2430   15.5480    7.5600 O.2       7 ALL1        0.0000 
     11 O          13.3350   17.5390    6.8040 O.2       4 ALP1        0.0000 
     12 CA         15.2665   15.1920    8.2190 C.3       3 GLC5        0.0000 
     13 CA         13.7320   13.8120    7.9940 C.3       9 GLL5        0.0000 
     14 CA         16.8010   16.5720    8.4440 C.3       6 GLP5        0.0000 
     15 CA         13.8455    9.4805    8.4640 C.3       3 GLC5        0.0000 
     16 CA         13.5810   11.4240    7.7730 C.3       9 GLL5        0.0000 
     17 CA         14.1100    7.5370    9.1550 C.3       6 GLP5        0.0000 
     18 CA         10.5515   11.0280    7.9470 C.3       3 GLC5        0.0000 
     19 CA         12.5570   11.4010    8.6910 C.3       9 GLL5        0.0000 
     20 CA          8.5460   10.6550    7.2030 C.3       6 GLP5        0.0000 
     21 CA         10.7215   10.8265    9.7965 C.3       3 GLC5        0.0000 
     22 CA          8.8860   10.2520   10.9020 C.3       6 GLP5        0.0000 
     23 CA         12.6140    9.7245    9.8040 C.3       3 GLC5        0.0000 
     24 CA         12.6710    8.0480   10.9170 C.3       6 GLP5        0.0000 
     25 CA         11.4985   11.9450   11.1785 C.3       3 GLC5        0.0000 
     26 CA         12.1220   12.5930    9.2630 C.3       9 GLL5        0.0000 
     27 CA         10.8750   11.2970   13.0940 C.3       6 GLP5        0.0000 
     28 O          11.9960   19.1155   10.0095 O.2       1 ALC1        0.0000 
     29 O          11.4960   17.9090    9.3010 O.2       7 ALL1        0.0000 
     30 O          12.4960   20.3220   10.7180 O.2       4 ALP1        0.0000 
     31 O          12.0505   18.0920   10.3795 O.2       1 ALC1        0.0000 
     32 O          12.6050   18.2750   11.4580 O.2       4 ALP1        0.0000 
     33 CA          3.9735   14.3780    9.1885 C.3       3 GLC5        0.0000 
     34 CA          3.5710   16.1820   10.3920 C.3       9 GLL5        0.0000 
     35 CA          4.3760   12.5740    7.9850 C.3       6 GLP5        0.0000 
     36 CA          4.5355   15.3835    8.0875 C.3       3 GLC5        0.0000 
     37 CA          4.8250   16.4050    9.8330 C.3       9 GLL5        0.0000 
     38 CA          4.2460   14.3620    6.3420 C.3       6 GLP5        0.0000 
     39 O           8.2340   18.7415   11.8940 O.2       1 ALC1        0.0000 
     40 O           7.9730   17.1620   11.5790 O.2       7 ALL1        0.0000 
     41 O           8.4950   20.3210   12.2090 O.2       4 ALP1        0.0000 
     42 O           5.7355   15.3575   14.3800 O.2       1 ALC1        0.0000 
     43 O           6.4840   16.7890   14.3840 O.2       7 ALL1        0.0000 
     44 O           4.9870   13.9260   14.3760 O.2       4 ALP1        0.0000 
     45 CA          9.0255   18.3405   14.1745 C.3       3 GLC5        0.0000 
     46 CA          7.9030   16.6030   13.9440 C.3       9 GLL5        0.0000 
     47 CA         10.1480   20.0780   14.4050 C.3       6 GLP5        0.0000 
     48 CA          7.9025   13.8105   15.9515 C.3       3 GLC5        0.0000 
     49 CA          8.5890   15.6320   14.8700 C.3       9 GLL5        0.0000 
     50 CA          7.2160   11.9890   17.0330 C.3       6 GLP5        0.0000 
     51 CA          9.4515   16.7935   18.2235 C.3       3 GLC5        0.0000 
     52 CA          8.6460   16.2110   16.2830 C.3       9 GLL5        0.0000 
     53 CA         10.2570   17.3760   20.1640 C.3       6 GLP5        0.0000 
     54 CA          7.7950   14.7230   17.6895 C.3       3 GLC5        0.0000 
     55 CA          6.9440   13.2350   19.0960 C.3       6 GLP5        0.0000 
     56 CA         10.4530   13.3290   13.7810 C.3       3 GLC5        0.0000 
     57 CA         10.0310   15.3610   14.4680 C.3       9 GLL5        0.0000 
     58 CA         11.7085   14.2555   15.4025 C.3       3 GLC5        0.0000 
     59 CA         13.3860   13.1500   16.3370 C.3       6 GLP5        0.0000 
     60 CA         11.7480   15.0175   13.5110 C.3       3 GLC5        0.0000 
     61 CA         13.4650   14.6740   12.5540 C.3       6 GLP5        0.0000 
     62 N           7.8925   19.7540   15.6950 N.am      2 SEC2        0.0000 
     63 N           6.6980   18.9610   14.8660 N.am      8 SEL2        0.0000 
     64 N           9.0870   20.5470   16.5240 N.am      5 SEP2        0.0000 
     65 CA          1.8835   20.7155   10.9100 C.3       3 GLC5        0.0000 
     66 CA          1.9690   21.1870   12.9170 C.3       9 GLL5        0.0000 
     67 CA          1.7980   20.2440    8.9030 C.3       6 GLP5        0.0000 
     68 CA         -0.8030   17.4065   11.1135 C.3       3 GLC5        0.0000 
     69 CA         -0.7790   18.7410   12.4870 C.3       9 GLL5        0.0000 
     70 CA         -0.8270   16.0720    9.7400 C.3       6 GLP5        0.0000 
     71 CA          3.6200   14.5770   15.0895 C.3       3 GLC5        0.0000 
     72 CA          3.9310   16.7430   15.0290 C.3       9 GLL5        0.0000 
     73 CA          3.3090   12.4110   15.1500 C.3       6 GLP5        0.0000 
     74 CA          9.9206   17.7079    4.0539 C.3       3 GLC5        0.0000 
     75 CA         10.8380   19.3380    4.6270 C.3       6 GLP5        0.0000 
     76 CA          8.7206   13.8679    2.9939 C.3       3 GLC5        0.0000 
     77 CA          9.3110   15.6020    4.0340 C.3       9 GLL5        0.0000 
     78 CA          7.7700   12.5240    2.1690 C.3       6 GLP5        0.0000 
     79 CA         12.5210   15.0057   10.9185 C.3       3 GLC5        0.0000 
     80 CA         10.9270   15.5800    9.0030 C.3       9 GLL5        0.0000 
     81 CA         12.9383   13.9375   10.8250 C.3       3 GLC5        0.0000 
     82 CA         12.7010   13.8090    8.9290 C.3       9 GLL5        0.0000 
     83 CA         15.3777   12.3985    8.8245 C.3       3 GLC5        0.0000 
     84 CA         16.8060   11.5790    9.9420 C.3       6 GLP5        0.0000 
     85 CA         14.9375   11.4958    9.0870 C.3       3 GLC5        0.0000 
     86 CA          5.9672   18.3558    7.9995 C.3       3 GLC5        0.0000 
     87 CA          6.8830   17.8590    9.5620 C.3       9 GLL5        0.0000 
     88 CA          2.7264   18.9886   10.0881 C.3       3 GLC5        0.0000 
     89 CA          2.9960   17.0960   11.2570 C.3       9 GLL5        0.0000 
     90 CA          2.2811   15.9975    9.9199 C.3       3 GLC5        0.0000 
     91 CA          0.5080   15.4730    9.5110 C.3       6 GLP5        0.0000 
     92 CA          4.3456   14.8775   11.0094 C.3       3 GLC5        0.0000 
     93 CA          4.6370   13.2330   11.6900 C.3       6 GLP5        0.0000 
     94 CA         10.2996   17.3501   14.7126 C.3       3 GLC5        0.0000 
     95 CA         11.2750   19.0590   14.4030 C.3       6 GLP5        0.0000 
     96 CA          3.0320   22.8450   14.0862 C.3       3 GLC5        0.0000 
     97 CA          3.3710   20.8070   13.7840 C.3       9 GLL5        0.0000 
     98 CA          3.3940   24.6930   14.8220 C.3       6 GLP5        0.0000 
@<TRIPOS>BOND
@<TRIPOS>SUBSTRUCTURE
     1 ALC1        9 GROUP        1 X    ALC  0     ROOT ALC X 1
     2 SEC2       62 GROUP        1 X    SEC  0     **** SEC X 2
     3 GLC5        1 GROUP        1 X    GLC  0     **** GLC X 6
     4 ALP1       11 GROUP        1 Y    ALP  0     ROOT ALP Y 8
     5 SEP2       64 GROUP        1 Y    SEP  0     **** SEP Y 9
     6 GLP5        3 GROUP        1 Y    GLP  0     **** GLP Y 13
     7 ALL1       10 GROUP        1 Z    ALL  0     ROOT ALL Z 15
     8 SEL2       63 GROUP        1 Z    SEL  0     **** SEL Z 16
     9 GLL5        2 GROUP        1 Z    GLL  0     **** GLL Z 20
@<TRIPOS>SET

