#    Name: 2b60_RIT_1_ligand
#    Modification time : Mon Mar 24 20:17:55 2014

@<TRIPOS>MOLECULE
2b60_RIT_1_ligand
   98   101     1     0     0
SMALL
NO_CHARGES


@<TRIPOS>ATOM
      1 C1          8.5700   16.3390    4.8710 C.2       1 RIT100      0.0000 
      2 C2          9.3110   15.6020    4.0340 C.2       1 RIT100      0.0000 
      3 S3          9.0660   16.1850    2.5090 S.3       1 RIT100      0.0000 
      4 C4          8.0000   17.3910    3.0040 C.2       1 RIT100      0.0000 
      5 N5          7.8690   17.3020    4.3230 N.2       1 RIT100      0.0000 
      6 C6         10.1540   14.5300    4.3660 C.3       1 RIT100      0.0000 
      7 O7         10.9810   15.0680    5.3620 O.3       1 RIT100      0.0000 
      8 C10        10.5000   14.9880    6.6210 C.2       1 RIT100      0.0000 
      9 O24         9.4140   14.4220    6.8440 O.2       1 RIT100      0.0000 
     10 N11        11.2430   15.5480    7.5600 N.am      1 RIT100      0.0000 
     11 C12        10.9270   15.5800    9.0030 C.3       1 RIT100      0.0000 
     12 C13        10.5720   16.9470    9.6780 C.3       1 RIT100      0.0000 
     13 C14         9.2100   17.5010    9.3280 C.3       1 RIT100      0.0000 
     14 C15         7.9950   16.9900   10.1020 C.3       1 RIT100      0.0000 
     15 C26        12.2270   15.0950    9.5630 C.3       1 RIT100      0.0000 
     16 C28        12.7010   13.8090    8.9290 C.ar      1 RIT100      0.0000 
     17 C31        13.7320   13.8120    7.9940 C.ar      1 RIT100      0.0000 
     18 C32        14.1670   12.6240    7.4200 C.ar      1 RIT100      0.0000 
     19 C33        13.5810   11.4240    7.7730 C.ar      1 RIT100      0.0000 
     20 C34        12.5570   11.4010    8.6910 C.ar      1 RIT100      0.0000 
     21 C35        12.1220   12.5930    9.2630 C.ar      1 RIT100      0.0000 
     22 O41        11.4960   17.9090    9.3010 O.3       1 RIT100      0.0000 
     23 C44         6.8830   17.8590    9.5620 C.3       1 RIT100      0.0000 
     24 C45         5.5020   17.5680   10.1560 C.ar      1 RIT100      0.0000 
     25 C48         4.9400   18.4910   11.0160 C.ar      1 RIT100      0.0000 
     26 C49         3.6870   18.2500   11.5630 C.ar      1 RIT100      0.0000 
     27 C50         2.9960   17.0960   11.2570 C.ar      1 RIT100      0.0000 
     28 C51         3.5710   16.1820   10.3920 C.ar      1 RIT100      0.0000 
     29 C52         4.8250   16.4050    9.8330 C.ar      1 RIT100      0.0000 
     30 N58         7.9730   17.1620   11.5790 N.am      1 RIT100      0.0000 
     31 N20         6.4840   16.7890   14.3840 N.am      1 RIT100      0.0000 
     32 C19         7.9030   16.6030   13.9440 C.3       1 RIT100      0.0000 
     33 C18         7.8770   16.1690   12.4610 C.2       1 RIT100      0.0000 
     34 O61         7.8030   15.0170   12.1360 O.2       1 RIT100      0.0000 
     35 C62         8.5890   15.6320   14.8700 C.3       1 RIT100      0.0000 
     36 C64         8.6460   16.2110   16.2830 C.3       1 RIT100      0.0000 
     37 C68        10.0310   15.3610   14.4680 C.3       1 RIT100      0.0000 
     38 C21         5.9910   17.9600   14.8030 C.2       1 RIT100      0.0000 
     39 N74         4.6960   17.9980   15.1410 N.am      1 RIT100      0.0000 
     40 C75         4.0740   19.2400   15.6130 C.3       1 RIT100      0.0000 
     41 O76         6.6980   18.9610   14.8660 O.2       1 RIT100      0.0000 
     42 C77         3.0540   19.8350   14.6600 C.2       1 RIT100      0.0000 
     43 C80         3.3710   20.8070   13.7840 C.2       1 RIT100      0.0000 
     44 S81         1.9690   21.1870   12.9170 S.3       1 RIT100      0.0000 
     45 C82         1.0000   20.0870   13.7090 C.2       1 RIT100      0.0000 
     46 N83         1.7580   19.4490   14.6110 N.2       1 RIT100      0.0000 
     47 C85        -0.5010   19.8770   13.4470 C.3       1 RIT100      0.0000 
     48 C86        -1.1190   21.1540   12.9000 C.3       1 RIT100      0.0000 
     49 C90        -0.7790   18.7410   12.4870 C.3       1 RIT100      0.0000 
     50 C95         3.9310   16.7430   15.0290 C.3       1 RIT100      0.0000 
     51 H           8.5608   16.1506    5.8775 H         1 RIT100      0.0000 
     52 H           7.6733   17.9165    2.3290 H         1 RIT100      0.0000 
     53 H          10.7354   14.2090    3.5050 H         1 RIT100      0.0000 
     54 H           9.5823   13.6862    4.7448 H         1 RIT100      0.0000 
     55 H          12.1617   16.0344    7.3162 H         1 RIT100      0.0000 
     56 H          10.1874   14.8469    9.2430 H         1 RIT100      0.0000 
     57 H          10.6050   16.7905   10.7599 H         1 RIT100      0.0000 
     58 H           9.0220   17.3301    8.2325 H         1 RIT100      0.0000 
     59 H           9.2401   18.6208    9.4270 H         1 RIT100      0.0000 
     60 H           7.7780   15.9908    9.8089 H         1 RIT100      0.0000 
     61 H          12.1245   14.9411   10.6512 H         1 RIT100      0.0000 
     62 H          13.0003   15.8699    9.4222 H         1 RIT100      0.0000 
     63 H          14.1759   14.7040    7.7258 H         1 RIT100      0.0000 
     64 H          14.9317   12.6418    6.7270 H         1 RIT100      0.0000 
     65 H          13.9139   10.5447    7.3458 H         1 RIT100      0.0000 
     66 H          12.1117   10.5145    8.9574 H         1 RIT100      0.0000 
     67 H          11.3474   12.5699    9.9543 H         1 RIT100      0.0000 
     68 H           6.8252   17.7381    8.4636 H         1 RIT100      0.0000 
     69 H           7.1275   18.9222    9.7467 H         1 RIT100      0.0000 
     70 H           5.4455   19.3551   11.2525 H         1 RIT100      0.0000 
     71 H           3.2704   18.9456   12.2065 H         1 RIT100      0.0000 
     72 H           2.0732   16.9171   11.6621 H         1 RIT100      0.0000 
     73 H           3.0584   15.3107   10.1532 H         1 RIT100      0.0000 
     74 H           5.2359   15.7209    9.1961 H         1 RIT100      0.0000 
     75 H           8.0420   18.1722   11.8915 H         1 RIT100      0.0000 
     76 H           5.9016   15.9215   14.3376 H         1 RIT100      0.0000 
     77 H           8.3983   17.5693   13.9990 H         1 RIT100      0.0000 
     78 H           8.0566   14.7065   14.9097 H         1 RIT100      0.0000 
     79 H           4.8548   20.0085   15.8075 H         1 RIT100      0.0000 
     80 H           3.5736   19.0688   16.5920 H         1 RIT100      0.0000 
     81 H           4.1088   21.2831   13.5551 H         1 RIT100      0.0000 
     82 H          -0.9846   19.6565   14.3983 H         1 RIT100      0.0000 
     83 H           9.0965   15.5875   16.9220 H         1 RIT100      0.0000 
     84 H           9.1505   17.0740   16.3107 H         1 RIT100      0.0000 
     85 H           7.7325   16.3937   16.6466 H         1 RIT100      0.0000 
     86 H          10.5803   16.1966   14.4698 H         1 RIT100      0.0000 
     87 H          10.4753   14.7168   15.0906 H         1 RIT100      0.0000 
     88 H          10.0934   14.9711   13.5493 H         1 RIT100      0.0000 
     89 H          -1.0193   21.9177   13.5378 H         1 RIT100      0.0000 
     90 H          -0.6934   21.4335   12.0393 H         1 RIT100      0.0000 
     91 H          -2.0972   21.0466   12.7220 H         1 RIT100      0.0000 
     92 H          -0.3547   18.8964   11.5949 H         1 RIT100      0.0000 
     93 H          -0.4281   17.8700   12.8307 H         1 RIT100      0.0000 
     94 H          -1.7589   18.6201   12.3285 H         1 RIT100      0.0000 
     95 H           3.9269   16.3929   14.0923 H         1 RIT100      0.0000 
     96 H           4.3115   16.0230   15.6094 H         1 RIT100      0.0000 
     97 H           2.9763   16.8645   15.3007 H         1 RIT100      0.0000 
     98 H          11.6514   18.4550   10.1242 H         1 RIT100      0.0000 
@<TRIPOS>BOND
     1    2    1 2    
     2    5    1 1    
     3   51    1 1    
     4    3    2 1    
     5    6    2 1    
     6    4    3 1    
     7    5    4 2    
     8   52    4 1    
     9    7    6 1    
    10   53    6 1    
    11   54    6 1    
    12    8    7 1    
    13    9    8 2    
    14   10    8 am   
    15   11   10 1    
    16   55   10 1    
    17   12   11 1    
    18   15   11 1    
    19   56   11 1    
    20   13   12 1    
    21   22   12 1    
    22   57   12 1    
    23   14   13 1    
    24   58   13 1    
    25   59   13 1    
    26   23   14 1    
    27   30   14 1    
    28   60   14 1    
    29   16   15 1    
    30   61   15 1    
    31   62   15 1    
    32   17   16 ar   
    33   21   16 ar   
    34   18   17 ar   
    35   63   17 1    
    36   19   18 ar   
    37   64   18 1    
    38   20   19 ar   
    39   65   19 1    
    40   21   20 ar   
    41   66   20 1    
    42   67   21 1    
    43   98   22 1    
    44   24   23 1    
    45   68   23 1    
    46   69   23 1    
    47   25   24 ar   
    48   29   24 ar   
    49   26   25 ar   
    50   70   25 1    
    51   27   26 ar   
    52   71   26 1    
    53   28   27 ar   
    54   72   27 1    
    55   29   28 ar   
    56   73   28 1    
    57   74   29 1    
    58   33   30 am   
    59   75   30 1    
    60   32   31 1    
    61   38   31 am   
    62   76   31 1    
    63   33   32 1    
    64   35   32 1    
    65   77   32 1    
    66   34   33 2    
    67   36   35 1    
    68   37   35 1    
    69   78   35 1    
    70   83   36 1    
    71   84   36 1    
    72   85   36 1    
    73   86   37 1    
    74   87   37 1    
    75   88   37 1    
    76   39   38 am   
    77   41   38 2    
    78   40   39 1    
    79   50   39 1    
    80   42   40 1    
    81   79   40 1    
    82   80   40 1    
    83   43   42 2    
    84   46   42 1    
    85   44   43 1    
    86   81   43 1    
    87   45   44 1    
    88   46   45 2    
    89   47   45 1    
    90   48   47 1    
    91   49   47 1    
    92   82   47 1    
    93   89   48 1    
    94   90   48 1    
    95   91   48 1    
    96   92   49 1    
    97   93   49 1    
    98   94   49 1    
    99   95   50 1    
   100   96   50 1    
   101   97   50 1    
@<TRIPOS>SUBSTRUCTURE
     1 RIT100      1 GROUP   
@<TRIPOS>SET

