#    Name: 2dcn_ADP_9_INTS_M
#    Modification time : Tue Mar 25 10:03:16 2014

@<TRIPOS>MOLECULE
2dcn_ADP_9_INTS_M
   70     0    15     0     0
SMALL
NO_CHARGES


@<TRIPOS>ATOM
      1 NZ         -5.2460  -19.2800   68.8350 N.4       3 LYC4        0.0000 
      2 NZ         -5.9770  -20.4120   70.1840 N.4      13 LYL4        0.0000 
      3 NZ         -4.5150  -18.1480   67.4860 N.4       8 LYP4        0.0000 
      4 N          -6.2950  -21.6685   69.8300 N.am      2 SEC2        0.0000 
      5 N          -5.9770  -20.4120   70.1840 N.am     12 SEL2        0.0000 
      6 N          -6.6130  -22.9250   69.4760 N.am      7 SEP2        0.0000 
      7 NZ         -5.9855  -18.3405   68.3760 N.4       3 LYC4        0.0000 
      8 NZ         -7.4560  -18.5330   69.2660 N.4      13 LYL4        0.0000 
      9 Zn         -7.9205  -18.5665   68.2595 Zn        4 ZIC7        0.0000 
     10 Zn         -7.4560  -18.5330   69.2660 Zn       14 ZIL7        0.0000 
     11 Zn         -8.3850  -18.6000   67.2530 Zn        9 ZIP7        0.0000 
     12 N          -5.9855  -18.3405   68.3760 N.am      2 SEC2        0.0000 
     13 N          -7.4560  -18.5330   69.2660 N.am     12 SEL2        0.0000 
     14 N          -4.5150  -18.1480   67.4860 N.am      7 SEP2        0.0000 
     15 Zn         -8.2840  -20.6315   72.1495 Zn        4 ZIC7        0.0000 
     16 Zn         -8.2650  -19.9330   71.1590 Zn       14 ZIL7        0.0000 
     17 Zn         -8.3030  -21.3300   73.1400 Zn        9 ZIP7        0.0000 
     18 N          -4.2820  -20.5830   74.2500 N.am      2 SEC2        0.0000 
     19 N          -4.7570  -19.6970   73.1750 N.am     12 SEL2        0.0000 
     20 N          -3.8070  -21.4690   75.3250 N.am      7 SEP2        0.0000 
     21 Zn         -7.7575  -20.3515   73.4300 Zn        4 ZIC7        0.0000 
     22 Zn         -7.2120  -19.3730   73.7200 Zn       14 ZIL7        0.0000 
     23 CA         -3.8095  -17.5020   71.1390 C.3       5 GLC5        0.0000 
     24 CA         -4.5940  -16.6520   72.8940 C.3      15 GLL5        0.0000 
     25 CA         -3.0250  -18.3520   69.3840 C.3      10 GLP5        0.0000 
     26 CA         -5.2735  -16.1315   71.1085 C.3       5 GLC5        0.0000 
     27 CA         -5.9530  -15.6110   69.3230 C.3      10 GLP5        0.0000 
     28 CA         -1.4380  -17.5740   75.8860 C.3       5 GLC5        0.0000 
     29 CA         -3.2950  -16.7250   75.0020 C.3      15 GLL5        0.0000 
     30 CA          0.4190  -18.4230   76.7700 C.3      10 GLP5        0.0000 
     31 O          -2.7970  -18.2800   75.6140 O.2       1 ALC1        0.0000 
     32 O          -2.0720  -17.3570   74.6130 O.2      11 ALL1        0.0000 
     33 O          -3.5220  -19.2030   76.6150 O.2       6 ALP1        0.0000 
     34 O          -1.2600  -18.5080   74.7690 O.2       1 ALC1        0.0000 
     35 O          -0.4480  -19.6590   74.9250 O.2       6 ALP1        0.0000 
     36 CA         -3.9015  -17.3120   77.6995 C.3       5 GLC5        0.0000 
     37 CA         -3.2250  -15.7950   76.1980 C.3      15 GLL5        0.0000 
     38 CA         -4.5780  -18.8290   79.2010 C.3      10 GLP5        0.0000 
     39 O          -2.1535  -14.0025   75.0030 O.2       1 ALC1        0.0000 
     40 O          -2.0640  -14.9530   76.1810 O.2      11 ALL1        0.0000 
     41 O          -2.2430  -13.0520   73.8250 O.2       6 ALP1        0.0000 
     42 CA         -5.9935  -14.3480   74.5530 C.3       5 GLC5        0.0000 
     43 CA         -4.4460  -14.9190   75.9940 C.3      15 GLL5        0.0000 
     44 CA         -7.5410  -13.7770   73.1120 C.3      10 GLP5        0.0000 
     45 CA         -6.1720  -13.7950   76.2500 C.3       5 GLC5        0.0000 
     46 CA         -7.8980  -12.6710   76.5060 C.3      10 GLP5        0.0000 
     47 CA         -7.0460  -17.7745   79.8640 C.3       5 GLC5        0.0000 
     48 CA         -7.4110  -15.8570   79.8820 C.3      15 GLL5        0.0000 
     49 CA         -6.6810  -19.6920   79.8460 C.3      10 GLP5        0.0000 
     50 CA         -8.7440  -14.7855   80.9075 C.3       5 GLC5        0.0000 
     51 CA        -10.0770  -13.7140   81.9330 C.3      10 GLP5        0.0000 
     52 CA         -7.7895  -13.7895   79.3665 C.3       5 GLC5        0.0000 
     53 CA         -8.1680  -11.7220   78.8510 C.3      10 GLP5        0.0000 
     54 CA         -5.7885  -12.5075   80.9205 C.3       5 GLC5        0.0000 
     55 CA         -5.6060  -14.3570   80.2600 C.3      15 GLL5        0.0000 
     56 CA         -5.9710  -10.6580   81.5810 C.3      10 GLP5        0.0000 
     57 CA         -6.8870  -13.0395   79.5555 C.3       5 GLC5        0.0000 
     58 CA         -5.8785  -15.0103   73.2562 C.3       5 GLC5        0.0000 
     59 CA         -3.8380  -15.8350   73.9070 C.3      15 GLL5        0.0000 
     60 CA         -3.8155  -14.4228   73.2747 C.3       5 GLC5        0.0000 
     61 CA         -3.4150  -12.6020   73.1490 C.3      10 GLP5        0.0000 
     62 CA         -2.1138  -16.0881   72.9396 C.3       5 GLC5        0.0000 
     63 CA         -0.4720  -15.6920   71.6780 C.3      10 GLP5        0.0000 
     64 CA         -3.6253  -13.9795   74.6225 C.3       5 GLC5        0.0000 
     65 CA         -5.4750  -17.2185   78.7400 C.3       5 GLC5        0.0000 
     66 CA         -5.7790  -15.2220   78.0830 C.3      15 GLL5        0.0000 
     67 CA         -9.1010  -15.6827   78.2188 C.3       5 GLC5        0.0000 
     68 CA         -6.9650  -15.9940   78.4750 C.3      15 GLL5        0.0000 
     69 CA        -11.0140  -15.4400   77.2590 C.3      10 GLP5        0.0000 
     70 CA         -7.1350  -14.1395   77.3925 C.3       5 GLC5        0.0000 
@<TRIPOS>BOND
@<TRIPOS>SUBSTRUCTURE
     1 ALC1       31 GROUP        1 X    ALC  0     ROOT ALC X 1
     2 SEC2        4 GROUP        1 X    SEC  0     **** SEC X 2
     3 LYC4        1 GROUP        1 X    LYC  0     **** LYC X 4
     4 ZIC7        9 GROUP        1 X    ZIC  0     **** ZIC X 5
     5 GLC5       23 GROUP        1 X    GLC  0     **** GLC X 6
     6 ALP1       33 GROUP        1 Y    ALP  0     ROOT ALP Y 8
     7 SEP2        6 GROUP        1 Y    SEP  0     **** SEP Y 9
     8 LYP4        3 GROUP        1 Y    LYP  0     **** LYP Y 11
     9 ZIP7       11 GROUP        1 Y    ZIP  0     **** ZIP Y 12
    10 GLP5       25 GROUP        1 Y    GLP  0     **** GLP Y 13
    11 ALL1       32 GROUP        1 Z    ALL  0     ROOT ALL Z 15
    12 SEL2        5 GROUP        1 Z    SEL  0     **** SEL Z 16
    13 LYL4        2 GROUP        1 Z    LYL  0     **** LYL Z 18
    14 ZIL7       10 GROUP        1 Z    ZIL  0     **** ZIL Z 19
    15 GLL5       24 GROUP        1 Z    GLL  0     **** GLL Z 20
@<TRIPOS>SET

