#    Name: 2dcn_ADP_9_ligand
#    Modification time : Tue Mar 25 10:03:16 2014

@<TRIPOS>MOLECULE
2dcn_ADP_9_ligand
   39    41     1     0     0
SMALL
NO_CHARGES


@<TRIPOS>ATOM
      1 PB         -7.0540  -19.3890   70.4460 P.3       1 ADP3009     0.0000 
      2 O1B        -5.9770  -20.4120   70.1840 O.co2     1 ADP3009     0.0000 
      3 O2B        -7.4560  -18.5330   69.2660 O.co2     1 ADP3009     0.0000 
      4 O3B        -8.2650  -19.9330   71.1590 O.co2     1 ADP3009     0.0000 
      5 PA         -5.9860  -18.8270   73.0540 P.3       1 ADP3009     0.0000 
      6 O1A        -4.7570  -19.6970   73.1750 O.co2     1 ADP3009     0.0000 
      7 O2A        -7.2120  -19.3730   73.7200 O.co2     1 ADP3009     0.0000 
      8 O3A        -6.3260  -18.4170   71.5170 O.3       1 ADP3009     0.0000 
      9 O5'        -5.6060  -17.3680   73.5880 O.3       1 ADP3009     0.0000 
     10 C5'        -4.5940  -16.6520   72.8940 C.3       1 ADP3009     0.0000 
     11 C4'        -3.8380  -15.8350   73.9070 C.3       1 ADP3009     0.0000 
     12 O4'        -4.7350  -14.9640   74.5900 O.3       1 ADP3009     0.0000 
     13 C3'        -3.2950  -16.7250   75.0020 C.3       1 ADP3009     0.0000 
     14 O3'        -2.0720  -17.3570   74.6130 O.3       1 ADP3009     0.0000 
     15 C2'        -3.2250  -15.7950   76.1980 C.3       1 ADP3009     0.0000 
     16 O2'        -2.0640  -14.9530   76.1810 O.3       1 ADP3009     0.0000 
     17 C1'        -4.4460  -14.9190   75.9940 C.3       1 ADP3009     0.0000 
     18 N9         -5.5670  -15.4890   76.8000 N.pl3     1 ADP3009     0.0000 
     19 C8         -6.5270  -16.3430   76.3820 C.2       1 ADP3009     0.0000 
     20 N7         -7.3780  -16.6530   77.3860 N.2       1 ADP3009     0.0000 
     21 C5         -6.9650  -15.9940   78.4750 C.ar      1 ADP3009     0.0000 
     22 C6         -7.4110  -15.8570   79.8820 C.ar      1 ADP3009     0.0000 
     23 N6         -8.5020  -16.5200   80.3410 N.pl3     1 ADP3009     0.0000 
     24 N1         -6.6830  -15.0370   80.6940 N.ar      1 ADP3009     0.0000 
     25 C2         -5.6060  -14.3570   80.2600 C.ar      1 ADP3009     0.0000 
     26 N3         -5.1500  -14.4430   78.9950 N.ar      1 ADP3009     0.0000 
     27 C4         -5.7790  -15.2220   78.0830 C.ar      1 ADP3009     0.0000 
     28 H          -5.0143  -15.9745   72.1498 H         1 ADP3009     0.0000 
     29 H          -3.8907  -17.3220   72.3980 H         1 ADP3009     0.0000 
     30 H          -3.0446  -15.3124   73.4580 H         1 ADP3009     0.0000 
     31 H          -4.0859  -17.4548   75.2135 H         1 ADP3009     0.0000 
     32 H          -3.3521  -16.3426   77.0802 H         1 ADP3009     0.0000 
     33 H          -4.2126  -13.9381   76.3209 H         1 ADP3009     0.0000 
     34 H          -6.5981  -16.6939   75.4665 H         1 ADP3009     0.0000 
     35 H          -9.0050  -17.0599   79.6661 H         1 ADP3009     0.0000 
     36 H          -8.7067  -16.4101   81.3136 H         1 ADP3009     0.0000 
     37 H          -5.0932  -13.7257   80.9428 H         1 ADP3009     0.0000 
     38 H          -2.0960  -18.2570   75.0483 H         1 ADP3009     0.0000 
     39 H          -2.2042  -14.3347   75.4076 H         1 ADP3009     0.0000 
@<TRIPOS>BOND
     1    2    1 ar   
     2    3    1 ar   
     3    4    1 ar   
     4    8    1 1    
     5    6    5 ar   
     6    7    5 ar   
     7    8    5 1    
     8    9    5 1    
     9   10    9 1    
    10   11   10 1    
    11   28   10 1    
    12   29   10 1    
    13   12   11 1    
    14   13   11 1    
    15   30   11 1    
    16   17   12 1    
    17   14   13 1    
    18   15   13 1    
    19   31   13 1    
    20   38   14 1    
    21   16   15 1    
    22   17   15 1    
    23   32   15 1    
    24   39   16 1    
    25   18   17 1    
    26   33   17 1    
    27   19   18 1    
    28   27   18 1    
    29   20   19 2    
    30   34   19 1    
    31   21   20 1    
    32   22   21 ar   
    33   27   21 ar   
    34   23   22 1    
    35   24   22 ar   
    36   35   23 1    
    37   36   23 1    
    38   25   24 ar   
    39   26   25 ar   
    40   37   25 1    
    41   27   26 ar   
@<TRIPOS>SUBSTRUCTURE
     1 ADP3009     1 GROUP   
@<TRIPOS>SET

