#    Name: 1yc1_4BC_1_INTS_M
#    Modification time : Mon Apr  7 15:40:26 2014

@<TRIPOS>MOLECULE
1yc1_4BC_1_INTS_M
   57     0    12     0     0
SMALL
NO_CHARGES


@<TRIPOS>ATOM
      1 CA         -1.2230   34.9855   -8.1765 C.3       4 GLC5        0.0000 
      2 CA          0.0490   34.6960   -6.5420 C.3      12 GLL5        0.0000 
      3 CA         -2.4950   35.2750   -9.8110 C.3       8 GLP5        0.0000 
      4 NZ          1.0800   37.1975   -8.7955 N.4       3 LYC4        0.0000 
      5 NZ          0.7830   35.4750   -8.6620 N.4      11 LYL4        0.0000 
      6 NZ          1.3770   38.9200   -8.9290 N.4       7 LYP4        0.0000 
      7 NZ          1.2100   37.8785   -7.9820 N.4       3 LYC4        0.0000 
      8 NZ          1.0430   36.8370   -7.0350 N.4      11 LYL4        0.0000 
      9 N           1.2100   37.8785   -7.9820 N.am      2 SEC2        0.0000 
     10 N           1.0430   36.8370   -7.0350 N.am     10 SEL2        0.0000 
     11 N           1.3770   38.9200   -8.9290 N.am      6 SEP2        0.0000 
     12 O          -0.6745   33.1245   -8.3025 O.2       1 ALC1        0.0000 
     13 O          -0.7540   33.7190   -6.9620 O.2       9 ALL1        0.0000 
     14 O          -0.5950   32.5300   -9.6430 O.2       5 ALP1        0.0000 
     15 CA          1.8875   30.3705   -3.0915 C.3       4 GLC5        0.0000 
     16 CA          1.9390   30.3770   -0.8750 C.3      12 GLL5        0.0000 
     17 CA          1.8360   30.3640   -5.3080 C.3       8 GLP5        0.0000 
     18 CA          2.1925   28.4320   -0.7415 C.3       4 GLC5        0.0000 
     19 CA          2.4460   26.4870   -0.6080 C.3       8 GLP5        0.0000 
     20 CA          0.3340   29.2660   -0.1800 C.3       4 GLC5        0.0000 
     21 CA         -1.2710   28.1550    0.5150 C.3       8 GLP5        0.0000 
     22 CA         -1.0915   30.0320   -0.2270 C.3       4 GLC5        0.0000 
     23 CA         -0.9120   31.9090   -0.9690 C.3      12 GLL5        0.0000 
     24 O          -2.2280   31.3850    0.7485 O.2       1 ALC1        0.0000 
     25 O          -1.0080   31.6250    0.3610 O.2       9 ALL1        0.0000 
     26 O          -3.4480   31.1450    1.1360 O.2       5 ALP1        0.0000 
     27 CA         -2.3270   30.9300   -3.8520 C.3       4 GLC5        0.0000 
     28 CA         -1.9510   32.5650   -3.0490 C.3      12 GLL5        0.0000 
     29 CA         -2.7030   29.2950   -4.6550 C.3       8 GLP5        0.0000 
     30 O          -4.1355   32.0735   -3.2820 O.2       1 ALC1        0.0000 
     31 O          -3.0640   32.6950   -3.8160 O.2       9 ALL1        0.0000 
     32 O          -5.2070   31.4520   -2.7480 O.2       5 ALP1        0.0000 
     33 CA         -0.3127   35.8895   -1.3277 C.3       4 GLC5        0.0000 
     34 CA          0.1620   36.1260   -3.2760 C.3      12 GLL5        0.0000 
     35 CA         -1.1320   35.2600    0.1610 C.3       8 GLP5        0.0000 
     36 CA         -1.8310   34.8890   -5.7630 C.3       4 GLC5        0.0000 
     37 CA          0.1490   34.5980   -5.1600 C.3      12 GLL5        0.0000 
     38 CA         -3.7610   35.1310   -5.6750 C.3       8 GLP5        0.0000 
     39 CA          1.0375   33.1680   -6.7970 C.3       4 GLC5        0.0000 
     40 CA          1.9760   31.6890   -7.7430 C.3       8 GLP5        0.0000 
     41 CA         -2.5465   33.9357   -4.4938 C.3       4 GLC5        0.0000 
     42 CA         -0.7130   32.9160   -3.5760 C.3      12 GLL5        0.0000 
     43 CA         -0.8872   30.8387   -3.4133 C.3       4 GLC5        0.0000 
     44 CA          0.4280   32.7190   -2.7970 C.3      12 GLL5        0.0000 
     45 CA         -1.6320   28.8600   -3.6400 C.3       8 GLP5        0.0000 
     46 CA         -0.0760   33.6482   -0.4820 C.3       4 GLC5        0.0000 
     47 CA          0.3370   32.2030   -1.5060 C.3      12 GLL5        0.0000 
     48 CA          0.9666   31.4371   -3.8271 C.3       4 GLC5        0.0000 
     49 CA          3.6335   31.0487   -1.1227 C.3       4 GLC5        0.0000 
     50 CA          5.4860   30.9740   -1.4360 C.3       8 GLP5        0.0000 
     51 CA          2.4900   30.8532    0.7432 C.3       4 GLC5        0.0000 
     52 CA          3.1990   30.5830    2.2960 C.3       8 GLP5        0.0000 
     53 CA         -3.6360   33.4802   -1.9167 C.3       4 GLC5        0.0000 
     54 CA         -2.0550   32.0720   -1.7480 C.3      12 GLL5        0.0000 
     55 CA         -5.2690   34.6420   -1.4350 C.3       8 GLP5        0.0000 
     56 CA         -1.4016   30.4620   -2.5664 C.3       4 GLC5        0.0000 
     57 CA         -1.1986   33.8004   -1.0386 C.3       4 GLC5        0.0000 
@<TRIPOS>BOND
@<TRIPOS>SUBSTRUCTURE
     1 ALC1       12 GROUP        1 X    ALC  0     ROOT ALC X 1
     2 SEC2        9 GROUP        1 X    SEC  0     **** SEC X 2
     3 LYC4        4 GROUP        1 X    LYC  0     **** LYC X 4
     4 GLC5        1 GROUP        1 X    GLC  0     **** GLC X 6
     5 ALP1       14 GROUP        1 Y    ALP  0     ROOT ALP Y 8
     6 SEP2       11 GROUP        1 Y    SEP  0     **** SEP Y 9
     7 LYP4        6 GROUP        1 Y    LYP  0     **** LYP Y 11
     8 GLP5        3 GROUP        1 Y    GLP  0     **** GLP Y 13
     9 ALL1       13 GROUP        1 Z    ALL  0     ROOT ALL Z 15
    10 SEL2       10 GROUP        1 Z    SEL  0     **** SEL Z 16
    11 LYL4        5 GROUP        1 Z    LYL  0     **** LYL Z 18
    12 GLL5        2 GROUP        1 Z    GLL  0     **** GLL Z 20
@<TRIPOS>SET

