#    Name: 1yc1_4BC_1_ligand
#    Modification time : Mon Apr  7 15:40:26 2014

@<TRIPOS>MOLECULE
1yc1_4BC_1_ligand
   42    45     1     0     0
SMALL
NO_CHARGES


@<TRIPOS>ATOM
      1 C15         2.2240   35.5070   -4.3740 C.ar      1 4BC401      0.0000 
      2 C12         2.9190   36.2840   -3.4530 C.ar      1 4BC401      0.0000 
      3 O17         4.2550   36.5260   -3.3050 O.3       1 4BC401      0.0000 
      4 C19         4.3940   37.3790   -2.2370 C.3       1 4BC401      0.0000 
      5 O18         3.1580   37.6640   -1.7130 O.3       1 4BC401      0.0000 
      6 C16         2.2370   36.9820   -2.4570 C.ar      1 4BC401      0.0000 
      7 C22         0.8510   36.9120   -2.3570 C.ar      1 4BC401      0.0000 
      8 C20         0.1620   36.1260   -3.2760 C.ar      1 4BC401      0.0000 
      9 C8          0.8380   35.4280   -4.2760 C.ar      1 4BC401      0.0000 
     10 C4          0.1490   34.5980   -5.1600 C.2       1 4BC401      0.0000 
     11 C1          0.0490   34.6960   -6.5420 C.2       1 4BC401      0.0000 
     12 C7          0.6670   35.7460   -7.4670 C.2       1 4BC401      0.0000 
     13 O21         0.7830   35.4750   -8.6620 O.co2     1 4BC401      0.0000 
     14 O23         1.0430   36.8370   -7.0350 O.co2     1 4BC401      0.0000 
     15 N5         -0.7540   33.7190   -6.9620 N.pl3     1 4BC401      0.0000 
     16 C2         -0.6350   33.4940   -4.8430 C.2       1 4BC401      0.0000 
     17 N3         -1.1390   33.0470   -5.9970 N.2       1 4BC401      0.0000 
     18 C6         -0.7130   32.9160   -3.5760 C.ar      1 4BC401      0.0000 
     19 C10         0.4280   32.7190   -2.7970 C.ar      1 4BC401      0.0000 
     20 C14         0.3370   32.2030   -1.5060 C.ar      1 4BC401      0.0000 
     21 C26         1.6230   31.8700   -0.7440 C.3       1 4BC401      0.0000 
     22 C27         1.9390   30.3770   -0.8750 C.3       1 4BC401      0.0000 
     23 C13        -0.9120   31.9090   -0.9690 C.ar      1 4BC401      0.0000 
     24 O25        -1.0080   31.6250    0.3610 O.3       1 4BC401      0.0000 
     25 C11        -2.0550   32.0720   -1.7480 C.ar      1 4BC401      0.0000 
     26 C9         -1.9510   32.5650   -3.0490 C.ar      1 4BC401      0.0000 
     27 O24        -3.0640   32.6950   -3.8160 O.3       1 4BC401      0.0000 
     28 H           2.7214   35.0037   -5.1087 H         1 4BC401      0.0000 
     29 H           4.9163   38.3178   -2.5488 H         1 4BC401      0.0000 
     30 H           5.0585   36.9287   -1.4578 H         1 4BC401      0.0000 
     31 H           0.3543   37.4216   -1.6317 H         1 4BC401      0.0000 
     32 H          -0.8691   36.0578   -3.2171 H         1 4BC401      0.0000 
     33 H          -0.9792   33.5932   -7.9289 H         1 4BC401      0.0000 
     34 H           1.3561   32.9603   -3.1853 H         1 4BC401      0.0000 
     35 H           1.4937   32.1185    0.3038 H         1 4BC401      0.0000 
     36 H           2.4436   32.4476   -1.1555 H         1 4BC401      0.0000 
     37 H          -2.9773   31.8289   -1.3647 H         1 4BC401      0.0000 
     38 H           2.0701   30.1074   -1.8290 H         1 4BC401      0.0000 
     39 H           2.7738   30.1295   -0.3831 H         1 4BC401      0.0000 
     40 H           1.2030   29.8080   -0.5081 H         1 4BC401      0.0000 
     41 H          -1.9861   31.5026    0.5294 H         1 4BC401      0.0000 
     42 H          -3.7830   32.2168   -3.3116 H         1 4BC401      0.0000 
@<TRIPOS>BOND
     1    2    1 ar   
     2    9    1 ar   
     3   28    1 1    
     4    3    2 1    
     5    6    2 ar   
     6    4    3 1    
     7    5    4 1    
     8   29    4 1    
     9   30    4 1    
    10    6    5 1    
    11    7    6 ar   
    12    8    7 ar   
    13   31    7 1    
    14    9    8 ar   
    15   32    8 1    
    16   10    9 1    
    17   11   10 2    
    18   16   10 1    
    19   12   11 1    
    20   15   11 1    
    21   13   12 ar   
    22   14   12 ar   
    23   17   15 1    
    24   33   15 1    
    25   17   16 2    
    26   18   16 1    
    27   19   18 ar   
    28   26   18 ar   
    29   20   19 ar   
    30   34   19 1    
    31   21   20 1    
    32   23   20 ar   
    33   22   21 1    
    34   35   21 1    
    35   36   21 1    
    36   38   22 1    
    37   39   22 1    
    38   40   22 1    
    39   24   23 1    
    40   25   23 ar   
    41   41   24 1    
    42   26   25 ar   
    43   37   25 1    
    44   27   26 1    
    45   42   27 1    
@<TRIPOS>SUBSTRUCTURE
     1 4BC401      1 GROUP   
@<TRIPOS>SET

