#    Name: 4DBU_1_CAVITY_N1_6.mol2
#    Modification time : Mon Mar 10 13:40:46 2014

@<TRIPOS>MOLECULE
4DBU_1_CAVITY_N1_6.mol2
  115     0     6     0     0
SMALL
NO_CHARGES


@<TRIPOS>ATOM
      1 CA         -7.5074   32.4126   26.2864 C.3       5 GLY6        0.0000 
      2 CZ         -6.7193   30.2161   28.1716 C.ar      4 PHE5        0.0000 
      3 NZ         -7.6776   32.5920   24.1795 N.2       3 LYS4        0.0000 
      4 DU         -7.2835   31.4937   25.1221 H         6 CUB7        0.0000 
      5 CZ         -6.8895   30.3954   26.0648 C.ar      4 PHE5        0.0000 
      6 CZ         -7.4537   31.6730   23.0153 C.ar      4 PHE5        0.0000 
      7 CZ         -7.0596   30.5748   23.9579 C.ar      4 PHE5        0.0000 
      8 CZ         -6.6656   29.4765   24.9005 C.ar      4 PHE5        0.0000 
      9 OG         -5.0894   25.0835   28.6710 O.2       1 SER1        0.0000 
     10 CZ         -6.8357   29.6559   22.7937 C.ar      4 PHE5        0.0000 
     11 CZ         -6.4417   28.5576   23.7363 C.ar      4 PHE5        0.0000 
     12 CZ         -5.6536   26.3611   25.6215 C.ar      4 PHE5        0.0000 
     13 CZ         -5.2595   25.2628   26.5642 C.ar      4 PHE5        0.0000 
     14 OG         -4.8655   24.1645   27.5068 O.2       1 SER1        0.0000 
     15 CZ         -6.6118   28.7369   21.6294 C.ar      4 PHE5        0.0000 
     16 CZ         -6.2178   27.6387   22.5720 C.ar      4 PHE5        0.0000 
     17 CZ         -5.8237   26.5404   23.5147 C.ar      4 PHE5        0.0000 
     18 N          -5.4296   25.4421   24.4573 N.2       2 ALA2        0.0000 
     19 N          -5.0356   24.3439   25.3999 N.2       2 ALA2        0.0000 
     20 O          -4.6415   23.2456   26.3426 O.2       2 ALA2        0.0000 
     21 O          -4.2475   22.1474   27.2852 O.2       2 ALA2        0.0000 
     22 CA         -3.8534   21.0491   28.2278 C.3       5 GLY6        0.0000 
     23 CA         -6.3879   27.8180   20.4652 C.3       5 GLY6        0.0000 
     24 CA         -5.9938   26.7198   21.4078 C.3       5 GLY6        0.0000 
     25 CA         -5.5998   25.6215   22.3504 C.3       5 GLY6        0.0000 
     26 N          -5.2057   24.5232   23.2931 N.2       2 ALA2        0.0000 
     27 O          -4.8117   23.4250   24.2357 O.2       2 ALA2        0.0000 
     28 O          -4.4176   22.3267   25.1783 O.2       2 ALA2        0.0000 
     29 O          -4.0236   21.2284   26.1209 O.2       2 ALA2        0.0000 
     30 O          -6.0775   32.8592   26.2089 O.2       2 ALA2        0.0000 
     31 NZ         -6.2477   33.0385   24.1021 N.2       3 LYS4        0.0000 
     32 NZ         -5.8536   31.9402   25.0447 N.2       3 LYS4        0.0000 
     33 CZ         -5.4596   30.8420   25.9873 C.ar      4 PHE5        0.0000 
     34 CZ         -5.0655   29.7437   26.9299 C.ar      4 PHE5        0.0000 
     35 CZ         -6.0238   32.1196   22.9378 C.ar      4 PHE5        0.0000 
     36 CZ         -5.6297   31.0213   23.8804 C.ar      4 PHE5        0.0000 
     37 CZ         -5.2357   29.9231   24.8231 C.ar      4 PHE5        0.0000 
     38 CZ         -4.8416   28.8248   25.7657 C.ar      4 PHE5        0.0000 
     39 CZ         -5.4058   30.1024   22.7162 C.ar      4 PHE5        0.0000 
     40 CZ         -5.0118   29.0041   23.6588 C.ar      4 PHE5        0.0000 
     41 CZ         -5.1819   29.1835   21.5520 C.ar      4 PHE5        0.0000 
     42 CZ         -4.7879   28.0852   22.4946 C.ar      4 PHE5        0.0000 
     43 CZ         -4.3938   26.9870   23.4372 C.ar      4 PHE5        0.0000 
     44 CZ         -4.9580   28.2646   20.3877 C.ar      4 PHE5        0.0000 
     45 CA         -4.5640   27.1663   21.3303 C.3       5 GLY6        0.0000 
     46 N          -4.1699   26.0680   22.2730 N.2       2 ALA2        0.0000 
     47 CZ        -12.1075   26.0318   20.7750 C.ar      4 PHE5        0.0000 
     48 CZ        -11.7134   24.9336   21.7177 C.ar      4 PHE5        0.0000 
     49 CZ        -11.3194   23.8353   22.6603 C.ar      4 PHE5        0.0000 
     50 OG        -11.8836   25.1129   19.6108 O.2       1 SER1        0.0000 
     51 OG        -11.4895   24.0146   20.5534 O.2       1 SER1        0.0000 
     52 CZ        -11.0955   22.9164   21.4960 C.ar      4 PHE5        0.0000 
     53 OG        -10.8716   21.9975   20.3318 O.2       1 SER1        0.0000 
     54 CA        -10.4775   20.8992   21.2744 C.3       5 GLY6        0.0000 
     55 CZ         -4.1998   31.4679   23.8030 C.ar      4 PHE5        0.0000 
     56 CZ         -3.9759   30.5490   22.6387 C.ar      4 PHE5        0.0000 
     57 CZ         -3.7520   29.6300   21.4745 C.ar      4 PHE5        0.0000 
     58 CZ         -3.3580   28.5318   22.4171 C.ar      4 PHE5        0.0000 
     59 OG         -9.8119   28.2025   17.5706 O.2       1 SER1        0.0000 
     60 CA         -9.4178   27.1043   18.5132 C.3       5 GLY6        0.0000 
     61 CA         -9.0238   26.0060   19.4559 C.3       5 GLY6        0.0000 
     62 CA         -8.6297   24.9077   20.3985 C.3       5 GLY6        0.0000 
     63 CZ         -7.4476   21.6129   23.2264 C.ar      4 PHE5        0.0000 
     64 OG         -7.0535   20.5147   24.1690 O.2       1 SER1        0.0000 
     65 CA         -8.9373   31.9661   26.3638 C.3       5 GLY6        0.0000 
     66 CZ         -8.7134   31.0471   25.1996 C.ar      4 PHE5        0.0000 
     67 CZ         -6.1252   23.5386   29.6911 C.ar      4 PHE5        0.0000 
     68 CZ         -8.2656   29.2093   22.8711 C.ar      4 PHE5        0.0000 
     69 CZ         -6.2953   23.7180   27.5843 C.ar      4 PHE5        0.0000 
     70 CA         -5.9013   22.6197   28.5269 C.3       5 GLY6        0.0000 
     71 CA         -5.5072   21.5215   29.4695 C.3       5 GLY6        0.0000 
     72 CZ         -8.0417   28.2904   21.7069 C.ar      4 PHE5        0.0000 
     73 CZ         -7.6476   27.1921   22.6495 C.ar      4 PHE5        0.0000 
     74 CZ         -7.2536   26.0939   23.5921 C.ar      4 PHE5        0.0000 
     75 CZ         -6.8595   24.9956   24.5348 C.ar      4 PHE5        0.0000 
     76 CZ         -6.4655   23.8973   25.4774 C.ar      4 PHE5        0.0000 
     77 CZ         -6.0714   22.7991   26.4200 C.ar      4 PHE5        0.0000 
     78 CA         -5.6774   21.7008   27.3626 C.3       5 GLY6        0.0000 
     79 OG         -8.2118   28.4697   19.6000 O.2       1 SER1        0.0000 
     80 CA         -7.8178   27.3715   20.5426 C.3       5 GLY6        0.0000 
     81 CA         -7.4237   26.2732   21.4853 C.3       5 GLY6        0.0000 
     82 CA         -7.0297   25.1749   22.4279 C.3       5 GLY6        0.0000 
     83 CZ         -6.6356   24.0767   23.3705 C.ar      4 PHE5        0.0000 
     84 CZ         -6.2416   22.9784   24.3131 C.ar      4 PHE5        0.0000 
     85 OG         -5.8475   21.8802   25.2558 O.2       1 SER1        0.0000 
     86 CA         -5.4535   20.7819   26.1984 C.3       5 GLY6        0.0000 
     87 OG         -8.3820   28.6491   17.4932 O.2       1 SER1        0.0000 
     88 CA         -7.9879   27.5508   18.4358 C.3       5 GLY6        0.0000 
     89 CA         -5.6236   20.9612   24.0915 C.3       5 GLY6        0.0000 
     90 CZ        -11.0716   27.5766   19.7549 C.ar      4 PHE5        0.0000 
     91 CZ        -10.2835   25.3801   21.6402 C.ar      4 PHE5        0.0000 
     92 CZ         -9.8895   24.2818   22.5828 C.ar      4 PHE5        0.0000 
     93 CZ         -9.4954   23.1836   23.5254 C.ar      4 PHE5        0.0000 
     94 O         -11.2418   27.7560   17.6481 O.2       2 ALA2        0.0000 
     95 DU        -10.8477   26.6577   18.5907 H         6 CUB7        0.0000 
     96 CZ        -10.4537   25.5594   19.5333 C.ar      4 PHE5        0.0000 
     97 DU        -10.0596   24.4612   20.4760 H         6 CUB7        0.0000 
     98 CZ         -9.6656   23.3629   21.4186 C.ar      4 PHE5        0.0000 
     99 CZ         -9.2715   22.2647   22.3612 C.ar      4 PHE5        0.0000 
    100 CZ         -8.8775   21.1664   23.3038 C.ar      4 PHE5        0.0000 
    101 CA        -10.2298   24.6405   18.3691 C.3       5 GLY6        0.0000 
    102 OG         -9.8357   23.5423   19.3117 O.2       1 SER1        0.0000 
    103 CZ         -7.5551   23.0921   29.7686 C.ar      4 PHE5        0.0000 
    104 CZ         -7.7252   23.2714   27.6617 C.ar      4 PHE5        0.0000 
    105 CA         -7.3312   22.1732   28.6043 C.3       5 GLY6        0.0000 
    106 CZ         -7.8954   23.4508   25.5549 C.ar      4 PHE5        0.0000 
    107 CZ         -7.5013   22.3525   26.4975 C.ar      4 PHE5        0.0000 
    108 OG        -10.0358   29.1214   18.7349 O.2       1 SER1        0.0000 
    109 CZ         -9.6417   28.0232   19.6775 C.ar      4 PHE5        0.0000 
    110 CZ         -9.2477   26.9249   20.6201 C.ar      4 PHE5        0.0000 
    111 CZ         -8.8536   25.8267   21.5627 C.ar      4 PHE5        0.0000 
    112 CZ         -8.4596   24.7284   22.5054 C.ar      4 PHE5        0.0000 
    113 CZ         -8.0655   23.6301   23.4480 C.ar      4 PHE5        0.0000 
    114 CZ         -7.6715   22.5319   24.3906 C.ar      4 PHE5        0.0000 
    115 CA         -7.2774   21.4336   25.3332 C.3       5 GLY6        0.0000 
@<TRIPOS>BOND
@<TRIPOS>SUBSTRUCTURE
     1 SER1        9 GROUP   
     2 ALA2       18 GROUP   
     3 LYS4        3 GROUP   
     4 PHE5        2 GROUP   
     5 GLY6        1 GROUP   
     6 CUB7        4 GROUP   
@<TRIPOS>SET

