#    Name: 4dbu_BT9_1_INTS_M
#    Modification time : Tue Mar 25 09:34:20 2014

@<TRIPOS>MOLECULE
4dbu_BT9_1_INTS_M
   33     0     6     0     0
SMALL
NO_CHARGES


@<TRIPOS>ATOM
      1 CA         -4.7830   20.8795   24.7765 C.3       2 GLC5        0.0000 
      2 CA         -6.0830   22.3970   25.6740 C.3       6 GLL5        0.0000 
      3 CA         -3.4830   19.3620   23.8790 C.3       4 GLP5        0.0000 
      4 CA         -6.1745   26.0180   28.0555 C.3       2 GLC5        0.0000 
      5 CA         -5.3300   24.4340   26.7070 C.3       6 GLL5        0.0000 
      6 CA         -7.0190   27.6020   29.4040 C.3       4 GLP5        0.0000 
      7 N          -1.5160   28.2770   21.2725 N.am      1 SEC2        0.0000 
      8 N          -2.5850   27.8330   21.9600 N.am      5 SEL2        0.0000 
      9 N          -0.4470   28.7210   20.5850 N.am      3 SEP2        0.0000 
     10 N          -2.4500   26.2360   21.5825 N.am      1 SEC2        0.0000 
     11 N          -2.3150   24.6390   21.2050 N.am      3 SEP2        0.0000 
     12 CA         -4.0905   20.2055   25.8065 C.3       2 GLC5        0.0000 
     13 CA         -4.6980   21.0490   27.7340 C.3       6 GLL5        0.0000 
     14 CA         -7.1765   24.0715   28.4775 C.3       2 GLC5        0.0000 
     15 CA         -6.0640   22.2540   28.8760 C.3       6 GLL5        0.0000 
     16 CA         -8.2890   25.8890   28.0790 C.3       4 GLP5        0.0000 
     17 CA         -5.6305   22.5405   30.9785 C.3       2 GLC5        0.0000 
     18 CA         -5.1970   22.8270   33.0810 C.3       4 GLP5        0.0000 
     19 CA         -6.3178   27.0390   20.4755 C.3       2 GLC5        0.0000 
     20 CA         -7.2890   28.4640   21.8220 C.3       6 GLL5        0.0000 
     21 CA         -5.9970   25.3670   19.2010 C.3       4 GLP5        0.0000 
     22 CA         -6.4802   26.0812   20.8775 C.3       2 GLC5        0.0000 
     23 CA         -7.5060   27.1970   22.3550 C.3       6 GLL5        0.0000 
     24 CA         -5.5045   26.4503   20.7710 C.3       2 GLC5        0.0000 
     25 CA         -5.1250   26.8970   22.6090 C.3       6 GLL5        0.0000 
     26 CA         -6.3835   20.9047   26.8122 C.3       2 GLC5        0.0000 
     27 CA         -6.9720   19.0850   27.4030 C.3       4 GLP5        0.0000 
     28 CA         -6.2245   20.5233   27.8859 C.3       2 GLC5        0.0000 
     29 CA         -2.8120   21.7037   27.9129 C.3       2 GLC5        0.0000 
     30 CA         -1.1440   21.1100   27.6170 C.3       4 GLP5        0.0000 
     31 CA         -4.4372   20.9389   29.6112 C.3       2 GLC5        0.0000 
     32 CA         -4.0700   22.9260   28.5560 C.3       6 GLL5        0.0000 
     33 CA         -4.1010   19.4340   30.7600 C.3       4 GLP5        0.0000 
@<TRIPOS>BOND
@<TRIPOS>SUBSTRUCTURE
     1 SEC2        7 GROUP        1 X    SEC  0     ROOT SEC X 2
     2 GLC5        1 GROUP        1 X    GLC  0     **** GLC X 6
     3 SEP2        9 GROUP        1 Y    SEP  0     ROOT SEP Y 9
     4 GLP5        3 GROUP        1 Y    GLP  0     **** GLP Y 13
     5 SEL2        8 GROUP        1 Z    SEL  0     ROOT SEL Z 16
     6 GLL5        2 GROUP        1 Z    GLL  0     **** GLL Z 20
@<TRIPOS>SET

