#    Name: 4dbu_BT9_1_ligand
#    Modification time : Tue Mar 25 09:34:20 2014

@<TRIPOS>MOLECULE
4dbu_BT9_1_ligand
   29    30     1     0     0
SMALL
NO_CHARGES


@<TRIPOS>ATOM
      1 C01        -5.9880   28.9580   21.6780 C.ar      1 BT9402      0.0000 
      2 C02        -7.2890   28.4640   21.8220 C.ar      1 BT9402      0.0000 
      3 C03        -7.5060   27.1970   22.3550 C.ar      1 BT9402      0.0000 
      4 C04        -6.4210   26.3940   22.7530 C.ar      1 BT9402      0.0000 
      5 C05        -5.1250   26.8970   22.6090 C.ar      1 BT9402      0.0000 
      6 C06        -4.8990   28.1700   22.0730 C.ar      1 BT9402      0.0000 
      7 N07        -6.7360   25.1440   23.3100 N.pl3     1 BT9402      0.0000 
      8 C08        -6.2990   24.5030   24.4810 C.ar      1 BT9402      0.0000 
      9 C09        -6.4780   23.1110   24.5440 C.ar      1 BT9402      0.0000 
     10 C10        -6.0830   22.3970   25.6740 C.ar      1 BT9402      0.0000 
     11 C11        -5.5070   23.0520   26.7690 C.ar      1 BT9402      0.0000 
     12 C12        -5.3300   24.4340   26.7070 C.ar      1 BT9402      0.0000 
     13 C13        -5.7160   25.1510   25.5790 C.ar      1 BT9402      0.0000 
     14 C14        -3.5000   28.6550   21.9290 C.2       1 BT9402      0.0000 
     15 O15        -2.5850   27.8330   21.9600 O.co2     1 BT9402      0.0000 
     16 O16        -3.2170   29.9650   21.7480 O.co2     1 BT9402      0.0000 
     17 C17        -5.0820   22.2890   27.9890 C.3       1 BT9402      0.0000 
     18 F18        -4.6980   21.0490   27.7340 F         1 BT9402      0.0000 
     19 F19        -6.0640   22.2540   28.8760 F         1 BT9402      0.0000 
     20 F20        -4.0700   22.9260   28.5560 F         1 BT9402      0.0000 
     21 H          -5.8317   29.8899   21.2863 H         1 BT9402      0.0000 
     22 H          -8.0883   29.0438   21.5309 H         1 BT9402      0.0000 
     23 H          -8.4644   26.8383   22.4617 H         1 BT9402      0.0000 
     24 H          -4.3196   26.3201   22.9029 H         1 BT9402      0.0000 
     25 H          -7.4642   24.5539   22.7158 H         1 BT9402      0.0000 
     26 H          -6.9045   22.6191   23.7471 H         1 BT9402      0.0000 
     27 H          -6.2154   21.3747   25.7064 H         1 BT9402      0.0000 
     28 H          -4.9073   24.9295   27.5086 H         1 BT9402      0.0000 
     29 H          -5.5734   26.1726   25.5456 H         1 BT9402      0.0000 
@<TRIPOS>BOND
     1    2    1 ar   
     2    6    1 ar   
     3   21    1 1    
     4    3    2 ar   
     5   22    2 1    
     6    4    3 ar   
     7   23    3 1    
     8    5    4 ar   
     9    7    4 1    
    10    6    5 ar   
    11   24    5 1    
    12   14    6 1    
    13    8    7 1    
    14   25    7 1    
    15    9    8 ar   
    16   13    8 ar   
    17   10    9 ar   
    18   26    9 1    
    19   11   10 ar   
    20   27   10 1    
    21   12   11 ar   
    22   17   11 1    
    23   13   12 ar   
    24   28   12 1    
    25   29   13 1    
    26   15   14 ar   
    27   16   14 ar   
    28   18   17 1    
    29   19   17 1    
    30   20   17 1    
@<TRIPOS>SUBSTRUCTURE
     1 BT9402      1 GROUP   
@<TRIPOS>SET

