#    Name: 3pls_ANP_1_INTS_M
#    Modification time : Tue Mar 25 08:10:03 2014

@<TRIPOS>MOLECULE
3pls_ANP_1_INTS_M
   50     0    15     0     0
SMALL
NO_CHARGES


@<TRIPOS>ATOM
      1 Zn         26.6455   21.7045    6.7740 Zn        4 ZIC7        0.0000 
      2 Zn         26.1190   21.9020    7.8740 Zn       14 ZIL7        0.0000 
      3 Zn         27.1720   21.5070    5.6740 Zn        9 ZIP7        0.0000 
      4 N          24.7730   21.4070    7.7960 N.am      2 SEC2        0.0000 
      5 N          26.1190   21.9020    7.8740 N.am     12 SEL2        0.0000 
      6 N          23.4270   20.9120    7.7180 N.am      7 SEP2        0.0000 
      7 NZ         29.6160   19.9015    7.4670 N.4       3 LYC4        0.0000 
      8 NZ         28.3690   20.8610    7.8730 N.4      13 LYL4        0.0000 
      9 NZ         30.8630   18.9420    7.0610 N.4       8 LYP4        0.0000 
     10 Zn         27.7705   21.1840    6.7735 Zn        4 ZIC7        0.0000 
     11 Zn         28.3690   20.8610    7.8730 Zn       14 ZIL7        0.0000 
     12 N          29.6160   19.9015    7.4670 N.am      2 SEC2        0.0000 
     13 N          28.3690   20.8610    7.8730 N.am     12 SEL2        0.0000 
     14 N          30.8630   18.9420    7.0610 N.am      7 SEP2        0.0000 
     15 CA         33.2140   25.6065    8.5870 C.3       5 GLC5        0.0000 
     16 CA         31.2780   24.6590    8.9430 C.3      15 GLL5        0.0000 
     17 CA         35.1500   26.5540    8.2310 C.3      10 GLP5        0.0000 
     18 CA         33.6055   25.7710    7.5060 C.3       5 GLC5        0.0000 
     19 CA         32.0610   24.9880    6.7810 C.3      15 GLL5        0.0000 
     20 CA         32.9375   23.3695    7.9525 C.3       5 GLC5        0.0000 
     21 CA         33.8140   21.7510    9.1240 C.3      10 GLP5        0.0000 
     22 CA         36.6090   24.3715    1.7130 C.3       5 GLC5        0.0000 
     23 CA         34.7900   23.7140    2.8320 C.3      15 GLL5        0.0000 
     24 CA         38.4280   25.0290    0.5940 C.3      10 GLP5        0.0000 
     25 CA         34.4565   25.0795    1.1555 C.3       5 GLC5        0.0000 
     26 CA         34.1230   26.4450   -0.5210 C.3      10 GLP5        0.0000 
     27 O          35.9635   22.8240    0.8720 O.2       1 ALC1        0.0000 
     28 O          35.1150   22.7370    1.9710 O.2      11 ALL1        0.0000 
     29 O          36.8120   22.9110   -0.2270 O.2       6 ALP1        0.0000 
     30 N          35.8955   25.6145    1.4690 N.am      2 SEC2        0.0000 
     31 N          35.3560   24.9390    2.7380 N.am     12 SEL2        0.0000 
     32 N          36.4350   26.2900    0.2000 N.am      7 SEP2        0.0000 
     33 CA         36.4335   25.7405    5.3030 C.3       5 GLC5        0.0000 
     34 CA         35.0440   25.9280    3.5940 C.3      15 GLL5        0.0000 
     35 CA         37.8230   25.5530    7.0120 C.3      10 GLP5        0.0000 
     36 CA         34.5835   26.1865    1.5365 C.3       5 GLC5        0.0000 
     37 CA         33.2265   25.8735    3.1280 C.3       5 GLC5        0.0000 
     38 CA         31.4090   25.8190    2.6620 C.3      10 GLP5        0.0000 
     39 CA         34.3365   25.5760    6.5150 C.3       5 GLC5        0.0000 
     40 CA         33.5230   24.5980    4.7990 C.3      15 GLL5        0.0000 
     41 CA         34.7035   23.5065    6.3525 C.3       5 GLC5        0.0000 
     42 CA         35.8840   22.4150    7.9060 C.3      10 GLP5        0.0000 
     43 CA         32.1210   24.5748   10.6780 C.3       5 GLC5        0.0000 
     44 CA         33.2260   25.1320   12.1030 C.3      10 GLP5        0.0000 
     45 CA         32.4150   22.8843    9.1885 C.3       5 GLC5        0.0000 
     46 CA         31.3570   25.4555    4.7073 C.3       5 GLC5        0.0000 
     47 CA         36.1538   23.0065    3.9363 C.3       5 GLC5        0.0000 
     48 CA         33.8110   23.4680    3.9110 C.3      15 GLL5        0.0000 
     49 CA         38.0070   22.4220    4.5010 C.3      10 GLP5        0.0000 
     50 CA         32.6604   24.9567    3.3736 C.3       5 GLC5        0.0000 
@<TRIPOS>BOND
@<TRIPOS>SUBSTRUCTURE
     1 ALC1       27 GROUP        1 X    ALC  0     ROOT ALC X 1
     2 SEC2        4 GROUP        1 X    SEC  0     **** SEC X 2
     3 LYC4        7 GROUP        1 X    LYC  0     **** LYC X 4
     4 ZIC7        1 GROUP        1 X    ZIC  0     **** ZIC X 5
     5 GLC5       15 GROUP        1 X    GLC  0     **** GLC X 6
     6 ALP1       29 GROUP        1 Y    ALP  0     ROOT ALP Y 8
     7 SEP2        6 GROUP        1 Y    SEP  0     **** SEP Y 9
     8 LYP4        9 GROUP        1 Y    LYP  0     **** LYP Y 11
     9 ZIP7        3 GROUP        1 Y    ZIP  0     **** ZIP Y 12
    10 GLP5       17 GROUP        1 Y    GLP  0     **** GLP Y 13
    11 ALL1       28 GROUP        1 Z    ALL  0     ROOT ALL Z 15
    12 SEL2        5 GROUP        1 Z    SEL  0     **** SEL Z 16
    13 LYL4        8 GROUP        1 Z    LYL  0     **** LYL Z 18
    14 ZIL7        2 GROUP        1 Z    ZIL  0     **** ZIL Z 19
    15 GLL5       16 GROUP        1 Z    GLL  0     **** GLL Z 20
@<TRIPOS>SET

