#    Name: 3pls_ANP_1_ligand
#    Modification time : Tue Mar 25 08:10:03 2014

@<TRIPOS>MOLECULE
3pls_ANP_1_ligand
   43    45     1     0     0
SMALL
NO_CHARGES


@<TRIPOS>ATOM
      1 PG         25.9660   25.9240    9.3690 P.3       1 ANP1358     0.0000 
      2 O1G        26.0040   25.3730   10.7850 O.co2     1 ANP1358     0.0000 
      3 O2G        24.6310   26.5400    8.9590 O.co2     1 ANP1358     0.0000 
      4 O3G        27.1450   26.8420    9.0820 O.co2     1 ANP1358     0.0000 
      5 PB         26.3440   22.9120    8.9560 P.3       1 ANP1358     0.0000 
      6 O1B        26.1190   21.9020    7.8740 O.co2     1 ANP1358     0.0000 
      7 O2B        25.4590   22.6880   10.1500 O.co2     1 ANP1358     0.0000 
      8 N3B        26.2060   24.5270    8.3160 N.4       1 ANP1358     0.0000 
      9 PA         28.9210   21.6400    9.0300 P.3       1 ANP1358     0.0000 
     10 O1A        28.3690   20.8610    7.8730 O.co2     1 ANP1358     0.0000 
     11 O2A        29.3570   20.9140   10.2800 O.co2     1 ANP1358     0.0000 
     12 O3A        27.8520   22.7530    9.4960 O.3       1 ANP1358     0.0000 
     13 O5'        30.1380   22.5620    8.5660 O.3       1 ANP1358     0.0000 
     14 C5'        30.7540   23.3760    9.5630 C.3       1 ANP1358     0.0000 
     15 C4'        31.2780   24.6590    8.9430 C.3       1 ANP1358     0.0000 
     16 O4'        32.3030   24.3320    8.0200 O.3       1 ANP1358     0.0000 
     17 C3'        30.2200   25.4240    8.1830 C.3       1 ANP1358     0.0000 
     18 O3'        30.3340   26.8060    8.5340 O.3       1 ANP1358     0.0000 
     19 C2'        30.5490   25.1960    6.7240 C.3       1 ANP1358     0.0000 
     20 O2'        30.1430   26.2960    5.8910 O.3       1 ANP1358     0.0000 
     21 C1'        32.0610   24.9880    6.7810 C.3       1 ANP1358     0.0000 
     22 N9         32.6220   24.1600    5.6780 N.pl3     1 ANP1358     0.0000 
     23 C8         32.3440   22.8640    5.4150 C.2       1 ANP1358     0.0000 
     24 N7         33.0580   22.4350    4.3370 N.2       1 ANP1358     0.0000 
     25 C5         33.8110   23.4680    3.9110 C.ar      1 ANP1358     0.0000 
     26 C6         34.7900   23.7140    2.8320 C.ar      1 ANP1358     0.0000 
     27 N6         35.1150   22.7370    1.9710 N.pl3     1 ANP1358     0.0000 
     28 N1         35.3560   24.9390    2.7380 N.ar      1 ANP1358     0.0000 
     29 C2         35.0440   25.9280    3.5940 C.ar      1 ANP1358     0.0000 
     30 N3         34.1550   25.7750    4.5910 N.ar      1 ANP1358     0.0000 
     31 C4         33.5230   24.5980    4.7990 C.ar      1 ANP1358     0.0000 
     32 H          31.5998   22.8609   10.0400 H         1 ANP1358     0.0000 
     33 H          30.0448   23.6492   10.3571 H         1 ANP1358     0.0000 
     34 H          31.6650   25.2917    9.7274 H         1 ANP1358     0.0000 
     35 H          29.2771   25.0108    8.4027 H         1 ANP1358     0.0000 
     36 H          30.1084   24.2590    6.4388 H         1 ANP1358     0.0000 
     37 H          32.5302   25.9628    6.7896 H         1 ANP1358     0.0000 
     38 H          31.7216   22.3093    5.9213 H         1 ANP1358     0.0000 
     39 H          35.4171   23.0319    1.0645 H         1 ANP1358     0.0000 
     40 H          35.0260   21.8015    2.3130 H         1 ANP1358     0.0000 
     41 H          35.5205   26.8708    3.4774 H         1 ANP1358     0.0000 
     42 H          29.4086   27.0849    8.7907 H         1 ANP1358     0.0000 
     43 H          30.0315   27.0675    6.5175 H         1 ANP1358     0.0000 
@<TRIPOS>BOND
     1    2    1 ar   
     2    3    1 ar   
     3    4    1 ar   
     4    8    1 1    
     5    6    5 ar   
     6    7    5 ar   
     7    8    5 1    
     8   12    5 1    
     9   10    9 ar   
    10   11    9 ar   
    11   12    9 1    
    12   13    9 1    
    13   14   13 1    
    14   15   14 1    
    15   32   14 1    
    16   33   14 1    
    17   16   15 1    
    18   17   15 1    
    19   34   15 1    
    20   21   16 1    
    21   18   17 1    
    22   19   17 1    
    23   35   17 1    
    24   42   18 1    
    25   20   19 1    
    26   21   19 1    
    27   36   19 1    
    28   43   20 1    
    29   22   21 1    
    30   37   21 1    
    31   23   22 1    
    32   31   22 1    
    33   24   23 2    
    34   38   23 1    
    35   25   24 1    
    36   26   25 ar   
    37   31   25 ar   
    38   27   26 1    
    39   28   26 ar   
    40   39   27 1    
    41   40   27 1    
    42   29   28 ar   
    43   30   29 ar   
    44   41   29 1    
    45   31   30 ar   
@<TRIPOS>SUBSTRUCTURE
     1 ANP1358     1 GROUP   
@<TRIPOS>SET

