#    Name: 2ixe_ATP_2_INTS_M
#    Modification time : Tue Mar 25 18:58:02 2014

@<TRIPOS>MOLECULE
2ixe_ATP_2_INTS_M
   78     0    15     0     0
SMALL
NO_CHARGES


@<TRIPOS>ATOM
      1 NZ        -29.8080    6.6795   -6.3625 N.4       3 LYC4        0.0000 
      2 NZ        -28.6650    6.9870   -7.0030 N.4      13 LYL4        0.0000 
      3 NZ        -30.9510    6.3720   -5.7220 N.4       8 LYP4        0.0000 
      4 N         -27.2815    6.3675   -6.9005 N.am      2 SEC2        0.0000 
      5 N         -28.6650    6.9870   -7.0030 N.am     12 SEL2        0.0000 
      6 N         -25.8980    5.7480   -6.7980 N.am      7 SEP2        0.0000 
      7 N         -29.8080    6.6795   -6.3625 N.am      2 SEC2        0.0000 
      8 N         -30.9510    6.3720   -5.7220 N.am      7 SEP2        0.0000 
      9 N         -28.3145    6.8690   -5.5735 N.am      2 SEC2        0.0000 
     10 N         -27.9640    6.7510   -4.1440 N.am      7 SEP2        0.0000 
     11 N         -27.2985    6.2580  -10.3525 N.am      2 SEC2        0.0000 
     12 N         -27.2830    6.7380   -9.0920 N.am     12 SEL2        0.0000 
     13 N         -27.3140    5.7780  -11.6130 N.am      7 SEP2        0.0000 
     14 N         -26.1200    7.4240   -9.5135 N.am      2 SEC2        0.0000 
     15 N         -24.9570    8.1100   -9.9350 N.am      7 SEP2        0.0000 
     16 N         -26.5905    6.2430   -7.9450 N.am      2 SEC2        0.0000 
     17 Zn        -29.4880    9.3820   -9.0855 Zn        4 ZIC7        0.0000 
     18 Zn        -28.6980    8.8250   -8.7450 Zn       14 ZIL7        0.0000 
     19 Zn        -30.2780    9.9390   -9.4260 Zn        9 ZIP7        0.0000 
     20 NZ        -31.4825    6.2155   -7.0095 N.4       3 LYC4        0.0000 
     21 NZ        -32.0140    6.0590   -8.2970 N.4      13 LYL4        0.0000 
     22 N         -33.0985    5.1555   -8.8035 N.am      2 SEC2        0.0000 
     23 N         -32.0140    6.0590   -8.2970 N.am     12 SEL2        0.0000 
     24 N         -34.1830    4.2520   -9.3100 N.am      7 SEP2        0.0000 
     25 N         -33.3620    6.4800   -8.3880 N.am      2 SEC2        0.0000 
     26 N         -34.7100    6.9010   -8.4790 N.am      7 SEP2        0.0000 
     27 N         -31.4825    6.2155   -7.0095 N.am      2 SEC2        0.0000 
     28 Zn        -30.9185    9.1405   -9.4635 Zn        4 ZIC7        0.0000 
     29 Zn        -31.5590    8.3420   -9.5010 Zn       14 ZIL7        0.0000 
     30 N         -32.8590    8.9610   -9.4875 N.am      2 SEC2        0.0000 
     31 N         -31.5590    8.3420   -9.5010 N.am     12 SEL2        0.0000 
     32 N         -34.1590    9.5800   -9.4740 N.am      7 SEP2        0.0000 
     33 N         -29.5380    5.1070   -9.3130 N.am      2 SEC2        0.0000 
     34 N         -29.6910    6.5510   -9.2370 N.am     12 SEL2        0.0000 
     35 N         -29.3850    3.6630   -9.3890 N.am      7 SEP2        0.0000 
     36 N         -34.6830    8.2480  -11.8215 N.am      2 SEC2        0.0000 
     37 N         -33.7020    7.1620  -11.9070 N.am     12 SEL2        0.0000 
     38 N         -35.6640    9.3340  -11.7360 N.am      7 SEP2        0.0000 
     39 N         -34.6640    7.2225  -12.8165 N.am      2 SEC2        0.0000 
     40 N         -35.6260    7.2830  -13.7260 N.am      7 SEP2        0.0000 
     41 N         -32.9175    5.1975  -10.0135 N.am      2 SEC2        0.0000 
     42 N         -31.6520    6.1430  -10.7170 N.am     12 SEL2        0.0000 
     43 CA        -31.5590    3.8150  -11.7500 C.3       5 GLC5        0.0000 
     44 CA        -32.8880    4.5690  -13.0930 C.3      15 GLL5        0.0000 
     45 CA        -30.2300    3.0610  -10.4070 C.3      10 GLP5        0.0000 
     46 CA        -34.0475    4.8075  -11.5415 C.3       5 GLC5        0.0000 
     47 CA        -35.2070    5.0460   -9.9900 C.3      10 GLP5        0.0000 
     48 CA        -30.6245    3.3350  -12.4315 C.3       5 GLC5        0.0000 
     49 CA        -31.0190    3.6090  -14.4560 C.3      15 GLL5        0.0000 
     50 N         -29.2555    2.2080  -13.8250 N.am      2 SEC2        0.0000 
     51 N         -30.6410    2.2490  -14.6820 N.am     12 SEL2        0.0000 
     52 N         -27.8700    2.1670  -12.9680 N.am      7 SEP2        0.0000 
     53 CA        -28.8435    5.6465  -16.2120 C.3       5 GLC5        0.0000 
     54 CA        -30.6540    4.5280  -15.6000 C.3      15 GLL5        0.0000 
     55 CA        -27.0330    6.7650  -16.8240 C.3      10 GLP5        0.0000 
     56 O         -28.5080    3.9575  -15.3665 O.2       1 ALC1        0.0000 
     57 O         -29.5810    4.0260  -16.3980 O.2      11 ALL1        0.0000 
     58 O         -27.4350    3.8890  -14.3350 O.2       6 ALP1        0.0000 
     59 CA        -33.7990    5.6020  -16.7810 C.3       5 GLC5        0.0000 
     60 CA        -31.9450    4.6570  -16.3970 C.3      15 GLL5        0.0000 
     61 CA        -35.6530    6.5470  -17.1650 C.3      10 GLP5        0.0000 
     62 CA        -30.6785    8.0885  -19.0660 C.3       5 GLC5        0.0000 
     63 CA        -32.5060    7.6480  -18.4560 C.3      15 GLL5        0.0000 
     64 CA        -28.8510    8.5290  -19.6760 C.3      10 GLP5        0.0000 
     65 CA        -31.0535    7.9770  -20.3795 C.3       5 GLC5        0.0000 
     66 CA        -32.8770    8.1460  -19.7960 C.3      15 GLL5        0.0000 
     67 CA        -29.2300    7.8080  -20.9630 C.3      10 GLP5        0.0000 
     68 CA        -31.1600    6.8580  -20.7455 C.3       5 GLC5        0.0000 
     69 CA        -33.0900    5.9080  -20.5280 C.3      15 GLL5        0.0000 
     70 CA        -34.9280    5.8205  -20.6180 C.3       5 GLC5        0.0000 
     71 CA        -36.7660    5.7330  -20.7080 C.3      10 GLP5        0.0000 
     72 CA        -33.2335    4.6350  -22.0705 C.3       5 GLC5        0.0000 
     73 CA        -33.3770    3.3620  -23.6130 C.3      10 GLP5        0.0000 
     74 CA        -30.8455    7.0010  -19.6215 C.3       5 GLC5        0.0000 
     75 CA        -32.4610    6.1940  -18.2800 C.3      15 GLL5        0.0000 
     76 CA        -34.5605    3.9680  -13.6768 C.3       5 GLC5        0.0000 
     77 CA        -32.5340    3.7430  -14.3200 C.3      15 GLL5        0.0000 
     78 CA        -36.4100    3.7800  -13.6470 C.3      10 GLP5        0.0000 
@<TRIPOS>BOND
@<TRIPOS>SUBSTRUCTURE
     1 ALC1       56 GROUP        1 X    ALC  0     ROOT ALC X 1
     2 SEC2        4 GROUP        1 X    SEC  0     **** SEC X 2
     3 LYC4        1 GROUP        1 X    LYC  0     **** LYC X 4
     4 ZIC7       17 GROUP        1 X    ZIC  0     **** ZIC X 5
     5 GLC5       43 GROUP        1 X    GLC  0     **** GLC X 6
     6 ALP1       58 GROUP        1 Y    ALP  0     ROOT ALP Y 8
     7 SEP2        6 GROUP        1 Y    SEP  0     **** SEP Y 9
     8 LYP4        3 GROUP        1 Y    LYP  0     **** LYP Y 11
     9 ZIP7       19 GROUP        1 Y    ZIP  0     **** ZIP Y 12
    10 GLP5       45 GROUP        1 Y    GLP  0     **** GLP Y 13
    11 ALL1       57 GROUP        1 Z    ALL  0     ROOT ALL Z 15
    12 SEL2        5 GROUP        1 Z    SEL  0     **** SEL Z 16
    13 LYL4        2 GROUP        1 Z    LYL  0     **** LYL Z 18
    14 ZIL7       18 GROUP        1 Z    ZIL  0     **** ZIL Z 19
    15 GLL5       44 GROUP        1 Z    GLL  0     **** GLL Z 20
@<TRIPOS>SET

