#    Name: 2ixe_ATP_2_ligand
#    Modification time : Tue Mar 25 18:58:02 2014

@<TRIPOS>MOLECULE
2ixe_ATP_2_ligand
   43    45     1     0     0
SMALL
NO_CHARGES


@<TRIPOS>ATOM
      1 PG        -28.5080    7.3550   -8.4570 P.3       1 ATP1        0.0000 
      2 O1G       -28.6650    6.9870   -7.0030 O.co2     1 ATP1        0.0000 
      3 O2G       -27.2830    6.7380   -9.0920 O.co2     1 ATP1        0.0000 
      4 O3G       -28.6980    8.8250   -8.7450 O.co2     1 ATP1        0.0000 
      5 PB        -31.2750    6.8720   -9.3370 P.3       1 ATP1        0.0000 
      6 O1B       -32.0140    6.0590   -8.2970 O.co2     1 ATP1        0.0000 
      7 O2B       -31.5590    8.3420   -9.5010 O.co2     1 ATP1        0.0000 
      8 O3B       -29.6910    6.5510   -9.2370 O.3       1 ATP1        0.0000 
      9 PA        -32.2270    6.8940  -12.0320 P.3       1 ATP1        0.0000 
     10 O1A       -33.7020    7.1620  -11.9070 O.co2     1 ATP1        0.0000 
     11 O2A       -31.2870    7.9900  -12.4660 O.co2     1 ATP1        0.0000 
     12 O3A       -31.6520    6.1430  -10.7170 O.3       1 ATP1        0.0000 
     13 O5'       -32.0170    5.6970  -13.0830 O.3       1 ATP1        0.0000 
     14 C5'       -32.8880    4.5690  -13.0930 C.3       1 ATP1        0.0000 
     15 C4'       -32.5340    3.7430  -14.3200 C.3       1 ATP1        0.0000 
     16 O4'       -33.0180    4.4200  -15.4810 O.3       1 ATP1        0.0000 
     17 C3'       -31.0190    3.6090  -14.4560 C.3       1 ATP1        0.0000 
     18 O3'       -30.6410    2.2490  -14.6820 O.3       1 ATP1        0.0000 
     19 C2'       -30.6540    4.5280  -15.6000 C.3       1 ATP1        0.0000 
     20 O2'       -29.5810    4.0260  -16.3980 O.3       1 ATP1        0.0000 
     21 C1'       -31.9450    4.6570  -16.3970 C.3       1 ATP1        0.0000 
     22 N9        -32.1030    5.9940  -17.0130 N.pl3     1 ATP1        0.0000 
     23 C8        -31.9370    7.1860  -16.4070 C.2       1 ATP1        0.0000 
     24 N7        -32.1770    8.1970  -17.2750 N.2       1 ATP1        0.0000 
     25 C5        -32.5060    7.6480  -18.4560 C.ar      1 ATP1        0.0000 
     26 C6        -32.8770    8.1460  -19.7960 C.ar      1 ATP1        0.0000 
     27 N6        -32.9420    9.4720  -20.0330 N.pl3     1 ATP1        0.0000 
     28 N1        -33.1500    7.2400  -20.7600 N.ar      1 ATP1        0.0000 
     29 C2        -33.0900    5.9080  -20.5280 C.ar      1 ATP1        0.0000 
     30 N3        -32.7550    5.3890  -19.3320 N.ar      1 ATP1        0.0000 
     31 C4        -32.4610    6.1940  -18.2800 C.ar      1 ATP1        0.0000 
     32 H         -33.9315    4.8606  -13.1714 H         1 ATP1        0.0000 
     33 H         -32.7550    3.9437  -12.2147 H         1 ATP1        0.0000 
     34 H         -32.9595    2.7715  -14.2259 H         1 ATP1        0.0000 
     35 H         -30.5852    4.0139  -13.5532 H         1 ATP1        0.0000 
     36 H         -30.4413    5.5018  -15.1819 H         1 ATP1        0.0000 
     37 H         -31.9390    3.8952  -17.1633 H         1 ATP1        0.0000 
     38 H         -31.6792    7.3078  -15.4708 H         1 ATP1        0.0000 
     39 H         -32.7413   10.0683  -19.2557 H         1 ATP1        0.0000 
     40 H         -33.1851    9.7410  -20.9649 H         1 ATP1        0.0000 
     41 H         -33.3176    5.2461  -21.3261 H         1 ATP1        0.0000 
     42 H         -30.1557    2.2572  -15.5563 H         1 ATP1        0.0000 
     43 H         -28.8069    3.9462  -15.7700 H         1 ATP1        0.0000 
@<TRIPOS>BOND
     1    2    1 ar   
     2    3    1 ar   
     3    4    1 ar   
     4    8    1 1    
     5    6    5 ar   
     6    7    5 ar   
     7    8    5 1    
     8   12    5 1    
     9   10    9 ar   
    10   11    9 ar   
    11   12    9 1    
    12   13    9 1    
    13   14   13 1    
    14   15   14 1    
    15   32   14 1    
    16   33   14 1    
    17   16   15 1    
    18   17   15 1    
    19   34   15 1    
    20   21   16 1    
    21   18   17 1    
    22   19   17 1    
    23   35   17 1    
    24   42   18 1    
    25   20   19 1    
    26   21   19 1    
    27   36   19 1    
    28   43   20 1    
    29   22   21 1    
    30   37   21 1    
    31   23   22 1    
    32   31   22 1    
    33   24   23 2    
    34   38   23 1    
    35   25   24 1    
    36   26   25 ar   
    37   31   25 ar   
    38   27   26 1    
    39   28   26 ar   
    40   39   27 1    
    41   40   27 1    
    42   29   28 ar   
    43   30   29 ar   
    44   41   29 1    
    45   31   30 ar   
@<TRIPOS>SUBSTRUCTURE
     1 ATP1        1 GROUP   
@<TRIPOS>SET

