#    Name: 1uxt_NAD_1_INTS_M
#    Modification time : Tue Mar 25 07:15:44 2014

@<TRIPOS>MOLECULE
1uxt_NAD_1_INTS_M
  100     0     9     0     0
SMALL
NO_CHARGES


@<TRIPOS>ATOM
      1 N         -21.3035   59.9340   11.6750 N.am      2 SEC2        0.0000 
      2 N         -20.0980   59.4690   12.1050 N.am      8 SEL2        0.0000 
      3 N         -22.5090   60.3990   11.2450 N.am      5 SEP2        0.0000 
      4 N         -20.7800   58.6260   11.4005 N.am      2 SEC2        0.0000 
      5 N         -21.4620   57.7830   10.6960 N.am      5 SEP2        0.0000 
      6 CA        -19.6865   58.8720   15.0715 C.3       3 GLC5        0.0000 
      7 CA        -18.6230   60.6090   14.3710 C.3       9 GLL5        0.0000 
      8 CA        -20.7500   57.1350   15.7720 C.3       6 GLP5        0.0000 
      9 CA        -15.1340   62.9320   15.5250 C.3       3 GLC5        0.0000 
     10 CA        -16.7360   61.7100   15.5250 C.3       9 GLL5        0.0000 
     11 CA        -13.5320   64.1540   15.5250 C.3       6 GLP5        0.0000 
     12 N         -15.4220   62.1770   17.7215 N.am      2 SEC2        0.0000 
     13 N         -16.4720   62.7460   16.5050 N.am      8 SEL2        0.0000 
     14 N         -14.3720   61.6080   18.9380 N.am      5 SEP2        0.0000 
     15 O         -16.9605   63.8240   16.1055 O.2       1 ALC1        0.0000 
     16 O         -16.4720   62.7460   16.5050 O.2       7 ALL1        0.0000 
     17 O         -17.4490   64.9020   15.7060 O.2       4 ALP1        0.0000 
     18 N         -14.6480   61.0425   17.7435 N.am      2 SEC2        0.0000 
     19 N         -14.9240   60.4770   16.5490 N.am      8 SEL2        0.0000 
     20 CA        -18.4105   61.1850   17.9560 C.3       3 GLC5        0.0000 
     21 CA        -17.3530   59.9440   17.0010 C.3       9 GLL5        0.0000 
     22 CA        -19.4680   62.4260   18.9110 C.3       6 GLP5        0.0000 
     23 CA        -16.7315   54.7280   19.4400 C.3       3 GLC5        0.0000 
     24 CA        -18.5100   55.5500   18.6550 C.3       9 GLL5        0.0000 
     25 CA        -14.9530   53.9060   20.2250 C.3       6 GLP5        0.0000 
     26 CA        -18.6450   54.5585   20.4000 C.3       3 GLC5        0.0000 
     27 CA        -18.7800   53.5670   22.1450 C.3       6 GLP5        0.0000 
     28 O         -18.5935   53.0745   19.4055 O.2       1 ALC1        0.0000 
     29 O         -18.4940   54.2470   18.3840 O.2       7 ALL1        0.0000 
     30 O         -18.6930   51.9020   20.4270 O.2       4 ALP1        0.0000 
     31 CA        -19.8580   59.2505   20.7235 C.3       3 GLC5        0.0000 
     32 CA        -19.0610   57.3090   20.1710 C.3       9 GLL5        0.0000 
     33 CA        -20.6550   61.1920   21.2760 C.3       6 GLP5        0.0000 
     34 CA        -17.6300   58.0495   21.2785 C.3       3 GLC5        0.0000 
     35 CA        -16.1990   58.7900   22.3860 C.3       6 GLP5        0.0000 
     36 CA        -18.9205   55.4380   21.1580 C.3       3 GLC5        0.0000 
     37 CA        -20.9815   57.4415   19.7420 C.3       3 GLC5        0.0000 
     38 CA        -22.9020   57.5740   19.3130 C.3       6 GLP5        0.0000 
     39 N         -16.4930   64.0495   11.3010 N.am      2 SEC2        0.0000 
     40 N         -16.7220   62.3890   11.0730 N.am      8 SEL2        0.0000 
     41 N         -16.2640   65.7100   11.5290 N.am      5 SEP2        0.0000 
     42 CA        -19.3815   64.3855   10.2690 C.3       3 GLC5        0.0000 
     43 CA        -19.4500   63.2250    8.4540 C.3       9 GLL5        0.0000 
     44 CA        -19.3130   65.5460   12.0840 C.3       6 GLP5        0.0000 
     45 CA        -17.6515   63.5815    7.7920 C.3       3 GLC5        0.0000 
     46 CA        -15.8530   63.9380    7.1300 C.3       6 GLP5        0.0000 
     47 CA        -19.1495   64.0385    6.7635 C.3       3 GLC5        0.0000 
     48 CA        -18.8490   64.8520    5.0730 C.3       6 GLP5        0.0000 
     49 CA        -21.5675   62.5395   10.5195 C.3       3 GLC5        0.0000 
     50 CA        -20.8280   62.5740    8.5960 C.3       9 GLL5        0.0000 
     51 CA        -22.3070   62.5050   12.4430 C.3       6 GLP5        0.0000 
     52 CA        -21.9875   61.0080    9.4730 C.3       3 GLC5        0.0000 
     53 CA        -23.1470   59.4420   10.3500 C.3       6 GLP5        0.0000 
     54 N         -23.6940   60.6110    7.2855 N.am      2 SEC2        0.0000 
     55 N         -22.4170   61.3400    7.1370 N.am      8 SEL2        0.0000 
     56 N         -24.9710   59.8820    7.4340 N.am      5 SEP2        0.0000 
     57 O         -22.7755   61.1020    5.8470 O.2       1 ALC1        0.0000 
     58 O         -22.4170   61.3400    7.1370 O.2       7 ALL1        0.0000 
     59 O         -23.1340   60.8640    4.5570 O.2       4 ALP1        0.0000 
     60 O         -23.8055   63.3130    5.2765 O.2       1 ALC1        0.0000 
     61 O         -23.5640   63.8230    6.4860 O.2       7 ALL1        0.0000 
     62 O         -24.0470   62.8030    4.0670 O.2       4 ALP1        0.0000 
     63 CA        -22.5585   63.1765   10.6385 C.3       3 GLC5        0.0000 
     64 CA        -22.8100   63.8480    8.8340 C.3       9 GLL5        0.0000 
     65 CA        -24.8995   63.7640    8.1900 C.3       3 GLC5        0.0000 
     66 CA        -26.9890   63.6800    7.5460 C.3       6 GLP5        0.0000 
     67 CA        -26.3235   66.4690   11.5785 C.3       3 GLC5        0.0000 
     68 CA        -25.0400   66.6750    9.8820 C.3       9 GLL5        0.0000 
     69 CA        -27.6070   66.2630   13.2750 C.3       6 GLP5        0.0000 
     70 CA        -24.7630   68.2630    8.6205 C.3       3 GLC5        0.0000 
     71 CA        -24.1060   67.7830    9.9010 C.3       9 GLL5        0.0000 
     72 CA        -25.4200   68.7430    7.3400 C.3       6 GLP5        0.0000 
     73 CA        -20.2078   60.7410   15.7598 C.3       3 GLC5        0.0000 
     74 CA        -21.9720   60.4210   16.5780 C.3       6 GLP5        0.0000 
     75 CA        -18.4840   62.0187   17.2148 C.3       3 GLC5        0.0000 
     76 CA        -18.2640   61.5130   15.5120 C.3       9 GLL5        0.0000 
     77 CA        -16.0350   61.0568   18.2957 C.3       3 GLC5        0.0000 
     78 CA        -15.2680   61.9510   20.0910 C.3       6 GLP5        0.0000 
     79 CA        -15.5995   58.6262   17.3642 C.3       3 GLC5        0.0000 
     80 CA        -14.3970   57.0900   18.2280 C.3       6 GLP5        0.0000 
     81 CA        -16.2758   57.0131   18.1861 C.3       3 GLC5        0.0000 
     82 CA        -18.0140   56.4990   17.7580 C.3       9 GLL5        0.0000 
     83 CA        -19.4522   57.0356   16.9581 C.3       3 GLC5        0.0000 
     84 CA        -21.5640   63.9872    5.7553 C.3       3 GLC5        0.0000 
     85 CA        -21.6080   62.5490    7.2690 C.3       9 GLL5        0.0000 
     86 CA        -21.0980   64.7880    4.1910 C.3       6 GLP5        0.0000 
     87 CA        -23.8240   65.4610    7.4345 C.3       3 GLC5        0.0000 
     88 CA        -22.4520   63.8240    7.3700 C.3       9 GLL5        0.0000 
     89 CA        -25.0170   67.0860    6.7670 C.3       6 GLP5        0.0000 
     90 CA        -24.2007   66.4552   11.3520 C.3       3 GLC5        0.0000 
     91 CA        -24.5830   65.3840    9.5460 C.3       9 GLL5        0.0000 
     92 CA        -23.5900   66.8810   12.9900 C.3       6 GLP5        0.0000 
     93 CA        -25.9002   64.8547    8.6300 C.3       3 GLC5        0.0000 
     94 CA        -24.9142   66.5577    8.2405 C.3       3 GLC5        0.0000 
     95 CA        -21.1227   66.9595   10.8810 C.3       3 GLC5        0.0000 
     96 CA        -22.6900   67.5980    9.5860 C.3       9 GLL5        0.0000 
     97 CA        -19.7710   66.9730   12.3410 C.3       6 GLP5        0.0000 
     98 CA        -23.7458   67.0160    8.0940 C.3       3 GLC5        0.0000 
     99 CA        -22.2590   66.2940    9.2560 C.3       9 GLL5        0.0000 
    100 CA        -23.2093   66.9366   11.2449 C.3       3 GLC5        0.0000 
@<TRIPOS>BOND
@<TRIPOS>SUBSTRUCTURE
     1 ALC1       15 GROUP        1 X    ALC  0     ROOT ALC X 1
     2 SEC2        1 GROUP        1 X    SEC  0     **** SEC X 2
     3 GLC5        6 GROUP        1 X    GLC  0     **** GLC X 6
     4 ALP1       17 GROUP        1 Y    ALP  0     ROOT ALP Y 8
     5 SEP2        3 GROUP        1 Y    SEP  0     **** SEP Y 9
     6 GLP5        8 GROUP        1 Y    GLP  0     **** GLP Y 13
     7 ALL1       16 GROUP        1 Z    ALL  0     ROOT ALL Z 15
     8 SEL2        2 GROUP        1 Z    SEL  0     **** SEL Z 16
     9 GLL5        7 GROUP        1 Z    GLL  0     **** GLL Z 20
@<TRIPOS>SET

