#    Name: 1uxt_NAD_1_ligand
#    Modification time : Tue Mar 25 07:15:44 2014

@<TRIPOS>MOLECULE
1uxt_NAD_1_ligand
   70    74     1     0     0
SMALL
NO_CHARGES


@<TRIPOS>ATOM
      1 PA        -18.7920   60.1510   11.9800 P.3       1 NAD1503     0.0000 
      2 O1A       -20.0980   59.4690   12.1050 O.co2     1 NAD1503     0.0000 
      3 O2A       -17.6300   59.2630   11.8400 O.co2     1 NAD1503     0.0000 
      4 O5B       -18.4740   61.1390   13.1420 O.3       1 NAD1503     0.0000 
      5 C5B       -18.6230   60.6090   14.3710 C.3       1 NAD1503     0.0000 
      6 C4B       -18.2640   61.5130   15.5120 C.3       1 NAD1503     0.0000 
      7 O4B       -18.5610   60.5150   16.4560 O.3       1 NAD1503     0.0000 
      8 C3B       -16.7360   61.7100   15.5250 C.3       1 NAD1503     0.0000 
      9 O3B       -16.4720   62.7460   16.5050 O.3       1 NAD1503     0.0000 
     10 C2B       -16.2510   60.3810   16.0000 C.3       1 NAD1503     0.0000 
     11 O2B       -14.9240   60.4770   16.5490 O.3       1 NAD1503     0.0000 
     12 C1B       -17.3530   59.9440   17.0010 C.3       1 NAD1503     0.0000 
     13 N9A       -17.5090   58.4930   17.0470 N.pl3     1 NAD1503     0.0000 
     14 C8A       -17.1600   57.5370   16.1030 C.2       1 NAD1503     0.0000 
     15 N7A       -17.4750   56.2960   16.5500 N.2       1 NAD1503     0.0000 
     16 C5A       -18.0140   56.4990   17.7580 C.ar      1 NAD1503     0.0000 
     17 C6A       -18.5100   55.5500   18.6550 C.ar      1 NAD1503     0.0000 
     18 N6A       -18.4940   54.2470   18.3840 N.pl3     1 NAD1503     0.0000 
     19 N1A       -19.0340   55.9870   19.8700 N.ar      1 NAD1503     0.0000 
     20 C2A       -19.0610   57.3090   20.1710 C.ar      1 NAD1503     0.0000 
     21 N3A       -18.5820   58.2250   19.3060 N.ar      1 NAD1503     0.0000 
     22 C4A       -18.0470   57.8480   18.0820 C.ar      1 NAD1503     0.0000 
     23 O3        -18.7860   61.0240   10.6950 O.3       1 NAD1503     0.0000 
     24 PN        -17.8050   62.0560   10.1050 P.3       1 NAD1503     0.0000 
     25 O1N       -17.2710   61.3660    8.9160 O.co2     1 NAD1503     0.0000 
     26 O2N       -16.7220   62.3890   11.0730 O.co2     1 NAD1503     0.0000 
     27 O5D       -18.7810   63.2510    9.7380 O.3       1 NAD1503     0.0000 
     28 C5D       -19.4500   63.2250    8.4540 C.3       1 NAD1503     0.0000 
     29 C4D       -20.8280   62.5740    8.5960 C.3       1 NAD1503     0.0000 
     30 O4D       -21.6270   63.3600    9.5220 O.3       1 NAD1503     0.0000 
     31 C3D       -21.6080   62.5490    7.2690 C.3       1 NAD1503     0.0000 
     32 O3D       -22.4170   61.3400    7.1370 O.3       1 NAD1503     0.0000 
     33 C2D       -22.4520   63.8240    7.3700 C.3       1 NAD1503     0.0000 
     34 O2D       -23.5640   63.8230    6.4860 O.3       1 NAD1503     0.0000 
     35 C1D       -22.8100   63.8480    8.8340 C.3       1 NAD1503     0.0000 
     36 N1N       -23.2040   65.1990    9.2350 N.pl3     1 NAD1503     0.0000 
     37 C2N       -24.5830   65.3840    9.5460 C.ar      1 NAD1503     0.0000 
     38 C3N       -25.0400   66.6750    9.8820 C.ar      1 NAD1503     0.0000 
     39 C7N       -26.5460   66.9160   10.2130 C.2       1 NAD1503     0.0000 
     40 O7N       -26.9380   68.0350   10.4890 O.2       1 NAD1503     0.0000 
     41 N7N       -27.3120   65.8510   10.1610 N.am      1 NAD1503     0.0000 
     42 C4N       -24.1060   67.7830    9.9010 C.ar      1 NAD1503     0.0000 
     43 C5N       -22.6900   67.5980    9.5860 C.ar      1 NAD1503     0.0000 
     44 C6N       -22.2590   66.2940    9.2560 C.ar      1 NAD1503     0.0000 
     45 H         -18.0149   59.6620   14.5098 H         1 NAD1503     0.0000 
     46 H         -19.6833   60.2564   14.5638 H         1 NAD1503     0.0000 
     47 H         -18.8024   62.3168   15.5484 H         1 NAD1503     0.0000 
     48 H         -16.4174   61.9208   14.5750 H         1 NAD1503     0.0000 
     49 H         -16.3061   59.6982   15.1609 H         1 NAD1503     0.0000 
     50 H         -17.1311   60.3607   17.9418 H         1 NAD1503     0.0000 
     51 H         -16.7497   57.7452   15.2496 H         1 NAD1503     0.0000 
     52 H         -18.4675   53.6337   19.1734 H         1 NAD1503     0.0000 
     53 H         -18.5099   53.9988   17.4154 H         1 NAD1503     0.0000 
     54 H         -19.4599   57.6185   21.0883 H         1 NAD1503     0.0000 
     55 H         -18.8785   62.6498    7.7193 H         1 NAD1503     0.0000 
     56 H         -19.5926   64.2355    8.0593 H         1 NAD1503     0.0000 
     57 H         -20.7208   61.5751    8.9499 H         1 NAD1503     0.0000 
     58 H         -20.9071   62.6779    6.4812 H         1 NAD1503     0.0000 
     59 H         -21.7675   64.6501    7.1944 H         1 NAD1503     0.0000 
     60 H         -23.6266   63.1523    8.9742 H         1 NAD1503     0.0000 
     61 H         -25.2182   64.5967    9.5240 H         1 NAD1503     0.0000 
     62 H         -28.2816   65.9964   10.3576 H         1 NAD1503     0.0000 
     63 H         -26.8558   64.9918    9.9295 H         1 NAD1503     0.0000 
     64 H         -24.4386   68.7159   10.1390 H         1 NAD1503     0.0000 
     65 H         -22.0712   68.3772    9.6097 H         1 NAD1503     0.0000 
     66 H         -21.2850   66.1091    9.0303 H         1 NAD1503     0.0000 
     67 H         -16.3630   63.5849   15.9717 H         1 NAD1503     0.0000 
     68 H         -14.3116   60.3687   15.7659 H         1 NAD1503     0.0000 
     69 H         -22.6271   61.2746    6.1615 H         1 NAD1503     0.0000 
     70 H         -23.2476   63.3344    5.6729 H         1 NAD1503     0.0000 
@<TRIPOS>BOND
     1    2    1 ar   
     2    3    1 ar   
     3    4    1 1    
     4   23    1 1    
     5    5    4 1    
     6    6    5 1    
     7   45    5 1    
     8   46    5 1    
     9    7    6 1    
    10    8    6 1    
    11   47    6 1    
    12   12    7 1    
    13    9    8 1    
    14   10    8 1    
    15   48    8 1    
    16   67    9 1    
    17   11   10 1    
    18   12   10 1    
    19   49   10 1    
    20   68   11 1    
    21   13   12 1    
    22   50   12 1    
    23   14   13 1    
    24   22   13 1    
    25   15   14 2    
    26   51   14 1    
    27   16   15 1    
    28   17   16 ar   
    29   22   16 ar   
    30   18   17 1    
    31   19   17 ar   
    32   52   18 1    
    33   53   18 1    
    34   20   19 ar   
    35   21   20 ar   
    36   54   20 1    
    37   22   21 ar   
    38   24   23 1    
    39   25   24 ar   
    40   26   24 ar   
    41   27   24 1    
    42   28   27 1    
    43   29   28 1    
    44   55   28 1    
    45   56   28 1    
    46   30   29 1    
    47   31   29 1    
    48   57   29 1    
    49   35   30 1    
    50   32   31 1    
    51   33   31 1    
    52   58   31 1    
    53   69   32 1    
    54   34   33 1    
    55   35   33 1    
    56   59   33 1    
    57   70   34 1    
    58   36   35 1    
    59   60   35 1    
    60   37   36 ar   
    61   44   36 ar   
    62   38   37 ar   
    63   61   37 1    
    64   39   38 1    
    65   42   38 ar   
    66   40   39 2    
    67   41   39 am   
    68   62   41 1    
    69   63   41 1    
    70   43   42 ar   
    71   64   42 1    
    72   44   43 ar   
    73   65   43 1    
    74   66   44 1    
@<TRIPOS>SUBSTRUCTURE
     1 NAD1503     1 GROUP   
@<TRIPOS>SET

