#    Name: 2wjp_D17_1_INTS_M
#    Modification time : Tue Mar 25 04:24:15 2014

@<TRIPOS>MOLECULE
2wjp_D17_1_INTS_M
   56     0    12     0     0
SMALL
NO_CHARGES


@<TRIPOS>ATOM
      1 N          -0.4680   37.1685  116.7550 N.am      2 SEC2        0.0000 
      2 N           0.3660   38.2380  116.8750 N.am     10 SEL2        0.0000 
      3 N          -1.3020   36.0990  116.6350 N.am      6 SEP2        0.0000 
      4 N           1.5405   37.2320  113.5260 N.am      2 SEC2        0.0000 
      5 N           1.3870   37.4920  114.9960 N.am     10 SEL2        0.0000 
      6 N           1.6940   36.9720  112.0560 N.am      6 SEP2        0.0000 
      7 N           0.2310   37.1200  114.2525 N.am      2 SEC2        0.0000 
      8 N          -0.9250   36.7480  113.5090 N.am      6 SEP2        0.0000 
      9 CA          0.4605   40.1685  114.8860 C.3       4 GLC5        0.0000 
     10 CA          1.8200   39.7090  115.9090 C.3      12 GLL5        0.0000 
     11 CA         -0.8990   40.6280  113.8630 C.3       8 GLP5        0.0000 
     12 CA          2.0870   41.0335  114.5090 C.3       4 GLC5        0.0000 
     13 CA          3.2450   39.7140  115.4540 C.3      12 GLL5        0.0000 
     14 CA          0.9290   42.3530  113.5640 C.3       8 GLP5        0.0000 
     15 NZ          6.9210   39.3935  114.3685 N.4       3 LYC4        0.0000 
     16 NZ          5.7350   39.7860  114.9350 N.4      11 LYL4        0.0000 
     17 NZ          8.1070   39.0010  113.8020 N.4       7 LYP4        0.0000 
     18 N           6.9210   39.3935  114.3685 N.am      2 SEC2        0.0000 
     19 N           5.7350   39.7860  114.9350 N.am     10 SEL2        0.0000 
     20 N           8.1070   39.0010  113.8020 N.am      6 SEP2        0.0000 
     21 NZ          7.1940   39.5640  115.4420 N.4       3 LYC4        0.0000 
     22 NZ          6.2810   40.1270  117.0820 N.4      11 LYL4        0.0000 
     23 CA          0.6710   50.8330  116.4940 C.3       4 GLC5        0.0000 
     24 CA         -1.2300   51.7530  115.8670 C.3      12 GLL5        0.0000 
     25 CA          2.5720   49.9130  117.1210 C.3       8 GLP5        0.0000 
     26 CA         -0.9695   56.0000  116.0460 C.3       4 GLC5        0.0000 
     27 CA         -1.5870   54.6210  115.0660 C.3      12 GLL5        0.0000 
     28 CA         -0.3520   57.3790  117.0260 C.3       8 GLP5        0.0000 
     29 CA         -2.3160   54.3410  116.8805 C.3       4 GLC5        0.0000 
     30 CA         -3.0450   54.0610  118.6950 C.3       8 GLP5        0.0000 
     31 CA         -3.2765   55.3575  114.9635 C.3       4 GLC5        0.0000 
     32 CA         -4.9660   56.0940  114.8610 C.3       8 GLP5        0.0000 
     33 CA         -1.5045   55.4045  113.2240 C.3       4 GLC5        0.0000 
     34 CA         -1.4220   56.1880  111.3820 C.3       8 GLP5        0.0000 
     35 O          -1.9050   53.1790  112.3015 O.2       1 ALC1        0.0000 
     36 O          -1.7100   52.4990  113.4920 O.2       9 ALL1        0.0000 
     37 O          -2.1000   53.8590  111.1110 O.2       5 ALP1        0.0000 
     38 CA          3.3427   39.3278  113.9158 C.3       4 GLC5        0.0000 
     39 CA          4.1530   38.9440  112.1500 C.3       8 GLP5        0.0000 
     40 CA          4.2160   47.8762  119.8440 C.3       4 GLC5        0.0000 
     41 CA          4.4500   46.3960  118.0550 C.3      12 GLL5        0.0000 
     42 CA          4.5830   49.3700  121.2850 C.3       8 GLP5        0.0000 
     43 CA          3.2105   48.1478  117.7620 C.3       4 GLC5        0.0000 
     44 CA          3.2480   46.3690  118.7510 C.3      12 GLL5        0.0000 
     45 CA          1.2803   48.3520  117.4682 C.3       4 GLC5        0.0000 
     46 CA         -0.0290   47.1100  118.4380 C.3      12 GLL5        0.0000 
     47 CA          0.8850   49.3162  117.5370 C.3       4 GLC5        0.0000 
     48 CA         -1.0410   49.0380  117.3780 C.3      12 GLL5        0.0000 
     49 CA         -3.1895   49.7280  113.8565 C.3       4 GLC5        0.0000 
     50 CA         -1.2810   49.1120  114.9400 C.3      12 GLL5        0.0000 
     51 CA         -5.0500   49.6630  112.8840 C.3       8 GLP5        0.0000 
     52 CA          0.8014   49.1840  116.3155 C.3       4 GLC5        0.0000 
     53 CA         -2.2118   53.2250  116.9938 C.3       4 GLC5        0.0000 
     54 CA          0.2575   54.5580  114.1815 C.3       4 GLC5        0.0000 
     55 CA         -1.5270   53.0250  114.7180 C.3      12 GLL5        0.0000 
     56 CA          2.0720   55.2930  113.4710 C.3       8 GLP5        0.0000 
@<TRIPOS>BOND
@<TRIPOS>SUBSTRUCTURE
     1 ALC1       35 GROUP        1 X    ALC  0     ROOT ALC X 1
     2 SEC2        1 GROUP        1 X    SEC  0     **** SEC X 2
     3 LYC4       15 GROUP        1 X    LYC  0     **** LYC X 4
     4 GLC5        9 GROUP        1 X    GLC  0     **** GLC X 6
     5 ALP1       37 GROUP        1 Y    ALP  0     ROOT ALP Y 8
     6 SEP2        3 GROUP        1 Y    SEP  0     **** SEP Y 9
     7 LYP4       17 GROUP        1 Y    LYP  0     **** LYP Y 11
     8 GLP5       11 GROUP        1 Y    GLP  0     **** GLP Y 13
     9 ALL1       36 GROUP        1 Z    ALL  0     ROOT ALL Z 15
    10 SEL2        2 GROUP        1 Z    SEL  0     **** SEL Z 16
    11 LYL4       16 GROUP        1 Z    LYL  0     **** LYL Z 18
    12 GLL5       10 GROUP        1 Z    GLL  0     **** GLL Z 20
@<TRIPOS>SET

