#    Name: 2wjp_D17_1_ligand
#    Modification time : Tue Mar 25 04:24:15 2014

@<TRIPOS>MOLECULE
2wjp_D17_1_ligand
   53    55     1     0     0
SMALL
NO_CHARGES


@<TRIPOS>ATOM
      1 OE1         0.3660   38.2380  116.8750 O.co2     1 D171441     0.0000 
      2 CD          1.1810   38.3080  115.9500 C.2       1 D171441     0.0000 
      3 OE2         1.3870   37.4920  114.9960 O.co2     1 D171441     0.0000 
      4 CG          1.8200   39.7090  115.9090 C.3       1 D171441     0.0000 
      5 CB          3.2450   39.7140  115.4540 C.3       1 D171441     0.0000 
      6 CA          4.1180   40.4510  116.4640 C.3       1 D171441     0.0000 
      7 C           5.5490   40.2530  116.0860 C.2       1 D171441     0.0000 
      8 OXT         5.7350   39.7860  114.9350 O.co2     1 D171441     0.0000 
      9 O           6.2810   40.1270  117.0820 O.co2     1 D171441     0.0000 
     10 N           3.7930   41.8490  116.8240 N.am      1 D171441     0.0000 
     11 CAU         4.4710   42.9510  116.5140 C.2       1 D171441     0.0000 
     12 OBC         5.2750   43.0770  115.5950 O.2       1 D171441     0.0000 
     13 CAT         4.0290   44.1760  117.3050 C.ar      1 D171441     0.0000 
     14 CAQ         2.8050   44.1640  117.9710 C.ar      1 D171441     0.0000 
     15 CAS         4.8620   45.2910  117.3230 C.ar      1 D171441     0.0000 
     16 CAR         4.4500   46.3960  118.0550 C.ar      1 D171441     0.0000 
     17 CAP         3.2480   46.3690  118.7510 C.ar      1 D171441     0.0000 
     18 CAO         2.4020   45.2690  118.7100 C.ar      1 D171441     0.0000 
     19 CAN         1.1160   45.2040  119.5430 C.3       1 D171441     0.0000 
     20 NAY         0.4190   46.5110  119.5530 N.pl3     1 D171441     0.0000 
     21 CAA        -0.0290   47.1100  118.4380 C.ar      1 D171441     0.0000 
     22 CAC         0.0060   46.4720  117.1930 C.ar      1 D171441     0.0000 
     23 CAE        -0.4150   47.1430  116.0410 C.ar      1 D171441     0.0000 
     24 CAB        -0.5630   48.4010  118.5280 C.ar      1 D171441     0.0000 
     25 CAG        -1.0410   49.0380  117.3780 C.ar      1 D171441     0.0000 
     26 CAF        -0.9000   48.4530  116.1190 C.ar      1 D171441     0.0000 
     27 CAH        -1.2810   49.1120  114.9400 C.2       1 D171441     0.0000 
     28 CAI        -1.3770   50.4740  114.7180 C.2       1 D171441     0.0000 
     29 SBG        -1.2300   51.7530  115.8670 S.3       1 D171441     0.0000 
     30 CAL        -1.5270   53.0250  114.7180 C.2       1 D171441     0.0000 
     31 SBH        -1.5870   54.6210  115.0660 S.2       1 D171441     0.0000 
     32 NAX        -1.7100   52.4990  113.4920 N.pl3     1 D171441     0.0000 
     33 CAK        -1.6170   51.0910  113.4580 C.2       1 D171441     0.0000 
     34 OBE        -1.7410   50.5020  112.3910 O.2       1 D171441     0.0000 
     35 H           1.7471   40.1493  116.9195 H         1 D171441     0.0000 
     36 H           1.2108   40.3448  115.2420 H         1 D171441     0.0000 
     37 H           3.3269   40.2116  114.4876 H         1 D171441     0.0000 
     38 H           3.6087   38.6913  115.3533 H         1 D171441     0.0000 
     39 H           4.0084   39.8264  117.4382 H         1 D171441     0.0000 
     40 H           2.8860   41.9269  117.4090 H         1 D171441     0.0000 
     41 H           2.1997   43.3337  117.9140 H         1 D171441     0.0000 
     42 H           5.7403   45.2941  116.8175 H         1 D171441     0.0000 
     43 H           5.0392   47.2422  118.0827 H         1 D171441     0.0000 
     44 H           2.9740   47.1979  119.3198 H         1 D171441     0.0000 
     45 H           1.3805   44.9041  120.5622 H         1 D171441     0.0000 
     46 H           0.4693   44.4292  119.1185 H         1 D171441     0.0000 
     47 H           0.2986   46.9396  120.4980 H         1 D171441     0.0000 
     48 H           0.3439   45.5027  117.1256 H         1 D171441     0.0000 
     49 H          -0.3680   46.6699  115.1281 H         1 D171441     0.0000 
     50 H          -0.6034   48.8774  119.4337 H         1 D171441     0.0000 
     51 H          -1.5061   49.9572  117.4638 H         1 D171441     0.0000 
     52 H          -1.5295   48.4673  114.1037 H         1 D171441     0.0000 
     53 H          -1.8940   53.0214  112.6716 H         1 D171441     0.0000 
@<TRIPOS>BOND
     1    2    1 ar   
     2    3    2 ar   
     3    4    2 1    
     4    5    4 1    
     5   35    4 1    
     6   36    4 1    
     7    6    5 1    
     8   37    5 1    
     9   38    5 1    
    10    7    6 1    
    11   10    6 1    
    12   39    6 1    
    13    8    7 ar   
    14    9    7 ar   
    15   11   10 am   
    16   40   10 1    
    17   12   11 2    
    18   13   11 1    
    19   14   13 ar   
    20   15   13 ar   
    21   18   14 ar   
    22   41   14 1    
    23   16   15 ar   
    24   42   15 1    
    25   17   16 ar   
    26   43   16 1    
    27   18   17 ar   
    28   44   17 1    
    29   19   18 1    
    30   20   19 1    
    31   45   19 1    
    32   46   19 1    
    33   21   20 1    
    34   47   20 1    
    35   22   21 ar   
    36   24   21 ar   
    37   23   22 ar   
    38   48   22 1    
    39   26   23 ar   
    40   49   23 1    
    41   25   24 ar   
    42   50   24 1    
    43   26   25 ar   
    44   51   25 1    
    45   27   26 1    
    46   28   27 2    
    47   52   27 1    
    48   29   28 1    
    49   33   28 1    
    50   30   29 1    
    51   31   30 2    
    52   32   30 1    
    53   33   32 1    
    54   53   32 1    
    55   34   33 2    
@<TRIPOS>SUBSTRUCTURE
     1 D171441     1 GROUP   
@<TRIPOS>SET

