#    Name: 4ed4_ATP_1_INTS_M
#    Modification time : Tue Mar 25 10:53:05 2014

@<TRIPOS>MOLECULE
4ed4_ATP_1_INTS_M
   56     0    12     0     0
SMALL
NO_CHARGES


@<TRIPOS>ATOM
      1 N         -11.1430    6.4785  -16.0620 N.am      2 SEC2        0.0000 
      2 N         -11.0450    5.8780  -17.1990 N.am     10 SEL2        0.0000 
      3 N         -11.2410    7.0790  -14.9250 N.am      6 SEP2        0.0000 
      4 NZ        -12.6415    9.1875  -17.3730 N.4       3 LYC4        0.0000 
      5 NZ        -11.7340    7.9690  -18.4970 N.4      11 LYL4        0.0000 
      6 NZ        -13.5490   10.4060  -16.2490 N.4       7 LYP4        0.0000 
      7 N         -13.2725    7.2670  -18.6165 N.am      2 SEC2        0.0000 
      8 N         -11.7340    7.9690  -18.4970 N.am     10 SEL2        0.0000 
      9 N         -14.8110    6.5650  -18.7360 N.am      6 SEP2        0.0000 
     10 N          -8.3935    7.7440  -19.0715 N.am      2 SEC2        0.0000 
     11 N          -9.1730    7.1200  -18.2700 N.am     10 SEL2        0.0000 
     12 N          -7.6140    8.3680  -19.8730 N.am      6 SEP2        0.0000 
     13 N         -13.9475    6.2765  -19.8460 N.am      2 SEC2        0.0000 
     14 N         -13.0840    5.9880  -20.9560 N.am     10 SEL2        0.0000 
     15 N         -14.2370    4.9340  -20.3425 N.am      2 SEC2        0.0000 
     16 N         -15.3900    3.8800  -19.7290 N.am      6 SEP2        0.0000 
     17 N         -12.0235    8.3865  -21.8505 N.am      2 SEC2        0.0000 
     18 N         -10.9990    7.3960  -21.5870 N.am     10 SEL2        0.0000 
     19 N         -13.0480    9.3770  -22.1140 N.am      6 SEP2        0.0000 
     20 N         -12.4645    4.2880  -24.1205 N.am      2 SEC2        0.0000 
     21 N         -12.7010    3.3800  -23.0590 N.am     10 SEL2        0.0000 
     22 N         -12.2280    5.1960  -25.1820 N.am      6 SEP2        0.0000 
     23 N         -13.1425    2.0935  -20.2850 N.am      2 SEC2        0.0000 
     24 N         -12.0880    2.9350  -20.5480 N.am     10 SEL2        0.0000 
     25 N         -14.1970    1.2520  -20.0220 N.am      6 SEP2        0.0000 
     26 CA        -11.0185    2.6230  -25.3480 C.3       4 GLC5        0.0000 
     27 CA         -9.7400    2.7330  -23.5480 C.3      12 GLL5        0.0000 
     28 CA        -12.2970    2.5130  -27.1480 C.3       8 GLP5        0.0000 
     29 CA        -10.4350    4.4550  -24.2685 C.3       4 GLC5        0.0000 
     30 CA        -11.1300    6.1770  -24.9890 C.3       8 GLP5        0.0000 
     31 CA         -9.1065   -1.6820  -26.1060 C.3       4 GLC5        0.0000 
     32 CA         -8.7110    0.2550  -25.2070 C.3      12 GLL5        0.0000 
     33 CA         -9.5020   -3.6190  -27.0050 C.3       8 GLP5        0.0000 
     34 N         -10.2180   -3.7580  -21.0660 N.am      2 SEC2        0.0000 
     35 N         -10.5680   -2.8280  -22.2530 N.am     10 SEL2        0.0000 
     36 N          -9.8680   -4.6880  -19.8790 N.am      6 SEP2        0.0000 
     37 CA        -10.4750   -3.9405  -22.3630 C.3       4 GLC5        0.0000 
     38 CA        -11.5540   -2.0330  -22.7500 C.3      12 GLL5        0.0000 
     39 CA         -9.3960   -5.8480  -21.9760 C.3       8 GLP5        0.0000 
     40 O         -12.9910   -4.4020  -21.6730 O.2       1 ALC1        0.0000 
     41 O         -13.6230   -3.0660  -21.9910 O.2       9 ALL1        0.0000 
     42 O         -12.3590   -5.7380  -21.3550 O.2       5 ALP1        0.0000 
     43 O         -14.9995   -2.6860  -21.7010 O.2       1 ALC1        0.0000 
     44 O         -16.3760   -2.3060  -21.4110 O.2       5 ALP1        0.0000 
     45 CA        -13.3095   -0.7580  -25.6710 C.3       4 GLC5        0.0000 
     46 CA        -13.0470   -0.0600  -23.9470 C.3      12 GLL5        0.0000 
     47 CA        -13.5720   -1.4560  -27.3950 C.3       8 GLP5        0.0000 
     48 CA        -14.8910   -0.0595  -24.2975 C.3       4 GLC5        0.0000 
     49 CA        -16.7350   -0.0590  -24.6480 C.3       8 GLP5        0.0000 
     50 CA        -12.6720    1.2265  -25.5475 C.3       4 GLC5        0.0000 
     51 CA        -13.2730   -0.0300  -21.8045 C.3       4 GLC5        0.0000 
     52 CA        -13.4990    0.0000  -19.6620 C.3       8 GLP5        0.0000 
     53 CA        -12.8930   -1.0232  -21.1915 C.3       4 GLC5        0.0000 
     54 CA        -13.0200   -2.0600  -22.6920 C.3      12 GLL5        0.0000 
     55 CA        -12.3050   -2.5381  -24.6358 C.3       4 GLC5        0.0000 
     56 CA        -13.0090   -3.5750  -26.1780 C.3       8 GLP5        0.0000 
@<TRIPOS>BOND
@<TRIPOS>SUBSTRUCTURE
     1 ALC1       40 GROUP        1 X    ALC  0     ROOT ALC X 1
     2 SEC2        1 GROUP        1 X    SEC  0     **** SEC X 2
     3 LYC4        4 GROUP        1 X    LYC  0     **** LYC X 4
     4 GLC5       26 GROUP        1 X    GLC  0     **** GLC X 6
     5 ALP1       42 GROUP        1 Y    ALP  0     ROOT ALP Y 8
     6 SEP2        3 GROUP        1 Y    SEP  0     **** SEP Y 9
     7 LYP4        6 GROUP        1 Y    LYP  0     **** LYP Y 11
     8 GLP5       28 GROUP        1 Y    GLP  0     **** GLP Y 13
     9 ALL1       41 GROUP        1 Z    ALL  0     ROOT ALL Z 15
    10 SEL2        2 GROUP        1 Z    SEL  0     **** SEL Z 16
    11 LYL4        5 GROUP        1 Z    LYL  0     **** LYL Z 18
    12 GLL5       27 GROUP        1 Z    GLL  0     **** GLL Z 20
@<TRIPOS>SET

