#    Name: 4ed4_ATP_1_ligand
#    Modification time : Tue Mar 25 10:53:05 2014

@<TRIPOS>MOLECULE
4ed4_ATP_1_ligand
   43    45     1     0     0
SMALL
NO_CHARGES


@<TRIPOS>ATOM
      1 PG        -10.6900    6.8710  -18.3140 P.3       1 ATP401      0.0000 
      2 O1G       -11.0450    5.8780  -17.1990 O.co2     1 ATP401      0.0000 
      3 O2G       -11.7340    7.9690  -18.4970 O.co2     1 ATP401      0.0000 
      4 O3G        -9.1730    7.1200  -18.2700 O.co2     1 ATP401      0.0000 
      5 PB        -11.5840    6.1430  -21.0040 P.3       1 ATP401      0.0000 
      6 O1B       -13.0840    5.9880  -20.9560 O.co2     1 ATP401      0.0000 
      7 O2B       -10.9990    7.3960  -21.5870 O.co2     1 ATP401      0.0000 
      8 O3B       -10.9960    5.8400  -19.5590 O.3       1 ATP401      0.0000 
      9 PA        -11.6820    3.4090  -21.9170 P.3       1 ATP401      0.0000 
     10 O1A       -12.7010    3.3800  -23.0590 O.co2     1 ATP401      0.0000 
     11 O2A       -12.0880    2.9350  -20.5480 O.co2     1 ATP401      0.0000 
     12 O3A       -11.0190    4.8470  -21.8110 O.3       1 ATP401      0.0000 
     13 O5'       -10.3380    2.6150  -22.2280 O.3       1 ATP401      0.0000 
     14 C5'        -9.7400    2.7330  -23.5480 C.3       1 ATP401      0.0000 
     15 C4'        -8.4130    1.9730  -23.6050 C.3       1 ATP401      0.0000 
     16 O4'        -8.4790    0.7120  -22.9030 O.3       1 ATP401      0.0000 
     17 C3'        -8.0110    1.6040  -25.0140 C.3       1 ATP401      0.0000 
     18 O3'        -6.5580    1.5000  -25.0100 O.3       1 ATP401      0.0000 
     19 C2'        -8.7110    0.2550  -25.2070 C.3       1 ATP401      0.0000 
     20 O2'        -8.1540   -0.5630  -26.2910 O.3       1 ATP401      0.0000 
     21 C1'        -8.5020   -0.3680  -23.8610 C.3       1 ATP401      0.0000 
     22 N9         -9.6020   -1.2040  -23.3650 N.pl3     1 ATP401      0.0000 
     23 C8         -9.3840   -2.3160  -22.6410 C.2       1 ATP401      0.0000 
     24 N7        -10.5680   -2.8280  -22.2530 N.2       1 ATP401      0.0000 
     25 C5        -11.5540   -2.0330  -22.7500 C.ar      1 ATP401      0.0000 
     26 C6        -13.0200   -2.0600  -22.6920 C.ar      1 ATP401      0.0000 
     27 N6        -13.6230   -3.0660  -21.9910 N.pl3     1 ATP401      0.0000 
     28 N1        -13.7050   -1.0090  -23.2300 N.ar      1 ATP401      0.0000 
     29 C2        -13.0470   -0.0600  -23.9470 C.ar      1 ATP401      0.0000 
     30 N3        -11.6820   -0.0130  -24.0590 N.ar      1 ATP401      0.0000 
     31 C4        -10.9150   -0.9560  -23.4660 C.ar      1 ATP401      0.0000 
     32 H          -9.5419    3.7810  -23.7992 H         1 ATP401      0.0000 
     33 H         -10.4006    2.3206  -24.3188 H         1 ATP401      0.0000 
     34 H          -7.6303    2.5865  -23.1846 H         1 ATP401      0.0000 
     35 H          -8.3895    2.3058  -25.6725 H         1 ATP401      0.0000 
     36 H          -9.7558    0.4481  -25.3245 H         1 ATP401      0.0000 
     37 H          -7.5806   -0.8909  -23.8206 H         1 ATP401      0.0000 
     38 H          -8.5130   -2.6910  -22.4308 H         1 ATP401      0.0000 
     39 H         -13.1496   -3.9468  -21.9902 H         1 ATP401      0.0000 
     40 H         -14.4848   -2.8331  -21.5403 H         1 ATP401      0.0000 
     41 H         -13.6141    0.6832  -24.4463 H         1 ATP401      0.0000 
     42 H          -6.3109    1.3663  -24.0503 H         1 ATP401      0.0000 
     43 H          -8.6200   -0.2485  -27.1180 H         1 ATP401      0.0000 
@<TRIPOS>BOND
     1    2    1 ar   
     2    3    1 ar   
     3    4    1 ar   
     4    8    1 1    
     5    6    5 ar   
     6    7    5 ar   
     7    8    5 1    
     8   12    5 1    
     9   10    9 ar   
    10   11    9 ar   
    11   12    9 1    
    12   13    9 1    
    13   14   13 1    
    14   15   14 1    
    15   32   14 1    
    16   33   14 1    
    17   16   15 1    
    18   17   15 1    
    19   34   15 1    
    20   21   16 1    
    21   18   17 1    
    22   19   17 1    
    23   35   17 1    
    24   42   18 1    
    25   20   19 1    
    26   21   19 1    
    27   36   19 1    
    28   43   20 1    
    29   22   21 1    
    30   37   21 1    
    31   23   22 1    
    32   31   22 1    
    33   24   23 2    
    34   38   23 1    
    35   25   24 1    
    36   26   25 ar   
    37   31   25 ar   
    38   27   26 1    
    39   28   26 ar   
    40   39   27 1    
    41   40   27 1    
    42   29   28 ar   
    43   30   29 ar   
    44   41   29 1    
    45   31   30 ar   
@<TRIPOS>SUBSTRUCTURE
     1 ATP401      1 GROUP   
@<TRIPOS>SET

