#    Name: 4b1f_KRH_2_INTS_M
#    Modification time : Tue Mar 25 06:33:49 2014

@<TRIPOS>MOLECULE
4b1f_KRH_2_INTS_M
   63     0     3     0     0
SMALL
NO_CHARGES


@<TRIPOS>ATOM
      1 CA         15.4035   18.3050  -18.9540 C.3       1 GLC5        0.0000 
      2 CA         13.7570   17.9760  -18.1250 C.3       3 GLL5        0.0000 
      3 CA         17.0500   18.6340  -19.7830 C.3       2 GLP5        0.0000 
      4 CA         12.4875   16.3830  -14.9935 C.3       1 GLC5        0.0000 
      5 CA         12.1420   16.4170  -17.0440 C.3       3 GLL5        0.0000 
      6 CA         12.8330   16.3490  -12.9430 C.3       2 GLP5        0.0000 
      7 CA         10.3730   16.3680  -15.8305 C.3       1 GLC5        0.0000 
      8 CA          8.6040   16.3190  -14.6170 C.3       2 GLP5        0.0000 
      9 CA         12.3680   17.4990  -14.8185 C.3       1 GLC5        0.0000 
     10 CA         11.9030   18.6490  -16.6940 C.3       3 GLL5        0.0000 
     11 CA         10.8770   20.0790  -16.9290 C.3       1 GLC5        0.0000 
     12 CA          9.8510   21.5090  -17.1640 C.3       2 GLP5        0.0000 
     13 CA         12.6445   19.9075  -15.0830 C.3       1 GLC5        0.0000 
     14 CA         13.3860   21.1660  -13.4720 C.3       2 GLP5        0.0000 
     15 CA         14.7340   14.4280  -23.4830 C.3       1 GLC5        0.0000 
     16 CA         14.6710   16.2930  -22.6910 C.3       3 GLL5        0.0000 
     17 CA         14.7970   12.5630  -24.2750 C.3       2 GLP5        0.0000 
     18 CA         15.9935   17.2520  -21.8770 C.3       1 GLC5        0.0000 
     19 CA         17.3160   18.2110  -21.0630 C.3       2 GLP5        0.0000 
     20 CA         16.8190   13.7250  -14.1755 C.3       1 GLC5        0.0000 
     21 CA         17.0770   14.0690  -16.0260 C.3       3 GLL5        0.0000 
     22 CA         16.5610   13.3810  -12.3250 C.3       2 GLP5        0.0000 
     23 CA         17.9340   15.7880  -16.4205 C.3       1 GLC5        0.0000 
     24 CA         18.7910   17.5070  -16.8150 C.3       2 GLP5        0.0000 
     25 CA         16.3785    8.6105  -17.3370 C.3       1 GLC5        0.0000 
     26 CA         16.2840   10.3070  -16.1890 C.3       3 GLL5        0.0000 
     27 CA         16.4730    6.9140  -18.4850 C.3       2 GLP5        0.0000 
     28 CA         15.1715    8.2030  -16.2315 C.3       1 GLC5        0.0000 
     29 CA         14.9000   10.1900  -16.1590 C.3       3 GLL5        0.0000 
     30 CA         15.4430    6.2160  -16.3040 C.3       2 GLP5        0.0000 
     31 CA         13.3875    8.8385  -16.2160 C.3       1 GLC5        0.0000 
     32 CA         11.8750    7.4870  -16.2730 C.3       2 GLP5        0.0000 
     33 CA         15.2710   13.5610  -14.1425 C.3       1 GLC5        0.0000 
     34 CA         13.9810   13.7410  -15.9600 C.3       3 GLL5        0.0000 
     35 CA         13.3685   13.4035  -17.9955 C.3       1 GLC5        0.0000 
     36 CA         12.7560   13.0660  -20.0310 C.3       2 GLP5        0.0000 
     37 CA         10.4635   11.0235  -16.6270 C.3       1 GLC5        0.0000 
     38 CA         11.9940   12.4040  -16.0450 C.3       3 GLL5        0.0000 
     39 CA          8.9330    9.6430  -17.2090 C.3       2 GLP5        0.0000 
     40 CA         12.6255   10.2185  -18.0415 C.3       1 GLC5        0.0000 
     41 CA         12.7830   11.2920  -16.1020 C.3       3 GLL5        0.0000 
     42 CA         12.4680    9.1450  -19.9810 C.3       2 GLP5        0.0000 
     43 CA         12.3290    9.3895  -16.1875 C.3       1 GLC5        0.0000 
     44 CA         12.7695   12.1790  -18.0665 C.3       1 GLC5        0.0000 
     45 CA         14.1875   10.4110  -19.8400 C.3       1 GLC5        0.0000 
     46 CA         15.9070   11.6770  -19.6990 C.3       3 GLL5        0.0000 
     47 CA         14.3315   12.3715  -19.8650 C.3       1 GLC5        0.0000 
     48 CA         14.5600   13.9238  -19.4425 C.3       1 GLC5        0.0000 
     49 CA         15.9810   15.1660  -19.2680 C.3       3 GLL5        0.0000 
     50 CA         11.3643   15.4488  -18.3770 C.3       1 GLC5        0.0000 
     51 CA         10.5130   13.8530  -19.3300 C.3       2 GLP5        0.0000 
     52 CA         16.3515   11.5640  -14.4095 C.3       1 GLC5        0.0000 
     53 CA         16.2670   12.7450  -16.0550 C.3       3 GLL5        0.0000 
     54 CA         16.1120   10.9730  -12.7280 C.3       2 GLP5        0.0000 
     55 CA         15.8520   10.6107  -14.4510 C.3       1 GLC5        0.0000 
     56 CA         15.3020   11.4880  -14.4000 C.3       1 GLC5        0.0000 
     57 CA         14.1610   11.3670  -16.1020 C.3       3 GLL5        0.0000 
     58 CA         12.6230   11.3302  -14.3805 C.3       1 GLC5        0.0000 
     59 CA         11.7740   11.3310  -12.6590 C.3       2 GLP5        0.0000 
     60 CA         13.0642   15.0237  -14.4497 C.3       1 GLC5        0.0000 
     61 CA         12.6100   13.6560  -15.9530 C.3       3 GLL5        0.0000 
     62 CA         12.0380   12.1805  -14.3290 C.3       1 GLC5        0.0000 
     63 CA         11.4075   13.4415  -17.6645 C.3       1 GLC5        0.0000 
@<TRIPOS>BOND
@<TRIPOS>SUBSTRUCTURE
     1 GLC5        1 GROUP        1 X    GLC  0     ROOT GLC X 6
     2 GLP5        3 GROUP        1 Y    GLP  0     ROOT GLP Y 13
     3 GLL5        2 GROUP        1 Z    GLL  0     ROOT GLL Z 20
@<TRIPOS>SET

