#    Name: 4b1f_KRH_2_ligand
#    Modification time : Tue Mar 25 06:33:49 2014

@<TRIPOS>MOLECULE
4b1f_KRH_2_ligand
   59    63     1     0     0
SMALL
NO_CHARGES


@<TRIPOS>ATOM
      1 N1         14.9050   16.1700  -21.2030 N.am      1 KRH1257     0.0000 
      2 C2         14.2880   17.0250  -20.3370 C.2       1 KRH1257     0.0000 
      3 N3         14.4290   16.9900  -18.9980 N.am      1 KRH1257     0.0000 
      4 C4         15.2640   16.0350  -18.4100 C.2       1 KRH1257     0.0000 
      5 C5         15.9810   15.1660  -19.2680 C.2       1 KRH1257     0.0000 
      6 C6         15.7660   15.2410  -20.7610 C.2       1 KRH1257     0.0000 
      7 C7         13.7570   17.9760  -18.1250 C.3       1 KRH1257     0.0000 
      8 C8         12.2890   17.6720  -17.8040 C.3       1 KRH1257     0.0000 
      9 C9         12.1420   16.4170  -17.0440 C.3       1 KRH1257     0.0000 
     10 C10        11.9030   18.6490  -16.6940 C.3       1 KRH1257     0.0000 
     11 O11        13.5180   17.8690  -20.7510 O.2       1 KRH1257     0.0000 
     12 C12        14.6710   16.2930  -22.6910 C.3       1 KRH1257     0.0000 
     13 O13        16.2810   14.4210  -21.5540 O.2       1 KRH1257     0.0000 
     14 C14        16.7470   14.3970  -18.4400 C.2       1 KRH1257     0.0000 
     15 N15        16.5310   14.7840  -17.1620 N.pl3     1 KRH1257     0.0000 
     16 N16        15.5730   15.7780  -17.1620 N.2       1 KRH1257     0.0000 
     17 C17        17.6460   13.2800  -18.7420 C.2       1 KRH1257     0.0000 
     18 N20        19.4050   12.0130  -18.8340 N.2       1 KRH1257     0.0000 
     19 C21        18.3710   11.3050  -19.2860 C.2       1 KRH1257     0.0000 
     20 C23        17.0770   14.0690  -16.0260 C.3       1 KRH1257     0.0000 
     21 C24        16.2670   12.7450  -16.0550 C.ar      1 KRH1257     0.0000 
     22 C25        16.9150   11.5650  -16.1270 C.ar      1 KRH1257     0.0000 
     23 C26        16.2840   10.3070  -16.1890 C.ar      1 KRH1257     0.0000 
     24 C27        14.9000   10.1900  -16.1590 C.ar      1 KRH1257     0.0000 
     25 C28        14.1610   11.3670  -16.1020 C.ar      1 KRH1257     0.0000 
     26 C29        14.8230   12.6390  -16.0420 C.ar      1 KRH1257     0.0000 
     27 N29        17.2680   12.0640  -19.2950 N.pl3     1 KRH1257     0.0000 
     28 C30        13.9810   13.7410  -15.9600 C.ar      1 KRH1257     0.0000 
     29 C31        12.6100   13.6560  -15.9530 C.ar      1 KRH1257     0.0000 
     30 C32        11.9940   12.4040  -16.0450 C.ar      1 KRH1257     0.0000 
     31 C33        12.7830   11.2920  -16.1020 C.ar      1 KRH1257     0.0000 
     32 C34        18.9990   13.2360  -18.4410 C.2       1 KRH1257     0.0000 
     33 C35        15.9070   11.6770  -19.6990 C.3       1 KRH1257     0.0000 
     34 H          13.8023   18.9871  -18.5881 H         1 KRH1257     0.0000 
     35 H          14.3052   18.0659  -17.1605 H         1 KRH1257     0.0000 
     36 H          11.6680   17.7602  -18.5807 H         1 KRH1257     0.0000 
     37 H          18.4082   10.3675  -19.5707 H         1 KRH1257     0.0000 
     38 H          16.8741   14.5584  -15.1067 H         1 KRH1257     0.0000 
     39 H          18.1025   13.8299  -16.1557 H         1 KRH1257     0.0000 
     40 H          17.9803   11.5576  -16.1393 H         1 KRH1257     0.0000 
     41 H          16.8711    9.4572  -16.2582 H         1 KRH1257     0.0000 
     42 H          14.4480    9.2873  -16.1778 H         1 KRH1257     0.0000 
     43 H          14.4277   14.6981  -15.8997 H         1 KRH1257     0.0000 
     44 H          12.0304   14.5013  -15.8810 H         1 KRH1257     0.0000 
     45 H          10.9751   12.3397  -16.0680 H         1 KRH1257     0.0000 
     46 H          12.3329   10.3448  -16.1475 H         1 KRH1257     0.0000 
     47 H          19.5012   13.9233  -18.0482 H         1 KRH1257     0.0000 
     48 H          12.4985   15.6320  -17.5507 H         1 KRH1257     0.0000 
     49 H          12.6321   16.4507  -16.1730 H         1 KRH1257     0.0000 
     50 H          11.1844   16.2200  -16.8340 H         1 KRH1257     0.0000 
     51 H          12.4721   18.5304  -15.8804 H         1 KRH1257     0.0000 
     52 H          12.0028   19.6004  -16.9854 H         1 KRH1257     0.0000 
     53 H          10.9527   18.5285  -16.4071 H         1 KRH1257     0.0000 
     54 H          14.9537   17.1869  -23.0388 H         1 KRH1257     0.0000 
     55 H          15.1811   15.6037  -23.2054 H         1 KRH1257     0.0000 
     56 H          13.7057   16.1791  -22.9258 H         1 KRH1257     0.0000 
     57 H          15.8799   10.7496  -20.0722 H         1 KRH1257     0.0000 
     58 H          15.2698   11.7017  -18.9287 H         1 KRH1257     0.0000 
     59 H          15.5408   12.2867  -20.4020 H         1 KRH1257     0.0000 
@<TRIPOS>BOND
     1    2    1 am   
     2    6    1 am   
     3   12    1 1    
     4    3    2 am   
     5   11    2 2    
     6    4    3 1    
     7    7    3 1    
     8    5    4 1    
     9   16    4 2    
    10    6    5 1    
    11   14    5 2    
    12   13    6 2    
    13    8    7 1    
    14   34    7 1    
    15   35    7 1    
    16    9    8 1    
    17   10    8 1    
    18   36    8 1    
    19   48    9 1    
    20   49    9 1    
    21   50    9 1    
    22   51   10 1    
    23   52   10 1    
    24   53   10 1    
    25   54   12 1    
    26   55   12 1    
    27   56   12 1    
    28   15   14 1    
    29   17   14 1    
    30   16   15 1    
    31   20   15 1    
    32   27   17 1    
    33   32   17 2    
    34   19   18 2    
    35   32   18 1    
    36   27   19 1    
    37   37   19 1    
    38   21   20 1    
    39   38   20 1    
    40   39   20 1    
    41   22   21 ar   
    42   26   21 ar   
    43   23   22 ar   
    44   40   22 1    
    45   24   23 ar   
    46   41   23 1    
    47   25   24 ar   
    48   42   24 1    
    49   26   25 ar   
    50   31   25 ar   
    51   28   26 ar   
    52   33   27 1    
    53   29   28 ar   
    54   43   28 1    
    55   30   29 ar   
    56   44   29 1    
    57   31   30 ar   
    58   45   30 1    
    59   46   31 1    
    60   47   32 1    
    61   57   33 1    
    62   58   33 1    
    63   59   33 1    
@<TRIPOS>SUBSTRUCTURE
     1 KRH1257     1 GROUP   
@<TRIPOS>SET

