#    Name: 3qls_55V_2_INTS_M
#    Modification time : Mon Apr  7 19:42:48 2014

@<TRIPOS>MOLECULE
3qls_55V_2_INTS_M
   73     0     9     0     0
SMALL
NO_CHARGES


@<TRIPOS>ATOM
      1 CA         23.6130  -38.8415   11.2565 C.3       3 GLC5        0.0000 
      2 CA         22.7600  -37.7260   12.3860 C.3       9 GLL5        0.0000 
      3 CA         24.4660  -39.9570   10.1270 C.3       6 GLP5        0.0000 
      4 CA         22.6300  -36.0785   11.7685 C.3       3 GLC5        0.0000 
      5 CA         22.5000  -34.4310   11.1510 C.3       6 GLP5        0.0000 
      6 CA         22.1160  -36.7945   15.7005 C.3       3 GLC5        0.0000 
      7 CA         21.3210  -38.1010   14.1730 C.3       9 GLL5        0.0000 
      8 CA         22.9110  -35.4880   17.2280 C.3       6 GLP5        0.0000 
      9 CA         21.7545  -39.1720   17.9040 C.3       3 GLC5        0.0000 
     10 CA         22.7740  -39.7120   16.3550 C.3       9 GLL5        0.0000 
     11 CA         20.7350  -38.6320   19.4530 C.3       6 GLP5        0.0000 
     12 CA         23.4790  -40.1635   18.1470 C.3       3 GLC5        0.0000 
     13 CA         24.1840  -40.6150   19.9390 C.3       6 GLP5        0.0000 
     14 CA         22.8425  -37.6000   16.7915 C.3       3 GLC5        0.0000 
     15 CA         18.2515  -40.4045   17.7650 C.3       3 GLC5        0.0000 
     16 CA         18.0570  -41.1070   15.8200 C.3       9 GLL5        0.0000 
     17 CA         18.4460  -39.7020   19.7100 C.3       6 GLP5        0.0000 
     18 CA         18.9070  -41.7295   17.6405 C.3       3 GLC5        0.0000 
     19 CA         19.7570  -42.3520   19.4610 C.3       6 GLP5        0.0000 
     20 CA         18.6070  -35.5920   16.7910 C.3       3 GLC5        0.0000 
     21 CA         18.0270  -35.2190   14.8350 C.3       9 GLL5        0.0000 
     22 CA         19.1870  -35.9650   18.7470 C.3       6 GLP5        0.0000 
     23 CA         18.4525  -33.4025   15.0910 C.3       3 GLC5        0.0000 
     24 CA         18.8780  -31.5860   15.3470 C.3       6 GLP5        0.0000 
     25 CA         15.1725  -35.9975   13.2655 C.3       3 GLC5        0.0000 
     26 CA         16.4810  -37.0550   14.0890 C.3       9 GLL5        0.0000 
     27 CA         13.8640  -34.9400   12.4420 C.3       6 GLP5        0.0000 
     28 CA         19.5075  -34.4225   12.3720 C.3       3 GLC5        0.0000 
     29 CA         18.0170  -35.9780   12.5200 C.3       9 GLL5        0.0000 
     30 CA         20.9980  -32.8670   12.2240 C.3       6 GLP5        0.0000 
     31 CA         19.3330  -34.0520   11.1665 C.3       3 GLC5        0.0000 
     32 CA         18.1430  -35.6260   11.3670 C.3       9 GLL5        0.0000 
     33 CA         20.5230  -32.4780   10.9660 C.3       6 GLP5        0.0000 
     34 CA         18.3870  -38.6085   10.5710 C.3       3 GLC5        0.0000 
     35 CA         19.6050  -37.3950    9.5630 C.3       9 GLL5        0.0000 
     36 CA         17.1690  -39.8220   11.5790 C.3       6 GLP5        0.0000 
     37 CA         20.9770  -39.0880    9.2975 C.3       3 GLC5        0.0000 
     38 CA         22.3490  -40.7810    9.0320 C.3       6 GLP5        0.0000 
     39 N          19.6270  -36.5520    6.9245 N.am      2 SEC2        0.0000 
     40 N          19.1510  -35.6710    7.8300 N.am      8 SEL2        0.0000 
     41 N          20.1030  -37.4330    6.0190 N.am      5 SEP2        0.0000 
     42 CA         19.0165  -32.4995    7.0930 C.3       3 GLC5        0.0000 
     43 CA         18.6460  -34.5030    7.3950 C.3       9 GLL5        0.0000 
     44 CA         19.3870  -30.4960    6.7910 C.3       6 GLP5        0.0000 
     45 CA         16.9440  -33.4840    6.9875 C.3       3 GLC5        0.0000 
     46 CA         15.2420  -32.4650    6.5800 C.3       6 GLP5        0.0000 
     47 CA         17.4510  -35.6695    6.1685 C.3       3 GLC5        0.0000 
     48 CA         16.2560  -36.8360    4.9420 C.3       6 GLP5        0.0000 
     49 CA         20.6140  -34.5975    8.0175 C.3       3 GLC5        0.0000 
     50 CA         22.5820  -34.6920    8.6400 C.3       6 GLP5        0.0000 
     51 O          19.5160  -35.0120    5.2995 O.2       1 ALC1        0.0000 
     52 O          18.8160  -34.1490    6.1230 O.2       7 ALL1        0.0000 
     53 O          20.2160  -35.8750    4.4760 O.2       4 ALP1        0.0000 
     54 CA         16.5160  -33.2440    8.0505 C.3       3 GLC5        0.0000 
     55 CA         17.7900  -34.0230    9.5210 C.3       9 GLL5        0.0000 
     56 O          16.6070  -32.0090    9.5090 O.2       1 ALC1        0.0000 
     57 O          17.1220  -33.1950   10.3290 O.2       7 ALL1        0.0000 
     58 O          16.0920  -30.8230    8.6890 O.2       4 ALP1        0.0000 
     59 O          15.6100  -32.5850   10.1635 O.2       1 ALC1        0.0000 
     60 O          14.0980  -31.9750    9.9980 O.2       4 ALP1        0.0000 
     61 CA         18.1807  -39.4445   13.3535 C.3       3 GLC5        0.0000 
     62 CA         18.6850  -38.6080   14.9720 C.3       9 GLL5        0.0000 
     63 CA         18.8771  -37.8325   16.6602 C.3       3 GLC5        0.0000 
     64 CA         18.9820  -37.4470   14.2510 C.3       9 GLL5        0.0000 
     65 CA         18.6670  -37.4080   18.6310 C.3       6 GLP5        0.0000 
     66 CA         15.9342  -35.5309   15.2731 C.3       3 GLC5        0.0000 
     67 CA         14.6540  -34.6220   16.3150 C.3       6 GLP5        0.0000 
     68 CA         17.4521  -38.1547   12.4408 C.3       3 GLC5        0.0000 
     69 CA         16.1745  -35.4770   11.5318 C.3       3 GLC5        0.0000 
     70 CA         14.2690  -35.1520   11.1200 C.3       6 GLP5        0.0000 
     71 CA         17.2969  -37.3304   10.2396 C.3       3 GLC5        0.0000 
     72 CA         15.9780  -38.9190   10.5860 C.3       6 GLP5        0.0000 
     73 CA         20.9430  -35.7087    8.9870 C.3       3 GLC5        0.0000 
@<TRIPOS>BOND
@<TRIPOS>SUBSTRUCTURE
     1 ALC1       51 GROUP        1 X    ALC  0     ROOT ALC X 1
     2 SEC2       39 GROUP        1 X    SEC  0     **** SEC X 2
     3 GLC5        1 GROUP        1 X    GLC  0     **** GLC X 6
     4 ALP1       53 GROUP        1 Y    ALP  0     ROOT ALP Y 8
     5 SEP2       41 GROUP        1 Y    SEP  0     **** SEP Y 9
     6 GLP5        3 GROUP        1 Y    GLP  0     **** GLP Y 13
     7 ALL1       52 GROUP        1 Z    ALL  0     ROOT ALL Z 15
     8 SEL2       40 GROUP        1 Z    SEL  0     **** SEL Z 16
     9 GLL5        2 GROUP        1 Z    GLL  0     **** GLL Z 20
@<TRIPOS>SET

