#    Name: 3qls_55V_2_ligand
#    Modification time : Mon Apr  7 19:42:48 2014

@<TRIPOS>MOLECULE
3qls_55V_2_ligand
   50    51     1     0     0
SMALL
NO_CHARGES


@<TRIPOS>ATOM
      1 C1P        22.7600  -37.7260   12.3860 C.3       1 55V194      0.0000 
      2 O1O        22.6170  -37.8400   13.7950 O.3       1 55V194      0.0000 
      3 C1N        21.3210  -38.1010   14.1730 C.ar      1 55V194      0.0000 
      4 C1M        20.3020  -37.1900   13.8660 C.ar      1 55V194      0.0000 
      5 C1Q        21.0180  -39.2660   14.8950 C.ar      1 55V194      0.0000 
      6 O1V        22.0050  -40.1680   15.2100 O.3       1 55V194      0.0000 
      7 C1W        22.7740  -39.7120   16.3550 C.3       1 55V194      0.0000 
      8 C1R        19.7000  -39.5260   15.2840 C.ar      1 55V194      0.0000 
      9 O1T        19.4190  -40.6760   15.9900 O.3       1 55V194      0.0000 
     10 C1U        18.0570  -41.1070   15.8200 C.3       1 55V194      0.0000 
     11 C1S        18.6850  -38.6080   14.9720 C.ar      1 55V194      0.0000 
     12 C1L        18.9820  -37.4470   14.2510 C.ar      1 55V194      0.0000 
     13 C1J        17.8690  -36.4300   13.9120 C.3       1 55V194      0.0000 
     14 C1K        18.0270  -35.2190   14.8350 C.3       1 55V194      0.0000 
     15 C1X        16.4810  -37.0550   14.0890 C.3       1 55V194      0.0000 
     16 C1I        18.0170  -35.9780   12.5200 C.1       1 55V194      0.0000 
     17 C1H        18.1430  -35.6260   11.3670 C.1       1 55V194      0.0000 
     18 C5         18.3140  -35.2290    9.9960 C.ar      1 55V194      0.0000 
     19 C4         19.0030  -36.0560    9.1050 C.ar      1 55V194      0.0000 
     20 C1Y        19.6050  -37.3950    9.5630 C.3       1 55V194      0.0000 
     21 N3         19.1510  -35.6710    7.8300 N.ar      1 55V194      0.0000 
     22 C2         18.6460  -34.5030    7.3950 C.ar      1 55V194      0.0000 
     23 N1Z        18.8160  -34.1490    6.1230 N.pl3     1 55V194      0.0000 
     24 N1         17.9720  -33.6920    8.2310 N.ar      1 55V194      0.0000 
     25 C6         17.7900  -34.0230    9.5210 C.ar      1 55V194      0.0000 
     26 N1G        17.1220  -33.1950   10.3290 N.pl3     1 55V194      0.0000 
     27 H          20.5268  -36.3269   13.3542 H         1 55V194      0.0000 
     28 H          17.7215  -38.7916   15.2753 H         1 55V194      0.0000 
     29 H          18.4195  -33.2713    5.8538 H         1 55V194      0.0000 
     30 H          19.3249  -34.7926    5.5514 H         1 55V194      0.0000 
     31 H          17.3614  -33.2384   11.2989 H         1 55V194      0.0000 
     32 H          16.4426  -32.6061    9.8913 H         1 55V194      0.0000 
     33 H          23.7061  -37.5372   12.1228 H         1 55V194      0.0000 
     34 H          22.4869  -38.5653   11.9159 H         1 55V194      0.0000 
     35 H          22.1992  -36.9861   12.0144 H         1 55V194      0.0000 
     36 H          23.4959  -40.3595   16.5992 H         1 55V194      0.0000 
     37 H          23.2163  -38.8326   16.1789 H         1 55V194      0.0000 
     38 H          22.1996  -39.5942   17.1651 H         1 55V194      0.0000 
     39 H          17.8461  -41.3025   14.8622 H         1 55V194      0.0000 
     40 H          17.8635  -41.9398   16.3386 H         1 55V194      0.0000 
     41 H          17.4065  -40.4125   16.1275 H         1 55V194      0.0000 
     42 H          18.9162  -34.7767   14.7184 H         1 55V194      0.0000 
     43 H          17.3290  -34.5247   14.6595 H         1 55V194      0.0000 
     44 H          17.9507  -35.4742   15.7989 H         1 55V194      0.0000 
     45 H          16.3537  -37.8506   13.4967 H         1 55V194      0.0000 
     46 H          16.3289  -37.3617   15.0286 H         1 55V194      0.0000 
     47 H          15.7513  -36.4071   13.8704 H         1 55V194      0.0000 
     48 H          20.0673  -37.8699    8.8141 H         1 55V194      0.0000 
     49 H          20.2791  -37.2695   10.2909 H         1 55V194      0.0000 
     50 H          18.9048  -38.0157    9.9157 H         1 55V194      0.0000 
@<TRIPOS>BOND
     1    2    1 1    
     2   33    1 1    
     3   34    1 1    
     4   35    1 1    
     5    3    2 1    
     6    4    3 ar   
     7    5    3 ar   
     8   12    4 ar   
     9   27    4 1    
    10    6    5 1    
    11    8    5 ar   
    12    7    6 1    
    13   36    7 1    
    14   37    7 1    
    15   38    7 1    
    16    9    8 1    
    17   11    8 ar   
    18   10    9 1    
    19   39   10 1    
    20   40   10 1    
    21   41   10 1    
    22   12   11 ar   
    23   28   11 1    
    24   13   12 1    
    25   14   13 1    
    26   15   13 1    
    27   16   13 1    
    28   42   14 1    
    29   43   14 1    
    30   44   14 1    
    31   45   15 1    
    32   46   15 1    
    33   47   15 1    
    34   17   16 3    
    35   18   17 1    
    36   19   18 ar   
    37   25   18 ar   
    38   20   19 1    
    39   21   19 ar   
    40   48   20 1    
    41   49   20 1    
    42   50   20 1    
    43   22   21 ar   
    44   23   22 1    
    45   24   22 ar   
    46   29   23 1    
    47   30   23 1    
    48   25   24 ar   
    49   26   25 1    
    50   31   26 1    
    51   32   26 1    
@<TRIPOS>SUBSTRUCTURE
     1 55V194      1 GROUP   
@<TRIPOS>SET

