#    Name: 4g9u_UMP_2_INTS_M
#    Modification time : Mon Mar 24 21:34:31 2014

@<TRIPOS>MOLECULE
4g9u_UMP_2_INTS_M
   69     0    12     0     0
SMALL
NO_CHARGES


@<TRIPOS>ATOM
      1 O           7.0465   14.8935   -8.7025 O.2       1 ALC1        0.0000 
      2 O           8.3680   15.1530   -9.2630 O.2       9 ALL1        0.0000 
      3 O           5.7250   14.6340   -8.1420 O.2       5 ALP1        0.0000 
      4 N           9.7880   14.1940   -5.9970 N.am      2 SEC2        0.0000 
      5 N           9.3800   14.7360   -7.2830 N.am     10 SEL2        0.0000 
      6 N          10.1960   13.6520   -4.7110 N.am      6 SEP2        0.0000 
      7 N           6.1625   15.5950  -10.6415 N.am      2 SEC2        0.0000 
      8 N           7.5240   15.6020  -11.3370 N.am     10 SEL2        0.0000 
      9 N           4.8010   15.5880   -9.9460 N.am      6 SEP2        0.0000 
     10 CA         11.8745   13.0995   -9.7645 C.3       4 GLC5        0.0000 
     11 CA         12.2930   13.7320   -7.7330 C.3      12 GLL5        0.0000 
     12 CA         11.4560   12.4670  -11.7960 C.3       8 GLP5        0.0000 
     13 CA         12.4245   11.7355   -8.2010 C.3       4 GLC5        0.0000 
     14 CA         12.5560    9.7390   -8.6690 C.3       8 GLP5        0.0000 
     15 CA         10.8495   12.6325   -6.6530 C.3       4 GLC5        0.0000 
     16 CA          9.4060   11.5330   -5.5730 C.3       8 GLP5        0.0000 
     17 N          13.9180   13.8280   -5.4180 N.am      2 SEC2        0.0000 
     18 N          14.0590   14.7220   -6.3860 N.am     10 SEL2        0.0000 
     19 N          13.7770   12.9340   -4.4500 N.am      6 SEP2        0.0000 
     20 N          15.2565   15.0700   -5.9705 N.am      2 SEC2        0.0000 
     21 N          16.4540   15.4180   -5.5550 N.am      6 SEP2        0.0000 
     22 CA         15.2135   14.7680  -11.6760 C.3       4 GLC5        0.0000 
     23 CA         14.5760   14.2310  -10.0200 C.3      12 GLL5        0.0000 
     24 CA         15.8510   15.3050  -13.3320 C.3       8 GLP5        0.0000 
     25 CA         13.0160   13.3490  -10.9080 C.3       4 GLC5        0.0000 
     26 N          16.6940   13.1715   -8.4530 N.am      2 SEC2        0.0000 
     27 N          15.8440   13.6300   -9.8880 N.am     10 SEL2        0.0000 
     28 N          17.5440   12.7130   -7.0180 N.am      6 SEP2        0.0000 
     29 N          16.9530   14.4430   -9.9115 N.am      2 SEC2        0.0000 
     30 N          18.0620   15.2560   -9.9350 N.am      6 SEP2        0.0000 
     31 NZ         17.5725   12.3075   -8.4690 N.4       3 LYC4        0.0000 
     32 NZ         17.6010   11.9020   -9.9200 N.4      11 LYL4        0.0000 
     33 NZ         17.0610   11.7700   -6.2260 N.4       7 LYP4        0.0000 
     34 NZ         17.8315   13.5790   -9.9275 N.4       3 LYC4        0.0000 
     35 NZ         19.2520   15.0390  -10.5100 N.4       7 LYP4        0.0000 
     36 N          17.1250   11.2790   -8.3660 N.am      2 SEC2        0.0000 
     37 N          17.6010   11.9020   -9.9200 N.am     10 SEL2        0.0000 
     38 N          16.6490   10.6560   -6.8120 N.am      6 SEP2        0.0000 
     39 N          17.5725   12.3075   -8.4690 N.am      2 SEC2        0.0000 
     40 N          18.6475   12.8450  -10.3225 N.am      2 SEC2        0.0000 
     41 N          19.6940   13.7880  -10.7250 N.am      6 SEP2        0.0000 
     42 N          17.8315   13.5790   -9.9275 N.am      2 SEC2        0.0000 
     43 NZ         17.2200   12.3270  -12.6980 N.4       3 LYC4        0.0000 
     44 NZ         16.0810   11.9500  -11.8530 N.4      11 LYL4        0.0000 
     45 NZ         18.6430   11.4630  -13.9080 N.4       7 LYP4        0.0000 
     46 NZ         15.1855   10.4590  -11.7005 N.4       3 LYC4        0.0000 
     47 NZ         13.7210    9.3310  -12.6530 N.4       7 LYP4        0.0000 
     48 N          16.9885   11.1995  -12.6610 N.am      2 SEC2        0.0000 
     49 N          16.0810   11.9500  -11.8530 N.am     10 SEL2        0.0000 
     50 N          17.8960   10.4490  -13.4690 N.am      6 SEP2        0.0000 
     51 N          17.2200   12.3270  -12.6980 N.am      2 SEC2        0.0000 
     52 N          18.3590   12.7040  -13.5430 N.am      6 SEP2        0.0000 
     53 N          15.1855   10.4590  -11.7005 N.am      2 SEC2        0.0000 
     54 N          14.2900    8.9680  -11.5480 N.am      6 SEP2        0.0000 
     55 N          15.0415   11.2490  -12.4915 N.am      2 SEC2        0.0000 
     56 N          14.0020   10.5480  -13.1300 N.am      6 SEP2        0.0000 
     57 NZ         15.9965   10.8835   -8.1960 N.4       3 LYC4        0.0000 
     58 NZ         15.3440   11.1110   -9.5800 N.4      11 LYL4        0.0000 
     59 NZ         14.8170   10.0395  -10.5640 N.4       3 LYC4        0.0000 
     60 N          15.9965   10.8835   -8.1960 N.am      2 SEC2        0.0000 
     61 N          15.3440   11.1110   -9.5800 N.am     10 SEL2        0.0000 
     62 N          14.8170   10.0395  -10.5640 N.am      2 SEC2        0.0000 
     63 N          14.3465   10.8685   -8.7480 N.am      2 SEC2        0.0000 
     64 N          13.3490   10.6260   -7.9160 N.am      6 SEP2        0.0000 
     65 CA         10.8983   14.0360  -11.2752 C.3       4 GLC5        0.0000 
     66 CA         10.9120   15.5420  -10.3440 C.3      12 GLL5        0.0000 
     67 CA         11.5995   15.1522   -6.2162 C.3       4 GLC5        0.0000 
     68 CA         11.8870   15.1110   -8.1640 C.3      12 GLL5        0.0000 
     69 CA         11.1090   15.8830   -4.4840 C.3       8 GLP5        0.0000 
@<TRIPOS>BOND
@<TRIPOS>SUBSTRUCTURE
     1 ALC1        1 GROUP        1 X    ALC  0     ROOT ALC X 1
     2 SEC2        4 GROUP        1 X    SEC  0     **** SEC X 2
     3 LYC4       31 GROUP        1 X    LYC  0     **** LYC X 4
     4 GLC5       10 GROUP        1 X    GLC  0     **** GLC X 6
     5 ALP1        3 GROUP        1 Y    ALP  0     ROOT ALP Y 8
     6 SEP2        6 GROUP        1 Y    SEP  0     **** SEP Y 9
     7 LYP4       33 GROUP        1 Y    LYP  0     **** LYP Y 11
     8 GLP5       12 GROUP        1 Y    GLP  0     **** GLP Y 13
     9 ALL1        2 GROUP        1 Z    ALL  0     ROOT ALL Z 15
    10 SEL2        5 GROUP        1 Z    SEL  0     **** SEL Z 16
    11 LYL4       32 GROUP        1 Z    LYL  0     **** LYL Z 18
    12 GLL5       11 GROUP        1 Z    GLL  0     **** GLL Z 20
@<TRIPOS>SET

