#    Name: 4g9u_UMP_2_ligand
#    Modification time : Mon Mar 24 21:34:31 2014

@<TRIPOS>MOLECULE
4g9u_UMP_2_ligand
   31    32     1     0     0
SMALL
NO_CHARGES


@<TRIPOS>ATOM
      1 N1         10.7130   15.1830   -9.0210 N.am      1 UMP401      0.0000 
      2 C2          9.4850   15.0270   -8.4890 C.2       1 UMP401      0.0000 
      3 N3          8.3680   15.1530   -9.2630 N.am      1 UMP401      0.0000 
      4 C4          8.4890   15.4740  -10.6020 C.2       1 UMP401      0.0000 
      5 C5          9.7690   15.6680  -11.1650 C.2       1 UMP401      0.0000 
      6 C6         10.9120   15.5420  -10.3440 C.2       1 UMP401      0.0000 
      7 O2          9.3800   14.7360   -7.2830 O.2       1 UMP401      0.0000 
      8 O4          7.5240   15.6020  -11.3370 O.2       1 UMP401      0.0000 
      9 C1'        11.8870   15.1110   -8.1640 C.3       1 UMP401      0.0000 
     10 C2'        12.2930   13.7320   -7.7330 C.3       1 UMP401      0.0000 
     11 C3'        13.8110   14.0070   -7.5740 C.3       1 UMP401      0.0000 
     12 C4'        14.1510   14.9120   -8.7040 C.3       1 UMP401      0.0000 
     13 O3'        14.0590   14.7220   -6.3860 O.3       1 UMP401      0.0000 
     14 O4'        12.9400   15.5950   -8.9380 O.3       1 UMP401      0.0000 
     15 C5'        14.5760   14.2310  -10.0200 C.3       1 UMP401      0.0000 
     16 O5'        15.8440   13.6300   -9.8880 O.3       1 UMP401      0.0000 
     17 P          16.1420   12.0850  -10.3430 P.3       1 UMP401      0.0000 
     18 OP1        17.6010   11.9020   -9.9200 O.co2     1 UMP401      0.0000 
     19 OP2        16.0810   11.9500  -11.8530 O.co2     1 UMP401      0.0000 
     20 OP3        15.3440   11.1110   -9.5800 O.co2     1 UMP401      0.0000 
     21 H           7.4288   15.0101   -8.8557 H         1 UMP401      0.0000 
     22 H           9.8679   15.8959  -12.1503 H         1 UMP401      0.0000 
     23 H          11.8324   15.7099  -10.7194 H         1 UMP401      0.0000 
     24 H          11.7572   15.7296   -7.2926 H         1 UMP401      0.0000 
     25 H          12.1518   13.0445   -8.4979 H         1 UMP401      0.0000 
     26 H          11.8924   13.4974   -6.8045 H         1 UMP401      0.0000 
     27 H          14.3306   13.1093   -7.6613 H         1 UMP401      0.0000 
     28 H          14.9101   15.6039   -8.4001 H         1 UMP401      0.0000 
     29 H          14.5599   15.0057  -10.8036 H         1 UMP401      0.0000 
     30 H          13.7910   13.5000  -10.2728 H         1 UMP401      0.0000 
     31 H          13.5818   15.5928   -6.5038 H         1 UMP401      0.0000 
@<TRIPOS>BOND
     1    2    1 1    
     2    6    1 1    
     3    9    1 1    
     4    3    2 1    
     5    7    2 2    
     6    4    3 1    
     7   21    3 1    
     8    5    4 1    
     9    8    4 2    
    10    6    5 2    
    11   22    5 1    
    12   23    6 1    
    13   10    9 1    
    14   14    9 1    
    15   24    9 1    
    16   11   10 1    
    17   25   10 1    
    18   26   10 1    
    19   12   11 1    
    20   13   11 1    
    21   27   11 1    
    22   14   12 1    
    23   15   12 1    
    24   28   12 1    
    25   31   13 1    
    26   16   15 1    
    27   29   15 1    
    28   30   15 1    
    29   17   16 1    
    30   18   17 ar   
    31   19   17 ar   
    32   20   17 ar   
@<TRIPOS>SUBSTRUCTURE
     1 UMP401      1 GROUP   
@<TRIPOS>SET

