#    Name: 3pg3_DG7_1_INTS_M
#    Modification time : Tue Mar 25 06:32:05 2014

@<TRIPOS>MOLECULE
3pg3_DG7_1_INTS_M
   94     0     9     0     0
SMALL
NO_CHARGES


@<TRIPOS>ATOM
      1 CA        -16.0250  -11.0775   19.7735 C.3       3 GLC5        0.0000 
      2 CA        -15.1980   -9.6670   18.8440 C.3       9 GLL5        0.0000 
      3 CA        -16.8520  -12.4880   20.7030 C.3       6 GLP5        0.0000 
      4 CA        -14.9465   -9.8630   20.8175 C.3       3 GLC5        0.0000 
      5 CA        -14.6950  -10.0590   22.7910 C.3       6 GLP5        0.0000 
      6 CA        -12.8325  -10.9235   16.0280 C.3       3 GLC5        0.0000 
      7 CA        -13.8160   -9.3220   16.8090 C.3       9 GLL5        0.0000 
      8 CA        -11.8490  -12.5250   15.2470 C.3       6 GLP5        0.0000 
      9 CA        -12.3220   -8.7660   19.6910 C.3       3 GLC5        0.0000 
     10 CA        -13.7910   -7.6160   18.6040 C.3       9 GLL5        0.0000 
     11 CA        -10.8530   -9.9160   20.7780 C.3       6 GLP5        0.0000 
     12 CA        -12.3035   -6.7885   18.0445 C.3       3 GLC5        0.0000 
     13 CA        -10.8160   -5.9610   17.4850 C.3       6 GLP5        0.0000 
     14 CA        -12.4045   -6.7750   19.8340 C.3       3 GLC5        0.0000 
     15 CA        -11.0180   -5.9340   21.0640 C.3       6 GLP5        0.0000 
     16 CA        -14.3895   -5.9800   19.5790 C.3       3 GLC5        0.0000 
     17 CA        -14.9880   -4.3440   20.5540 C.3       6 GLP5        0.0000 
     18 CA        -14.3620   -6.0230   17.2555 C.3       3 GLC5        0.0000 
     19 CA        -14.9330   -4.4300   15.9070 C.3       6 GLP5        0.0000 
     20 N         -16.9145   -4.3785   18.5610 N.am      2 SEC2        0.0000 
     21 N         -18.2570   -4.8950   18.8810 N.am      8 SEL2        0.0000 
     22 N         -15.5720   -3.8620   18.2410 N.am      5 SEP2        0.0000 
     23 CA        -23.2295    3.7025   25.9295 C.3       3 GLC5        0.0000 
     24 CA        -21.9610    3.5660   24.5340 C.3       9 GLL5        0.0000 
     25 CA        -24.4980    3.8390   27.3250 C.3       6 GLP5        0.0000 
     26 CA        -21.1065    2.8820   26.2720 C.3       3 GLC5        0.0000 
     27 CA        -20.2520    2.1980   28.0100 C.3       6 GLP5        0.0000 
     28 CA        -22.5010    3.3445   20.3095 C.3       3 GLC5        0.0000 
     29 CA        -22.4620    2.7620   22.3220 C.3       9 GLL5        0.0000 
     30 CA        -22.5400    3.9270   18.2970 C.3       6 GLP5        0.0000 
     31 CA        -19.1760  -10.0015   11.4815 C.3       3 GLC5        0.0000 
     32 CA        -18.9000   -8.3440   12.6250 C.3       9 GLL5        0.0000 
     33 CA        -19.4520  -11.6590   10.3380 C.3       6 GLP5        0.0000 
     34 CA        -17.8865   -9.8600   15.4730 C.3       3 GLC5        0.0000 
     35 CA        -18.2350   -8.4240   13.8540 C.3       9 GLL5        0.0000 
     36 CA        -17.5380  -11.2960   17.0920 C.3       6 GLP5        0.0000 
     37 CA        -23.3285    1.2220   26.3035 C.3       3 GLC5        0.0000 
     38 CA        -22.8080    1.4160   24.2870 C.3       9 GLL5        0.0000 
     39 CA        -23.8490    1.0280   28.3200 C.3       6 GLP5        0.0000 
     40 CA        -20.5455   -3.6420   22.4075 C.3       3 GLC5        0.0000 
     41 CA        -21.2980   -2.3900   20.8360 C.3       9 GLL5        0.0000 
     42 CA        -19.7930   -4.8940   23.9790 C.3       6 GLP5        0.0000 
     43 CA        -20.7325   -1.5255   22.7085 C.3       3 GLC5        0.0000 
     44 CA        -20.1670   -0.6610   24.5810 C.3       6 GLP5        0.0000 
     45 CA        -17.1700   -9.2280   17.4640 C.3       3 GLC5        0.0000 
     46 CA        -16.8020   -7.1600   17.8360 C.3       9 GLL5        0.0000 
     47 CA        -17.1860   -7.0900   19.7325 C.3       3 GLC5        0.0000 
     48 CA        -17.5700   -7.0200   21.6290 C.3       6 GLP5        0.0000 
     49 CA        -15.8950   -5.7520   19.1950 C.3       3 GLC5        0.0000 
     50 CA        -24.9390    1.0055   19.4080 C.3       3 GLC5        0.0000 
     51 CA        -23.6440   -0.3800   19.8720 C.3       9 GLL5        0.0000 
     52 CA        -26.2340    2.3910   18.9440 C.3       6 GLP5        0.0000 
     53 CA        -21.5890    0.1205   19.8420 C.3       3 GLC5        0.0000 
     54 CA        -19.5340    0.6210   19.8120 C.3       6 GLP5        0.0000 
     55 CA        -21.4420    0.5680   20.9525 C.3       3 GLC5        0.0000 
     56 CA        -23.3500    0.5150   22.0930 C.3       9 GLL5        0.0000 
     57 N         -22.0050    2.1420   26.4000 N.am      2 SEC2        0.0000 
     58 N         -22.3600    2.4070   25.0540 N.am      8 SEL2        0.0000 
     59 N         -21.6500    1.8770   27.7460 N.am      5 SEP2        0.0000 
     60 O         -20.0605   -5.6870   16.2340 O.2       1 ALC1        0.0000 
     61 O         -18.7750   -6.0370   17.0130 O.2       7 ALL1        0.0000 
     62 O         -21.3460   -5.3370   15.4550 O.2       4 ALP1        0.0000 
     63 O         -20.8025   -4.9630   16.6825 O.2       1 ALC1        0.0000 
     64 O         -20.2590   -4.5890   17.9100 O.2       7 ALL1        0.0000 
     65 CA        -19.7120   -4.6180   21.6145 C.3       3 GLC5        0.0000 
     66 CA        -19.9710   -3.2660   20.2680 C.3       9 GLL5        0.0000 
     67 CA        -19.4530   -5.9700   22.9610 C.3       6 GLP5        0.0000 
     68 CA        -18.0590   -3.3920   20.6820 C.3       3 GLC5        0.0000 
     69 CA        -16.1470   -3.5180   21.0960 C.3       6 GLP5        0.0000 
     70 CA        -15.9561  -10.2637   17.3354 C.3       3 GLC5        0.0000 
     71 CA        -14.6670   -8.6150   17.8530 C.3       9 GLL5        0.0000 
     72 CA        -20.8345   -8.0392   12.8449 C.3       3 GLC5        0.0000 
     73 CA        -19.2350   -7.1000   12.0870 C.3       9 GLL5        0.0000 
     74 CA        -22.4180   -8.3790   13.6700 C.3       6 GLP5        0.0000 
     75 CA        -20.2628   -6.7780   14.1467 C.3       3 GLC5        0.0000 
     76 CA        -18.9050   -5.9380   12.7790 C.3       9 GLL5        0.0000 
     77 CA        -21.9550   -7.5790   14.9020 C.3       6 GLP5        0.0000 
     78 CA        -20.0117   -7.7090   14.5518 C.3       3 GLC5        0.0000 
     79 CA        -17.9020   -7.2540   14.5490 C.3       9 GLL5        0.0000 
     80 CA        -16.5010   -5.5325   15.0918 C.3       3 GLC5        0.0000 
     81 CA        -18.6547   -7.8140   18.4763 C.3       3 GLC5        0.0000 
     82 CA        -17.6630   -6.7840   16.8690 C.3       9 GLL5        0.0000 
     83 CA        -20.0770   -8.6560   19.6000 C.3       6 GLP5        0.0000 
     84 CA        -16.0828   -5.7010   16.6297 C.3       3 GLC5        0.0000 
     85 CA        -24.7297   -1.1048   18.3462 C.3       3 GLC5        0.0000 
     86 CA        -23.6730   -1.8870   20.1450 C.3       9 GLL5        0.0000 
     87 CA        -25.8010   -1.0760   16.6840 C.3       6 GLP5        0.0000 
     88 CA        -23.1730   -3.5055   21.8090 C.3       3 GLC5        0.0000 
     89 CA        -23.6100   -4.8370   23.3500 C.3       6 GLP5        0.0000 
     90 CA        -24.8633    2.0630   21.8573 C.3       3 GLC5        0.0000 
     91 CA        -26.7180    2.7880   21.3630 C.3       6 GLP5        0.0000 
     92 CA        -24.5465    0.8023   23.7099 C.3       3 GLC5        0.0000 
     93 CA        -25.9980    0.6030   24.5770 C.3       6 GLP5        0.0000 
     94 CA        -21.6310    0.1702   23.7119 C.3       3 GLC5        0.0000 
@<TRIPOS>BOND
@<TRIPOS>SUBSTRUCTURE
     1 ALC1       60 GROUP        1 X    ALC  0     ROOT ALC X 1
     2 SEC2       20 GROUP        1 X    SEC  0     **** SEC X 2
     3 GLC5        1 GROUP        1 X    GLC  0     **** GLC X 6
     4 ALP1       62 GROUP        1 Y    ALP  0     ROOT ALP Y 8
     5 SEP2       22 GROUP        1 Y    SEP  0     **** SEP Y 9
     6 GLP5        3 GROUP        1 Y    GLP  0     **** GLP Y 13
     7 ALL1       61 GROUP        1 Z    ALL  0     ROOT ALL Z 15
     8 SEL2       21 GROUP        1 Z    SEL  0     **** SEL Z 16
     9 GLL5        2 GROUP        1 Z    GLL  0     **** GLL Z 20
@<TRIPOS>SET

