#    Name: 3pg3_DG7_1_ligand
#    Modification time : Tue Mar 25 06:32:05 2014

@<TRIPOS>MOLECULE
3pg3_DG7_1_ligand
   65    68     1     0     0
SMALL
NO_CHARGES


@<TRIPOS>ATOM
      1 CAA       -19.9690   -7.0100   10.7420 C.3       1 DG7362      0.0000 
      2 CAB       -15.1980   -9.6670   18.8440 C.3       1 DG7362      0.0000 
      3 CAC       -13.8160   -9.3220   16.8090 C.3       1 DG7362      0.0000 
      4 CAD       -13.7910   -7.6160   18.6040 C.3       1 DG7362      0.0000 
      5 OAE       -18.2570   -4.8950   18.8810 O.2       1 DG7362      0.0000 
      6 CAF       -21.9940    3.7820   23.1550 C.ar      1 DG7362      0.0000 
      7 CAG       -21.9610    3.5660   24.5340 C.ar      1 DG7362      0.0000 
      8 CAH       -22.4620    2.7620   22.3220 C.ar      1 DG7362      0.0000 
      9 CAI       -18.9000   -8.3440   12.6250 C.ar      1 DG7362      0.0000 
     10 CAJ       -18.9050   -5.9380   12.7790 C.ar      1 DG7362      0.0000 
     11 CAK       -18.2350   -8.4240   13.8540 C.ar      1 DG7362      0.0000 
     12 CAL       -18.2360   -6.0160   14.0040 C.ar      1 DG7362      0.0000 
     13 CAM       -22.8080    1.4160   24.2870 C.ar      1 DG7362      0.0000 
     14 CAN       -21.2980   -2.3900   20.8360 C.2       1 DG7362      0.0000 
     15 CAO       -16.8020   -7.1600   17.8360 C.2       1 DG7362      0.0000 
     16 CAP       -23.6440   -0.3800   19.8720 C.3       1 DG7362      0.0000 
     17 CAQ       -23.6730   -1.8870   20.1450 C.3       1 DG7362      0.0000 
     18 CAR       -23.3500    0.5150   22.0930 C.3       1 DG7362      0.0000 
     19 NAS       -22.3600    2.4070   25.0540 N.ar      1 DG7362      0.0000 
     20 NAT       -21.9960   -3.2990   18.8720 N.2       1 DG7362      0.0000 
     21 NAU       -16.2470   -8.0280   15.9140 N.2       1 DG7362      0.0000 
     22 NAV       -18.7750   -6.0370   17.0130 N.am      1 DG7362      0.0000 
     23 NAW       -20.2590   -4.5890   17.9100 N.am      1 DG7362      0.0000 
     24 OAX       -22.7860    0.3190   20.7950 O.3       1 DG7362      0.0000 
     25 SAY       -19.9710   -3.2660   20.2680 S.3       1 DG7362      0.0000 
     26 CAZ       -19.0590   -5.1760   17.9940 C.2       1 DG7362      0.0000 
     27 CBA       -19.2350   -7.1000   12.0870 C.ar      1 DG7362      0.0000 
     28 CBB       -22.8720    1.5600   22.8980 C.ar      1 DG7362      0.0000 
     29 CBC       -22.3000   -2.5320   19.9460 C.2       1 DG7362      0.0000 
     30 CBD       -17.9020   -7.2540   14.5490 C.ar      1 DG7362      0.0000 
     31 CBE       -17.6630   -6.7840   16.8690 C.2       1 DG7362      0.0000 
     32 CBF       -15.9020   -7.9220   17.2020 C.2       1 DG7362      0.0000 
     33 CBG       -20.7460   -3.7720   18.8480 C.2       1 DG7362      0.0000 
     34 NBH       -17.2730   -7.3580   15.7270 N.pl3     1 DG7362      0.0000 
     35 CBI       -14.6670   -8.6150   17.8530 C.3       1 DG7362      0.0000 
     36 H         -21.6822    4.6684   22.7618 H         1 DG7362      0.0000 
     37 H         -21.6143    4.3409   25.1411 H         1 DG7362      0.0000 
     38 H         -22.5023    2.8954   21.3137 H         1 DG7362      0.0000 
     39 H         -19.1417   -9.2044   12.1183 H         1 DG7362      0.0000 
     40 H         -19.1527   -5.0192   12.3904 H         1 DG7362      0.0000 
     41 H         -17.9911   -9.3393   14.2465 H         1 DG7362      0.0000 
     42 H         -17.9892   -5.1510   14.5056 H         1 DG7362      0.0000 
     43 H         -23.1216    0.5106   24.6981 H         1 DG7362      0.0000 
     44 H         -21.1691   -1.9593   21.6275 H         1 DG7362      0.0000 
     45 H         -16.8321   -6.9341   18.7507 H         1 DG7362      0.0000 
     46 H         -24.6817   -0.0094   19.9313 H         1 DG7362      0.0000 
     47 H         -23.3124   -0.2354   18.8295 H         1 DG7362      0.0000 
     48 H         -24.3920   -2.3586   19.4702 H         1 DG7362      0.0000 
     49 H         -24.0039   -2.0577   21.1727 H         1 DG7362      0.0000 
     50 H         -23.2761   -0.4760   22.6727 H         1 DG7362      0.0000 
     51 H         -24.4907    0.6128   21.9805 H         1 DG7362      0.0000 
     52 H         -19.5347   -6.1527   16.2294 H         1 DG7362      0.0000 
     53 H         -20.8584   -4.7850   17.0463 H         1 DG7362      0.0000 
     54 H         -20.1466   -6.0618   10.4785 H         1 DG7362      0.0000 
     55 H         -19.4404   -7.4258   10.0019 H         1 DG7362      0.0000 
     56 H         -20.8528   -7.4771   10.7692 H         1 DG7362      0.0000 
     57 H         -14.4546  -10.1480   19.3088 H         1 DG7362      0.0000 
     58 H         -15.7688   -9.2540   19.5537 H         1 DG7362      0.0000 
     59 H         -15.7549  -10.3603   18.3866 H         1 DG7362      0.0000 
     60 H         -13.4478   -8.6820   16.1346 H         1 DG7362      0.0000 
     61 H         -13.0366   -9.7930   17.2221 H         1 DG7362      0.0000 
     62 H         -14.3403  -10.0088   16.3056 H         1 DG7362      0.0000 
     63 H         -13.0117   -8.0625   19.0437 H         1 DG7362      0.0000 
     64 H         -13.4214   -6.9146   17.9946 H         1 DG7362      0.0000 
     65 H         -14.3004   -7.1417   19.3220 H         1 DG7362      0.0000 
@<TRIPOS>BOND
     1   27    1 1    
     2   54    1 1    
     3   55    1 1    
     4   56    1 1    
     5   35    2 1    
     6   57    2 1    
     7   58    2 1    
     8   59    2 1    
     9   35    3 1    
    10   60    3 1    
    11   61    3 1    
    12   62    3 1    
    13   35    4 1    
    14   63    4 1    
    15   64    4 1    
    16   65    4 1    
    17   26    5 2    
    18    7    6 ar   
    19    8    6 ar   
    20   36    6 1    
    21   19    7 ar   
    22   37    7 1    
    23   28    8 ar   
    24   38    8 1    
    25   11    9 ar   
    26   27    9 ar   
    27   39    9 1    
    28   12   10 ar   
    29   27   10 ar   
    30   40   10 1    
    31   30   11 ar   
    32   41   11 1    
    33   30   12 ar   
    34   42   12 1    
    35   19   13 ar   
    36   28   13 ar   
    37   43   13 1    
    38   25   14 1    
    39   29   14 2    
    40   44   14 1    
    41   31   15 2    
    42   32   15 1    
    43   45   15 1    
    44   17   16 1    
    45   24   16 1    
    46   46   16 1    
    47   47   16 1    
    48   29   17 1    
    49   48   17 1    
    50   49   17 1    
    51   24   18 1    
    52   28   18 1    
    53   50   18 1    
    54   51   18 1    
    55   29   20 1    
    56   33   20 2    
    57   32   21 2    
    58   34   21 1    
    59   26   22 am   
    60   31   22 1    
    61   52   22 1    
    62   26   23 am   
    63   33   23 1    
    64   53   23 1    
    65   33   25 1    
    66   34   30 1    
    67   34   31 1    
    68   35   32 1    
@<TRIPOS>SUBSTRUCTURE
     1 DG7362      1 GROUP   
@<TRIPOS>SET

