#    Name: 2eg5_SAH_3_INTS_M
#    Modification time : Tue Mar 25 11:01:33 2014

@<TRIPOS>MOLECULE
2eg5_SAH_3_INTS_M
   56     0     9     0     0
SMALL
NO_CHARGES


@<TRIPOS>ATOM
      1 O          -9.5930   35.2615   52.7140 O.2       1 ALC1        0.0000 
      2 O         -11.0510   35.1910   52.8740 O.2       7 ALL1        0.0000 
      3 O          -8.1350   35.3320   52.5540 O.2       4 ALP1        0.0000 
      4 O         -11.3635   33.9430   53.4295 O.2       1 ALC1        0.0000 
      5 O         -11.6760   32.6950   53.9850 O.2       4 ALP1        0.0000 
      6 CA        -12.4125   32.3935   51.3645 C.3       3 GLC5        0.0000 
      7 CA        -11.4520   33.8420   50.7810 C.3       9 GLL5        0.0000 
      8 CA        -13.3730   30.9450   51.9480 C.3       6 GLP5        0.0000 
      9 CA         -9.1660   35.3685   49.3010 C.3       3 GLC5        0.0000 
     10 CA        -10.0660   33.8470   50.1660 C.3       9 GLL5        0.0000 
     11 CA         -8.2660   36.8900   48.4360 C.3       6 GLP5        0.0000 
     12 CA        -10.7935   33.9835   47.4880 C.3       3 GLC5        0.0000 
     13 CA         -9.8770   32.6170   48.8450 C.3       9 GLL5        0.0000 
     14 CA        -11.7100   35.3500   46.1310 C.3       6 GLP5        0.0000 
     15 CA         -8.0995   29.6330   49.7730 C.3       3 GLC5        0.0000 
     16 CA         -8.7740   31.5640   49.8230 C.3       9 GLL5        0.0000 
     17 CA         -7.4250   27.7020   49.7230 C.3       6 GLP5        0.0000 
     18 CA         -6.7755   33.3585   51.8000 C.3       3 GLC5        0.0000 
     19 CA         -7.4260   32.2530   50.0300 C.3       9 GLL5        0.0000 
     20 CA         -6.1250   34.4640   53.5700 C.3       6 GLP5        0.0000 
     21 O          -5.5790   34.6170   49.3560 O.2       1 ALC1        0.0000 
     22 O          -6.3610   33.8930   48.5700 O.2       7 ALL1        0.0000 
     23 O          -4.7970   35.3410   50.1420 O.2       4 ALP1        0.0000 
     24 O          -3.5025   33.4280   49.1105 O.2       1 ALC1        0.0000 
     25 O          -4.1610   32.3600   48.4070 O.2       7 ALL1        0.0000 
     26 O          -2.8440   34.4960   49.8140 O.2       4 ALP1        0.0000 
     27 CA         -5.6910   33.0990   52.0665 C.3       3 GLC5        0.0000 
     28 CA         -5.2570   31.7340   50.5630 C.3       9 GLL5        0.0000 
     29 CA         -6.9175   31.9050   51.9480 C.3       3 GLC5        0.0000 
     30 CA         -8.5780   32.0760   53.3330 C.3       6 GLP5        0.0000 
     31 CA         -0.0445   30.2625   54.1160 C.3       3 GLC5        0.0000 
     32 CA         -1.8860   29.6890   53.4790 C.3       9 GLL5        0.0000 
     33 CA          1.7970   30.8360   54.7530 C.3       6 GLP5        0.0000 
     34 CA         -1.2920   30.2145   55.5675 C.3       3 GLC5        0.0000 
     35 CA         -0.6980   30.7400   57.6560 C.3       6 GLP5        0.0000 
     36 O           0.1745   28.5140   54.4215 O.2       1 ALC1        0.0000 
     37 O          -1.2640   28.5470   53.7930 O.2       7 ALL1        0.0000 
     38 O           1.6130   28.4810   55.0500 O.2       4 ALP1        0.0000 
     39 N          -0.8215   30.8605   55.2180 N.am      2 SEC2        0.0000 
     40 N          -1.5390   30.8750   54.1230 N.am      8 SEL2        0.0000 
     41 N          -0.1040   30.8460   56.3130 N.am      5 SEP2        0.0000 
     42 CA         -2.0195   34.0405   53.0195 C.3       3 GLC5        0.0000 
     43 CA         -2.1250   32.0970   53.8130 C.3       9 GLL5        0.0000 
     44 CA         -1.9140   35.9840   52.2260 C.3       6 GLP5        0.0000 
     45 CA         -0.6800   31.5570   52.4645 C.3       3 GLC5        0.0000 
     46 CA          0.7650   31.0170   51.1160 C.3       6 GLP5        0.0000 
     47 CA         -0.1640   31.4665   54.2830 C.3       3 GLC5        0.0000 
     48 CA         -2.1435   31.6590   55.7660 C.3       3 GLC5        0.0000 
     49 CA         -2.1620   31.2210   57.7190 C.3       6 GLP5        0.0000 
     50 CA         -1.8005   31.3120   51.1420 C.3       3 GLC5        0.0000 
     51 CA         -3.4840   30.9460   52.1830 C.3       9 GLL5        0.0000 
     52 CA         -0.1170   31.6780   50.1010 C.3       6 GLP5        0.0000 
     53 CA         -9.6685   32.9603   51.9032 C.3       3 GLC5        0.0000 
     54 CA         -8.3390   31.9923   51.6298 C.3       3 GLC5        0.0000 
     55 CA         -0.8080   30.3618   52.0485 C.3       3 GLC5        0.0000 
     56 CA         -2.8760   29.7240   52.4830 C.3       9 GLL5        0.0000 
@<TRIPOS>BOND
@<TRIPOS>SUBSTRUCTURE
     1 ALC1        1 GROUP        1 X    ALC  0     ROOT ALC X 1
     2 SEC2       39 GROUP        1 X    SEC  0     **** SEC X 2
     3 GLC5        6 GROUP        1 X    GLC  0     **** GLC X 6
     4 ALP1        3 GROUP        1 Y    ALP  0     ROOT ALP Y 8
     5 SEP2       41 GROUP        1 Y    SEP  0     **** SEP Y 9
     6 GLP5        8 GROUP        1 Y    GLP  0     **** GLP Y 13
     7 ALL1        2 GROUP        1 Z    ALL  0     ROOT ALL Z 15
     8 SEL2       40 GROUP        1 Z    SEL  0     **** SEL Z 16
     9 GLL5        7 GROUP        1 Z    GLL  0     **** GLL Z 20
@<TRIPOS>SET

