#    Name: 2eg5_SAH_3_ligand
#    Modification time : Tue Mar 25 11:01:33 2014

@<TRIPOS>MOLECULE
2eg5_SAH_3_ligand
   46    48     1     0     0
SMALL
NO_CHARGES


@<TRIPOS>ATOM
      1 N         -11.0510   35.1910   52.8740 N.4       1 SAH2501     0.0000 
      2 CA        -11.6920   35.1530   51.5200 C.3       1 SAH2501     0.0000 
      3 CB        -11.4520   33.8420   50.7810 C.3       1 SAH2501     0.0000 
      4 CG        -10.0660   33.8470   50.1660 C.3       1 SAH2501     0.0000 
      5 SD         -9.8770   32.6170   48.8450 S.3       1 SAH2501     0.0000 
      6 C         -13.1910   35.4280   51.5540 C.2       1 SAH2501     0.0000 
      7 O         -13.8380   35.2670   52.5850 O.co2     1 SAH2501     0.0000 
      8 OXT       -13.7700   35.8170   50.5310 O.co2     1 SAH2501     0.0000 
      9 C5'        -8.7740   31.5640   49.8230 C.3       1 SAH2501     0.0000 
     10 C4'        -7.4260   32.2530   50.0300 C.3       1 SAH2501     0.0000 
     11 O4'        -6.6110   31.5020   50.9100 O.3       1 SAH2501     0.0000 
     12 C3'        -6.5970   32.5020   48.7590 C.3       1 SAH2501     0.0000 
     13 O3'        -6.3610   33.8930   48.5700 O.3       1 SAH2501     0.0000 
     14 C2'        -5.2940   31.7540   49.0330 C.3       1 SAH2501     0.0000 
     15 O2'        -4.1610   32.3600   48.4070 O.3       1 SAH2501     0.0000 
     16 C1'        -5.2570   31.7340   50.5630 C.3       1 SAH2501     0.0000 
     17 N9         -4.3890   30.7070   51.1770 N.pl3     1 SAH2501     0.0000 
     18 C8         -4.3470   29.3710   50.8910 C.2       1 SAH2501     0.0000 
     19 N7         -3.4250   28.7770   51.6820 N.2       1 SAH2501     0.0000 
     20 C5         -2.8760   29.7240   52.4830 C.ar      1 SAH2501     0.0000 
     21 C6         -1.8860   29.6890   53.4790 C.ar      1 SAH2501     0.0000 
     22 N6         -1.2640   28.5470   53.7930 N.pl3     1 SAH2501     0.0000 
     23 N1         -1.5390   30.8750   54.1230 N.ar      1 SAH2501     0.0000 
     24 C2         -2.1250   32.0970   53.8130 C.ar      1 SAH2501     0.0000 
     25 N3         -3.1080   32.0990   52.8350 N.ar      1 SAH2501     0.0000 
     26 C4         -3.4840   30.9460   52.1830 C.ar      1 SAH2501     0.0000 
     27 H         -11.2391   35.9536   50.8947 H         1 SAH2501     0.0000 
     28 H         -12.1968   33.7298   49.9989 H         1 SAH2501     0.0000 
     29 H         -11.5369   33.0156   51.4802 H         1 SAH2501     0.0000 
     30 H          -9.2868   33.5644   50.8507 H         1 SAH2501     0.0000 
     31 H          -9.8199   34.7625   49.6589 H         1 SAH2501     0.0000 
     32 H          -8.7159   30.6818   49.2331 H         1 SAH2501     0.0000 
     33 H          -9.3249   31.4262   50.7214 H         1 SAH2501     0.0000 
     34 H          -7.6179   33.2443   50.4804 H         1 SAH2501     0.0000 
     35 H          -7.0891   32.0308   47.9495 H         1 SAH2501     0.0000 
     36 H          -5.4603   30.7287   48.7130 H         1 SAH2501     0.0000 
     37 H          -4.9705   32.7272   50.8899 H         1 SAH2501     0.0000 
     38 H          -4.8930   28.9291   50.2273 H         1 SAH2501     0.0000 
     39 H          -1.7899   27.7075   53.6564 H         1 SAH2501     0.0000 
     40 H          -0.3289   28.6352   54.1363 H         1 SAH2501     0.0000 
     41 H          -1.8453   32.9466   54.2814 H         1 SAH2501     0.0000 
     42 H         -10.9933   34.2804   53.2833 H         1 SAH2501     0.0000 
     43 H         -10.1201   35.5540   52.8341 H         1 SAH2501     0.0000 
     44 H         -11.5631   35.7669   53.5113 H         1 SAH2501     0.0000 
     45 H          -5.7044   34.1430   49.2816 H         1 SAH2501     0.0000 
     46 H          -3.8390   33.0441   49.0615 H         1 SAH2501     0.0000 
@<TRIPOS>BOND
     1    2    1 1    
     2   42    1 1    
     3   43    1 1    
     4   44    1 1    
     5    3    2 1    
     6    6    2 1    
     7   27    2 1    
     8    4    3 1    
     9   28    3 1    
    10   29    3 1    
    11    5    4 1    
    12   30    4 1    
    13   31    4 1    
    14    9    5 1    
    15    7    6 ar   
    16    8    6 ar   
    17   10    9 1    
    18   32    9 1    
    19   33    9 1    
    20   11   10 1    
    21   12   10 1    
    22   34   10 1    
    23   16   11 1    
    24   13   12 1    
    25   14   12 1    
    26   35   12 1    
    27   45   13 1    
    28   15   14 1    
    29   16   14 1    
    30   36   14 1    
    31   46   15 1    
    32   17   16 1    
    33   37   16 1    
    34   18   17 1    
    35   26   17 1    
    36   19   18 2    
    37   38   18 1    
    38   20   19 1    
    39   21   20 ar   
    40   26   20 ar   
    41   22   21 1    
    42   23   21 ar   
    43   39   22 1    
    44   40   22 1    
    45   24   23 ar   
    46   25   24 ar   
    47   41   24 1    
    48   26   25 ar   
@<TRIPOS>SUBSTRUCTURE
     1 SAH2501     1 GROUP   
@<TRIPOS>SET

