#    Name: 2CC2_2_CAVITY_N1_6.mol2
#    Modification time : Tue Mar 11 06:54:11 2014

@<TRIPOS>MOLECULE
2CC2_2_CAVITY_N1_6.mol2
   41     0     5     0     0
SMALL
NO_CHARGES


@<TRIPOS>ATOM
      1 CA         23.4299   33.1279  -28.7402 C.3       5 GLY6        0.0000 
      2 N          23.1754   34.5250  -29.2230 N.2       2 ALA2        0.0000 
      3 CZ         22.5096   32.5947  -29.7979 C.ar      4 PHE5        0.0000 
      4 O          22.2551   33.9918  -30.2808 O.2       2 ALA2        0.0000 
      5 CZ         21.5893   32.0615  -30.8556 C.ar      4 PHE5        0.0000 
      6 O          21.3348   33.4586  -31.3385 O.2       2 ALA2        0.0000 
      7 N          23.1933   33.7779  -26.7348 N.2       2 ALA2        0.0000 
      8 N          22.9388   35.1750  -27.2177 N.2       2 ALA2        0.0000 
      9 N          22.2730   33.2447  -27.7925 N.2       2 ALA2        0.0000 
     10 N          22.0185   34.6418  -28.2754 N.2       2 ALA2        0.0000 
     11 O          21.7640   36.0390  -28.7583 O.2       2 ALA2        0.0000 
     12 N          21.6072   31.3143  -28.3674 N.2       2 ALA2        0.0000 
     13 CZ         21.3527   32.7115  -28.8503 C.ar      4 PHE5        0.0000 
     14 CZ         21.0982   34.1086  -29.3331 C.ar      4 PHE5        0.0000 
     15 O          20.8438   35.5058  -29.8160 O.2       2 ALA2        0.0000 
     16 N          20.9414   29.3840  -28.9422 N.2       2 ALA2        0.0000 
     17 CZ         20.6869   30.7811  -29.4251 C.ar      4 PHE5        0.0000 
     18 CZ         20.4325   32.1783  -29.9080 C.ar      4 PHE5        0.0000 
     19 CZ         20.1780   33.5754  -30.3909 C.ar      4 PHE5        0.0000 
     20 OG         22.0364   33.8947  -25.7871 O.2       1 SER1        0.0000 
     21 OG         21.7819   35.2918  -26.2700 O.2       1 SER1        0.0000 
     22 N          21.3706   31.9643  -26.3620 N.2       2 ALA2        0.0000 
     23 CA         21.1161   33.3615  -26.8449 C.3       5 GLY6        0.0000 
     24 NZ         20.8617   34.7586  -27.3278 N.2       3 LYS4        0.0000 
     25 N          20.9593   28.6368  -26.4540 N.2       2 ALA2        0.0000 
     26 N          20.7048   30.0340  -26.9368 N.2       2 ALA2        0.0000 
     27 N          20.4504   31.4311  -27.4197 N.2       2 ALA2        0.0000 
     28 CZ         20.1959   32.8283  -27.9026 C.ar      4 PHE5        0.0000 
     29 NZ         20.0391   28.1036  -27.5117 N.2       3 LYS4        0.0000 
     30 NZ         19.7846   29.5008  -27.9946 N.2       3 LYS4        0.0000 
     31 CZ         19.5301   30.8979  -28.4775 C.ar      4 PHE5        0.0000 
     32 CA         20.2138   32.0811  -25.4144 C.3       5 GLY6        0.0000 
     33 CZ         19.8025   28.7536  -25.5063 C.ar      4 PHE5        0.0000 
     34 CZ         19.5480   30.1508  -25.9892 C.ar      4 PHE5        0.0000 
     35 CA         19.2935   31.5479  -26.4721 C.3       5 GLY6        0.0000 
     36 CA         19.0390   32.9451  -26.9550 C.3       5 GLY6        0.0000 
     37 NZ         18.6277   29.6176  -27.0469 N.2       3 LYS4        0.0000 
     38 CZ         18.3732   31.0147  -27.5298 C.ar      4 PHE5        0.0000 
     39 NZ         17.7074   29.0844  -28.1047 N.2       3 LYS4        0.0000 
     40 OG         18.3911   30.2676  -25.0416 O.2       1 SER1        0.0000 
     41 CA         17.2164   31.1315  -26.5822 C.3       5 GLY6        0.0000 
@<TRIPOS>BOND
@<TRIPOS>SUBSTRUCTURE
     1 SER1       20 GROUP   
     2 ALA2        2 GROUP   
     3 LYS4       24 GROUP   
     4 PHE5        3 GROUP   
     5 GLY6        1 GROUP   
@<TRIPOS>SET

