#    Name: 2cc2_5AD_2_INTS_M
#    Modification time : Mon Mar 24 23:25:56 2014

@<TRIPOS>MOLECULE
2cc2_5AD_2_INTS_M
   64     0     9     0     0
SMALL
NO_CHARGES


@<TRIPOS>ATOM
      1 N          24.2405   34.5240  -35.2050 N.am      2 SEC2        0.0000 
      2 N          23.8440   33.7650  -34.0450 N.am      8 SEL2        0.0000 
      3 N          24.6370   35.2830  -36.3650 N.am      5 SEP2        0.0000 
      4 CA         24.8515   35.9800  -31.8175 C.3       3 GLC5        0.0000 
      5 CA         24.4200   34.5360  -33.1190 C.3       9 GLL5        0.0000 
      6 CA         25.2830   37.4240  -30.5160 C.3       6 GLP5        0.0000 
      7 CA         25.5545   33.0915  -33.3915 C.3       3 GLC5        0.0000 
      8 CA         26.6890   31.6470  -33.6640 C.3       6 GLP5        0.0000 
      9 CA         24.1285   35.5255  -34.6475 C.3       3 GLC5        0.0000 
     10 CA         23.8370   36.5150  -36.1760 C.3       6 GLP5        0.0000 
     11 CA         24.0565   35.6570  -31.0315 C.3       3 GLC5        0.0000 
     12 CA         22.8300   33.8900  -31.5470 C.3       9 GLL5        0.0000 
     13 N          20.4275   31.2030  -32.3400 N.am      2 SEC2        0.0000 
     14 N          21.1980   32.4850  -31.9230 N.am      8 SEL2        0.0000 
     15 N          19.6570   29.9210  -32.7570 N.am      5 SEP2        0.0000 
     16 CA         24.7200   32.3365  -33.7205 C.3       3 GLC5        0.0000 
     17 CA         22.7510   33.0260  -33.7770 C.3       9 GLL5        0.0000 
     18 CA         23.2940   34.7705  -34.9765 C.3       3 GLC5        0.0000 
     19 O          21.1955   31.2135  -34.8285 O.2       1 ALC1        0.0000 
     20 O          22.1720   32.2480  -34.7130 O.2       7 ALL1        0.0000 
     21 O          20.2190   30.1790  -34.9440 O.2       4 ALP1        0.0000 
     22 O          22.9450   32.2975  -35.9940 O.2       1 ALC1        0.0000 
     23 O          23.7180   32.3470  -37.2750 O.2       4 ALP1        0.0000 
     24 CA         23.8265   35.9170  -29.8195 C.3       3 GLC5        0.0000 
     25 CA         22.3700   34.4100  -29.1230 C.3       9 GLL5        0.0000 
     26 CA         24.1965   33.6295  -28.7010 C.3       3 GLC5        0.0000 
     27 CA         26.0230   32.8490  -28.2790 C.3       6 GLP5        0.0000 
     28 CA         21.2695   36.4615  -30.2775 C.3       3 GLC5        0.0000 
     29 CA         21.0660   35.0800  -28.6070 C.3       9 GLL5        0.0000 
     30 CA         21.4730   37.8430  -31.9480 C.3       6 GLP5        0.0000 
     31 CA         19.4020   34.9095  -29.3555 C.3       3 GLC5        0.0000 
     32 CA         17.7380   34.7390  -30.1040 C.3       6 GLP5        0.0000 
     33 CA         19.4795   34.1305  -25.8660 C.3       3 GLC5        0.0000 
     34 CA         21.0050   34.7190  -27.0930 C.3       9 GLL5        0.0000 
     35 CA         17.9540   33.5420  -24.6390 C.3       6 GLP5        0.0000 
     36 CA         19.3230   34.2410  -28.1110 C.3       3 GLC5        0.0000 
     37 CA         17.6410   33.7630  -29.1290 C.3       6 GLP5        0.0000 
     38 CA         24.2290   33.5195  -27.5715 C.3       3 GLC5        0.0000 
     39 CA         22.4350   34.1900  -26.8640 C.3       9 GLL5        0.0000 
     40 CA         24.5285   33.3930  -26.2620 C.3       3 GLC5        0.0000 
     41 CA         22.5580   33.3480  -25.6000 C.3       9 GLL5        0.0000 
     42 CA         26.4990   33.4380  -26.9240 C.3       6 GLP5        0.0000 
     43 CA         23.1870   31.8365  -24.7135 C.3       3 GLC5        0.0000 
     44 CA         23.8160   30.3250  -23.8270 C.3       6 GLP5        0.0000 
     45 CA         24.1485   33.3635  -24.0405 C.3       3 GLC5        0.0000 
     46 CA         25.7390   33.3790  -22.4810 C.3       6 GLP5        0.0000 
     47 CA         21.8980   34.3550  -24.1150 C.3       3 GLC5        0.0000 
     48 CA         21.2380   35.3620  -22.6300 C.3       6 GLP5        0.0000 
     49 N          21.9875   37.4665  -27.8660 N.am      2 SEC2        0.0000 
     50 N          21.1230   36.4950  -28.7760 N.am      8 SEL2        0.0000 
     51 N          22.8520   38.4380  -26.9560 N.am      5 SEP2        0.0000 
     52 O          19.8195   36.8635  -27.8045 O.2       1 ALC1        0.0000 
     53 O          21.1230   36.4950  -28.7760 O.2       7 ALL1        0.0000 
     54 O          18.5160   37.2320  -26.8330 O.2       4 ALP1        0.0000 
     55 O          20.0440   37.2425  -28.7985 O.2       1 ALC1        0.0000 
     56 O          18.9650   37.9900  -28.8210 O.2       4 ALP1        0.0000 
     57 N          21.8010   37.1690  -26.6330 N.am      2 SEC2        0.0000 
     58 N          20.7500   35.9000  -26.3100 N.am      8 SEL2        0.0000 
     59 N          21.1365   36.0200  -25.0480 N.am      2 SEC2        0.0000 
     60 N          21.5230   36.1400  -23.7860 N.am      5 SEP2        0.0000 
     61 O          19.6330   36.5660  -26.5715 O.2       1 ALC1        0.0000 
     62 O          20.7500   35.9000  -26.3100 O.2       7 ALL1        0.0000 
     63 CA         23.2880   35.4991  -25.9411 C.3       3 GLC5        0.0000 
     64 CA         24.4370   37.0970  -25.5930 C.3       6 GLP5        0.0000 
@<TRIPOS>BOND
@<TRIPOS>SUBSTRUCTURE
     1 ALC1       19 GROUP        1 X    ALC  0     ROOT ALC X 1
     2 SEC2        1 GROUP        1 X    SEC  0     **** SEC X 2
     3 GLC5        4 GROUP        1 X    GLC  0     **** GLC X 6
     4 ALP1       21 GROUP        1 Y    ALP  0     ROOT ALP Y 8
     5 SEP2        3 GROUP        1 Y    SEP  0     **** SEP Y 9
     6 GLP5        6 GROUP        1 Y    GLP  0     **** GLP Y 13
     7 ALL1       20 GROUP        1 Z    ALL  0     ROOT ALL Z 15
     8 SEL2        2 GROUP        1 Z    SEL  0     **** SEL Z 16
     9 GLL5        5 GROUP        1 Z    GLL  0     **** GLL Z 20
@<TRIPOS>SET

