#    Name: 2cc2_5AD_2_ligand
#    Modification time : Mon Mar 24 23:25:56 2014

@<TRIPOS>MOLECULE
2cc2_5AD_2_ligand
   31    33     1     0     0
SMALL
NO_CHARGES


@<TRIPOS>ATOM
      1 N1         23.8440   33.7650  -34.0450 N.ar      1 5AD1299     0.0000 
      2 C2         24.4200   34.5360  -33.1190 C.ar      1 5AD1299     0.0000 
      3 N3         23.9200   34.6100  -31.8820 N.ar      1 5AD1299     0.0000 
      4 C4         22.8300   33.8900  -31.5470 C.ar      1 5AD1299     0.0000 
      5 N9         22.1270   33.7480  -30.4120 N.pl3     1 5AD1299     0.0000 
      6 C8         21.1350   32.9020  -30.6640 C.2       1 5AD1299     0.0000 
      7 N7         21.1980   32.4850  -31.9230 N.2       1 5AD1299     0.0000 
      8 C5         22.2310   33.0780  -32.4940 C.ar      1 5AD1299     0.0000 
      9 C6         22.7510   33.0260  -33.7770 C.ar      1 5AD1299     0.0000 
     10 N6         22.1720   32.2480  -34.7130 N.pl3     1 5AD1299     0.0000 
     11 C1'        22.3700   34.4100  -29.1230 C.3       1 5AD1299     0.0000 
     12 C2'        21.0660   35.0800  -28.6070 C.3       1 5AD1299     0.0000 
     13 C3'        21.0050   34.7190  -27.0930 C.3       1 5AD1299     0.0000 
     14 C4'        22.4350   34.1900  -26.8640 C.3       1 5AD1299     0.0000 
     15 C5'        22.5580   33.3480  -25.6000 C.3       1 5AD1299     0.0000 
     16 O4'        22.6570   33.4230  -28.1050 O.3       1 5AD1299     0.0000 
     17 O2'        21.1230   36.4950  -28.7760 O.3       1 5AD1299     0.0000 
     18 O3'        20.7500   35.9000  -26.3100 O.3       1 5AD1299     0.0000 
     19 H          25.2781   35.0922  -33.3662 H         1 5AD1299     0.0000 
     20 H          20.4514   32.6241  -30.0114 H         1 5AD1299     0.0000 
     21 H          21.3693   31.7292  -34.4189 H         1 5AD1299     0.0000 
     22 H          22.5967   32.2588  -35.6183 H         1 5AD1299     0.0000 
     23 H          23.1158   35.1422  -29.1724 H         1 5AD1299     0.0000 
     24 H          20.2461   34.6184  -29.0855 H         1 5AD1299     0.0000 
     25 H          20.3306   33.9411  -26.9701 H         1 5AD1299     0.0000 
     26 H          23.0873   35.0306  -26.8396 H         1 5AD1299     0.0000 
     27 H          23.4910   33.0141  -25.4655 H         1 5AD1299     0.0000 
     28 H          22.3120   33.8680  -24.7820 H         1 5AD1299     0.0000 
     29 H          21.9610   32.5463  -25.6282 H         1 5AD1299     0.0000 
     30 H          20.1719   36.7999  -28.7273 H         1 5AD1299     0.0000 
     31 H          19.8756   36.2496  -26.6464 H         1 5AD1299     0.0000 
@<TRIPOS>BOND
     1    2    1 ar   
     2    9    1 ar   
     3    3    2 ar   
     4   19    2 1    
     5    4    3 ar   
     6    5    4 1    
     7    8    4 ar   
     8    6    5 1    
     9   11    5 1    
    10    7    6 2    
    11   20    6 1    
    12    8    7 1    
    13    9    8 ar   
    14   10    9 1    
    15   21   10 1    
    16   22   10 1    
    17   12   11 1    
    18   16   11 1    
    19   23   11 1    
    20   13   12 1    
    21   17   12 1    
    22   24   12 1    
    23   14   13 1    
    24   18   13 1    
    25   25   13 1    
    26   15   14 1    
    27   16   14 1    
    28   26   14 1    
    29   27   15 1    
    30   28   15 1    
    31   29   15 1    
    32   30   17 1    
    33   31   18 1    
@<TRIPOS>SUBSTRUCTURE
     1 5AD1299     1 GROUP   
@<TRIPOS>SET

