#    Name: 2j4a_OEF_1_INTS_M
#    Modification time : Tue Mar 25 19:13:46 2014

@<TRIPOS>MOLECULE
2j4a_OEF_1_INTS_M
  106     0    12     0     0
SMALL
NO_CHARGES


@<TRIPOS>ATOM
      1 CA          1.0400   20.8765   30.0285 C.3       4 GLC5        0.0000 
      2 CA          2.3540   21.7550   31.3060 C.3      12 GLL5        0.0000 
      3 CA         -0.2740   19.9980   28.7510 C.3       8 GLP5        0.0000 
      4 CA          0.8360   23.0410   33.8215 C.3       4 GLC5        0.0000 
      5 CA          1.4270   22.6970   31.7290 C.3      12 GLL5        0.0000 
      6 CA          0.2450   23.3850   35.9140 C.3       8 GLP5        0.0000 
      7 CA          5.3600   22.4895   33.1815 C.3       4 GLC5        0.0000 
      8 CA          4.5460   20.4980   33.3470 C.3      12 GLL5        0.0000 
      9 CA          6.1740   24.4810   33.0160 C.3       8 GLP5        0.0000 
     10 CA          0.4795   25.5015   29.1045 C.3       4 GLC5        0.0000 
     11 CA          2.0540   24.3780   30.0420 C.3      12 GLL5        0.0000 
     12 CA         -1.0950   26.6250   28.1670 C.3       8 GLP5        0.0000 
     13 CA          5.6050   16.5340   31.4790 C.3       4 GLC5        0.0000 
     14 CA          5.7610   18.5620   31.7330 C.3      12 GLL5        0.0000 
     15 CA          5.4490   14.5060   31.2250 C.3       8 GLP5        0.0000 
     16 CA          8.7040   17.8185   30.9080 C.3       4 GLC5        0.0000 
     17 CA          8.2320   17.1570   32.9820 C.3      12 GLL5        0.0000 
     18 CA          9.1760   18.4800   28.8340 C.3       8 GLP5        0.0000 
     19 CA          9.5035   15.9700   31.7875 C.3       4 GLC5        0.0000 
     20 CA         10.7750   14.7830   30.5930 C.3       8 GLP5        0.0000 
     21 CA          6.8405   15.8315   32.1035 C.3       4 GLC5        0.0000 
     22 CA          7.0090   16.4050   34.5685 C.3       4 GLC5        0.0000 
     23 CA          5.7860   15.6530   36.1550 C.3       8 GLP5        0.0000 
     24 CA          8.8010   16.7785   35.0975 C.3       4 GLC5        0.0000 
     25 CA          9.3700   16.4000   37.2130 C.3       8 GLP5        0.0000 
     26 CA          2.0015   22.5995   35.1950 C.3       4 GLC5        0.0000 
     27 CA          3.7580   21.8140   34.4760 C.3      12 GLL5        0.0000 
     28 CA          4.1235   21.7325   36.2670 C.3       4 GLC5        0.0000 
     29 CA          4.4890   21.6510   38.0580 C.3       8 GLP5        0.0000 
     30 CA          4.7515   23.3255   34.4605 C.3       4 GLC5        0.0000 
     31 CA          5.7450   24.8370   34.4450 C.3       8 GLP5        0.0000 
     32 CA          3.2805   19.9425   34.9660 C.3       4 GLC5        0.0000 
     33 CA          2.8030   18.0710   35.4560 C.3       8 GLP5        0.0000 
     34 CA          3.2810   19.5875   28.3105 C.3       4 GLC5        0.0000 
     35 CA          3.5920   18.3280   29.9380 C.3      12 GLL5        0.0000 
     36 CA          2.9700   20.8470   26.6830 C.3       8 GLP5        0.0000 
     37 CA          4.9430   17.4425   28.5910 C.3       4 GLC5        0.0000 
     38 CA          6.2940   16.5570   27.2440 C.3       8 GLP5        0.0000 
     39 CA          4.5205   16.4170   30.5815 C.3       4 GLC5        0.0000 
     40 CA          1.6590   19.1630   29.3445 C.3       4 GLC5        0.0000 
     41 CA          2.5890   17.7905   28.5450 C.3       4 GLC5        0.0000 
     42 CA          1.5860   17.2530   27.1520 C.3       8 GLP5        0.0000 
     43 O           2.2850   25.5205   28.1590 O.2       1 ALC1        0.0000 
     44 O           1.9230   25.6120   29.4400 O.2       9 ALL1        0.0000 
     45 O           2.6470   25.4290   26.8780 O.2       5 ALP1        0.0000 
     46 CA          0.5915   24.5525   34.3605 C.3       4 GLC5        0.0000 
     47 CA          0.9380   25.7200   32.8070 C.3      12 GLL5        0.0000 
     48 CA          1.0940   27.0385   34.0580 C.3       4 GLC5        0.0000 
     49 CA          1.2500   28.3570   35.3090 C.3       8 GLP5        0.0000 
     50 CA          3.0810   25.3345   32.3680 C.3       4 GLC5        0.0000 
     51 CA          5.2240   24.9490   31.9290 C.3       8 GLP5        0.0000 
     52 NZ         11.1290   17.9995   34.3650 N.4       3 LYC4        0.0000 
     53 NZ         10.5350   17.5640   33.0370 N.4      11 LYL4        0.0000 
     54 NZ         13.0490   18.3930   35.6540 N.4       7 LYP4        0.0000 
     55 N          11.1290   17.9995   34.3650 N.am      2 SEC2        0.0000 
     56 N          10.5350   17.5640   33.0370 N.am     10 SEL2        0.0000 
     57 N          11.7230   18.4350   35.6930 N.am      6 SEP2        0.0000 
     58 NZ          9.5965   14.5740   34.5825 N.4       3 LYC4        0.0000 
     59 NZ          9.8080   15.9150   34.2490 N.4      11 LYL4        0.0000 
     60 NZ         10.4360   12.4860   35.2730 N.4       7 LYP4        0.0000 
     61 N          10.7655   17.1750   34.9710 N.am      2 SEC2        0.0000 
     62 N           9.8080   15.9150   34.2490 N.am     10 SEL2        0.0000 
     63 N           9.5965   14.5740   34.5825 N.am      2 SEC2        0.0000 
     64 N           9.3850   13.2330   34.9160 N.am      6 SEP2        0.0000 
     65 N           8.9740   16.0310   35.3610 N.am      2 SEC2        0.0000 
     66 N           8.1400   16.1470   36.4730 N.am      6 SEP2        0.0000 
     67 CA         -1.9730   25.8975   32.9925 C.3       4 GLC5        0.0000 
     68 CA         -1.0650   24.2530   32.1980 C.3      12 GLL5        0.0000 
     69 CA         -2.8810   27.5420   33.7870 C.3       8 GLP5        0.0000 
     70 CA         -0.4100   23.8190   34.0560 C.3       4 GLC5        0.0000 
     71 CA         -2.9470   24.3565   31.5440 C.3       4 GLC5        0.0000 
     72 CA         -4.8290   24.4600   30.8900 C.3       8 GLP5        0.0000 
     73 CA          3.5572   23.5875   31.7233 C.3       4 GLC5        0.0000 
     74 CA          0.5098   20.6840   32.0092 C.3       4 GLC5        0.0000 
     75 CA         -0.8710   19.1420   32.5010 C.3       8 GLP5        0.0000 
     76 CA          0.3643   22.8842   29.8798 C.3       4 GLC5        0.0000 
     77 CA         -0.6110   22.4330   28.3210 C.3       8 GLP5        0.0000 
     78 CA          3.4385   24.5625   31.2620 C.3       4 GLC5        0.0000 
     79 CA          1.2520   23.9740   31.1480 C.3      12 GLL5        0.0000 
     80 CA          3.6494   19.1031   34.1539 C.3       4 GLC5        0.0000 
     81 CA          3.7950   20.0060   32.2010 C.3      12 GLL5        0.0000 
     82 CA          2.3120   24.1545   27.9877 C.3       4 GLC5        0.0000 
     83 CA          2.0940   24.4010   26.1590 C.3       8 GLP5        0.0000 
     84 CA          4.5409   17.6007   32.9274 C.3       4 GLC5        0.0000 
     85 CA          4.4840   19.0210   31.4300 C.3      12 GLL5        0.0000 
     86 CA          3.7770   16.2900   33.9940 C.3       8 GLP5        0.0000 
     87 CA          4.1478   23.8795   30.9142 C.3       4 GLC5        0.0000 
     88 CA          3.1370   22.1820   30.2080 C.3      12 GLL5        0.0000 
     89 CA          3.8388   22.1835   28.3972 C.3       4 GLC5        0.0000 
     90 CA          3.0060   23.4380   29.5910 C.3      12 GLL5        0.0000 
     91 CA          4.6060   21.5570   26.8950 C.3       8 GLP5        0.0000 
     92 CA          1.1112   22.7390   29.1666 C.3       4 GLC5        0.0000 
     93 CA          8.3986   20.2606   33.8355 C.3       4 GLC5        0.0000 
     94 CA          5.8470   20.0310   33.6580 C.3      12 GLL5        0.0000 
     95 CA          9.7870   21.4480   34.4060 C.3       8 GLP5        0.0000 
     96 CA          7.7864   19.2430   31.0799 C.3       4 GLC5        0.0000 
     97 CA          7.8520   18.6100   33.2760 C.3      12 GLL5        0.0000 
     98 CA          8.5840   19.7800   29.3760 C.3       8 GLP5        0.0000 
     99 CA         -0.7445   26.8253   32.6035 C.3       4 GLC5        0.0000 
    100 CA          0.2020   24.9570   31.6810 C.3      12 GLL5        0.0000 
    101 CA         -2.0590   28.3120   32.9630 C.3       8 GLP5        0.0000 
    102 CA         -0.5212   23.5190   30.1303 C.3       4 GLC5        0.0000 
    103 CA          1.5490   26.8517   31.5785 C.3       4 GLC5        0.0000 
    104 CA          2.5280   28.3650   30.9130 C.3       8 GLP5        0.0000 
    105 CA         -0.8653   26.2334   30.9015 C.3       4 GLC5        0.0000 
    106 CA         -1.4830   27.6710   29.5820 C.3       8 GLP5        0.0000 
@<TRIPOS>BOND
@<TRIPOS>SUBSTRUCTURE
     1 ALC1       43 GROUP        1 X    ALC  0     ROOT ALC X 1
     2 SEC2       55 GROUP        1 X    SEC  0     **** SEC X 2
     3 LYC4       52 GROUP        1 X    LYC  0     **** LYC X 4
     4 GLC5        1 GROUP        1 X    GLC  0     **** GLC X 6
     5 ALP1       45 GROUP        1 Y    ALP  0     ROOT ALP Y 8
     6 SEP2       57 GROUP        1 Y    SEP  0     **** SEP Y 9
     7 LYP4       54 GROUP        1 Y    LYP  0     **** LYP Y 11
     8 GLP5        3 GROUP        1 Y    GLP  0     **** GLP Y 13
     9 ALL1       44 GROUP        1 Z    ALL  0     ROOT ALL Z 15
    10 SEL2       56 GROUP        1 Z    SEL  0     **** SEL Z 16
    11 LYL4       53 GROUP        1 Z    LYL  0     **** LYL Z 18
    12 GLL5        2 GROUP        1 Z    GLL  0     **** GLL Z 20
@<TRIPOS>SET

