#    Name: 2j4a_OEF_1_ligand
#    Modification time : Tue Mar 25 19:13:46 2014

@<TRIPOS>MOLECULE
2j4a_OEF_1_ligand
   41    42     1     0     0
SMALL
NO_CHARGES


@<TRIPOS>ATOM
      1 C1          6.4900   19.0420   32.8500 C.ar      1 OEF1461     0.0000 
      2 C2          2.3540   21.7550   31.3060 C.ar      1 OEF1461     0.0000 
      3 C3          5.8470   20.0310   33.6580 C.ar      1 OEF1461     0.0000 
      4 C4          1.4270   22.6970   31.7290 C.ar      1 OEF1461     0.0000 
      5 C5          4.5460   20.4980   33.3470 C.ar      1 OEF1461     0.0000 
      6 C6          1.2520   23.9740   31.1480 C.ar      1 OEF1461     0.0000 
      7 C7          3.7950   20.0060   32.2010 C.ar      1 OEF1461     0.0000 
      8 C8          2.0540   24.3780   30.0420 C.ar      1 OEF1461     0.0000 
      9 C9          4.4840   19.0210   31.4300 C.ar      1 OEF1461     0.0000 
     10 C10         3.0060   23.4380   29.5910 C.ar      1 OEF1461     0.0000 
     11 C11         5.7610   18.5620   31.7330 C.ar      1 OEF1461     0.0000 
     12 C12         3.1370   22.1820   30.2080 C.ar      1 OEF1461     0.0000 
     13 C13         7.8520   18.6100   33.2760 C.3       1 OEF1461     0.0000 
     14 C14         8.2320   17.1570   32.9820 C.3       1 OEF1461     0.0000 
     15 BR1         3.7580   21.8140   34.4760 Br        1 OEF1461     0.0000 
     16 C15         0.2020   24.9570   31.6810 C.3       1 OEF1461     0.0000 
     17 BR2         3.5920   18.3280   29.9380 Br        1 OEF1461     0.0000 
     18 O2          2.4840   20.4930   31.9240 O.3       1 OEF1461     0.0000 
     19 O1          1.9230   25.6120   29.4400 O.3       1 OEF1461     0.0000 
     20 C18         9.6320   16.8450   33.4760 C.2       1 OEF1461     0.0000 
     21 C16         0.9380   25.7200   32.8070 C.3       1 OEF1461     0.0000 
     22 O3         10.5350   17.5640   33.0370 O.co2     1 OEF1461     0.0000 
     23 O4          9.8080   15.9150   34.2490 O.co2     1 OEF1461     0.0000 
     24 C17        -1.0650   24.2530   32.1980 C.3       1 OEF1461     0.0000 
     25 H           6.3405   20.4052   34.4753 H         1 OEF1461     0.0000 
     26 H           0.7997   22.4512   32.5462 H         1 OEF1461     0.0000 
     27 H           3.6144   23.6797   28.7950 H         1 OEF1461     0.0000 
     28 H           6.2056   17.8436   31.1278 H         1 OEF1461     0.0000 
     29 H           3.8592   21.5174   29.8337 H         1 OEF1461     0.0000 
     30 H           7.9705   18.7812   34.3742 H         1 OEF1461     0.0000 
     31 H           8.6181   19.2693   32.7987 H         1 OEF1461     0.0000 
     32 H           8.1789   16.9869   31.9053 H         1 OEF1461     0.0000 
     33 H           7.5161   16.4962   33.4738 H         1 OEF1461     0.0000 
     34 H          -0.0373   25.6528   30.9112 H         1 OEF1461     0.0000 
     35 H           1.2529   25.1037   33.5288 H         1 OEF1461     0.0000 
     36 H           1.7427   26.2040   32.4631 H         1 OEF1461     0.0000 
     37 H           0.3487   26.4019   33.2402 H         1 OEF1461     0.0000 
     38 H          -0.8601   23.6215   32.9458 H         1 OEF1461     0.0000 
     39 H          -1.7387   24.9067   32.5427 H         1 OEF1461     0.0000 
     40 H          -1.5136   23.7210   31.4798 H         1 OEF1461     0.0000 
     41 H           2.1233   25.4509   28.4736 H         1 OEF1461     0.0000 
@<TRIPOS>BOND
     1    3    1 ar   
     2   11    1 ar   
     3   13    1 1    
     4    4    2 ar   
     5   12    2 ar   
     6   18    2 1    
     7    5    3 ar   
     8   25    3 1    
     9    6    4 ar   
    10   26    4 1    
    11    7    5 ar   
    12   15    5 1    
    13    8    6 ar   
    14   16    6 1    
    15    9    7 ar   
    16   18    7 1    
    17   10    8 ar   
    18   19    8 1    
    19   11    9 ar   
    20   17    9 1    
    21   12   10 ar   
    22   27   10 1    
    23   28   11 1    
    24   29   12 1    
    25   14   13 1    
    26   30   13 1    
    27   31   13 1    
    28   20   14 1    
    29   32   14 1    
    30   33   14 1    
    31   21   16 1    
    32   24   16 1    
    33   34   16 1    
    34   41   19 1    
    35   22   20 ar   
    36   23   20 ar   
    37   35   21 1    
    38   36   21 1    
    39   37   21 1    
    40   38   24 1    
    41   39   24 1    
    42   40   24 1    
@<TRIPOS>SUBSTRUCTURE
     1 OEF1461     1 GROUP   
@<TRIPOS>SET

