#    Name: 3vo3_0KF_1_INTS_M
#    Modification time : Tue Mar 25 01:11:57 2014

@<TRIPOS>MOLECULE
3vo3_0KF_1_INTS_M
   79     0     9     0     0
SMALL
NO_CHARGES


@<TRIPOS>ATOM
      1 CA         31.3490  -29.9180  -11.7670 C.3       3 GLC5        0.0000 
      2 CA         29.3740  -29.6490  -12.5760 C.3       9 GLL5        0.0000 
      3 CA         33.3240  -30.1870  -10.9580 C.3       6 GLP5        0.0000 
      4 CA         30.3250  -28.1505  -12.3325 C.3       3 GLC5        0.0000 
      5 CA         31.2760  -26.6520  -12.0890 C.3       6 GLP5        0.0000 
      6 CA         26.6290  -27.3730  -10.2460 C.3       3 GLC5        0.0000 
      7 CA         27.3510  -29.0230  -11.4500 C.3       9 GLL5        0.0000 
      8 CA         25.9070  -25.7230   -9.0420 C.3       6 GLP5        0.0000 
      9 CA         26.3415  -28.5420  -15.5750 C.3       3 GLC5        0.0000 
     10 CA         27.3310  -29.4750  -13.8110 C.3       9 GLL5        0.0000 
     11 CA         25.3520  -27.6090  -17.3390 C.3       6 GLP5        0.0000 
     12 CA         31.7315  -32.2960  -16.0350 C.3       3 GLC5        0.0000 
     13 CA         30.6960  -31.3200  -17.2220 C.3       9 GLL5        0.0000 
     14 CA         32.7670  -33.2720  -14.8480 C.3       6 GLP5        0.0000 
     15 CA         22.1065  -23.1490  -12.5890 C.3       3 GLC5        0.0000 
     16 CA         21.6840  -24.8830  -11.2920 C.3       9 GLL5        0.0000 
     17 CA         22.5290  -21.4150  -13.8860 C.3       6 GLP5        0.0000 
     18 CA         25.8365  -24.8385  -14.2970 C.3       3 GLC5        0.0000 
     19 CA         24.9260  -25.2090  -12.2860 C.3       9 GLL5        0.0000 
     20 CA         26.7470  -24.4680  -16.3080 C.3       6 GLP5        0.0000 
     21 CA         25.0965  -23.3970  -11.1600 C.3       3 GLC5        0.0000 
     22 CA         25.2670  -21.5850  -10.0340 C.3       6 GLP5        0.0000 
     23 CA         24.5525  -23.3465  -13.4710 C.3       3 GLC5        0.0000 
     24 CA         24.1790  -21.4840  -14.6560 C.3       6 GLP5        0.0000 
     25 CA         27.0715  -25.8275  -13.7155 C.3       3 GLC5        0.0000 
     26 CA         25.4950  -26.4950  -12.5680 C.3       9 GLL5        0.0000 
     27 CA         28.6480  -25.1600  -14.8630 C.3       6 GLP5        0.0000 
     28 CA         19.0530  -22.5995   -8.4050 C.3       3 GLC5        0.0000 
     29 CA         17.4360  -23.7910   -9.0540 C.3       9 GLL5        0.0000 
     30 CA         20.6700  -21.4080   -7.7560 C.3       6 GLP5        0.0000 
     31 CA         19.8695  -23.1075   -9.0995 C.3       3 GLC5        0.0000 
     32 CA         18.3590  -23.6310  -10.2280 C.3       9 GLL5        0.0000 
     33 CA         21.3800  -22.5840   -7.9710 C.3       6 GLP5        0.0000 
     34 CA         32.5060  -32.8085  -16.9425 C.3       3 GLC5        0.0000 
     35 CA         32.2450  -32.3450  -19.0370 C.3       9 GLL5        0.0000 
     36 CA         34.0165  -32.5480  -18.9330 C.3       3 GLC5        0.0000 
     37 CA         35.7880  -32.7510  -18.8290 C.3       6 GLP5        0.0000 
     38 CA         31.6360  -28.2360  -17.8035 C.3       3 GLC5        0.0000 
     39 CA         29.9180  -28.1600  -18.7540 C.3       9 GLL5        0.0000 
     40 CA         33.3540  -28.3120  -16.8530 C.3       6 GLP5        0.0000 
     41 CA         30.4185  -26.4850  -19.5765 C.3       3 GLC5        0.0000 
     42 CA         30.9190  -24.8100  -20.3990 C.3       6 GLP5        0.0000 
     43 CA         28.0090  -27.9920  -18.7060 C.3       3 GLC5        0.0000 
     44 CA         26.1000  -27.8240  -18.6580 C.3       6 GLP5        0.0000 
     45 O          30.0615  -31.2385  -14.4850 O.2       1 ALC1        0.0000 
     46 O          29.3950  -30.1050  -14.9080 O.2       7 ALL1        0.0000 
     47 O          30.7280  -32.3720  -14.0620 O.2       4 ALP1        0.0000 
     48 O          20.5270  -22.8255  -11.3825 O.2       1 ALC1        0.0000 
     49 O          20.5640  -24.1420  -10.9430 O.2       7 ALL1        0.0000 
     50 O          20.4900  -21.5090  -11.8220 O.2       4 ALP1        0.0000 
     51 N          27.3845  -29.4500  -17.3000 N.am      2 SEC2        0.0000 
     52 N          28.3080  -28.7490  -16.3920 N.am      8 SEL2        0.0000 
     53 N          26.4610  -30.1510  -18.2080 N.am      5 SEP2        0.0000 
     54 CA         28.4263  -30.7007  -10.5500 C.3       3 GLC5        0.0000 
     55 CA         28.8260  -32.2480   -9.6570 C.3       6 GLP5        0.0000 
     56 CA         28.3783  -31.4187  -12.8413 C.3       3 GLC5        0.0000 
     57 CA         27.7270  -33.1470  -12.5120 C.3       6 GLP5        0.0000 
     58 CA         25.9207  -30.2263  -11.0850 C.3       3 GLC5        0.0000 
     59 CA         26.6800  -29.1200  -12.6480 C.3       9 GLL5        0.0000 
     60 CA         24.8260  -31.3810  -10.1210 C.3       6 GLP5        0.0000 
     61 CA         27.3663  -31.2222  -12.8708 C.3       3 GLC5        0.0000 
     62 CA         31.8588  -29.5143  -17.0210 C.3       3 GLC5        0.0000 
     63 CA         30.0310  -30.1130  -17.1560 C.3       9 GLL5        0.0000 
     64 CA         28.9788  -31.4522  -18.0870 C.3       3 GLC5        0.0000 
     65 CA         27.5940  -32.1880  -18.9850 C.3       6 GLP5        0.0000 
     66 CA         21.8660  -25.9157   -9.4898 C.3       3 GLC5        0.0000 
     67 CA         21.7480  -26.2180  -11.3970 C.3       9 GLL5        0.0000 
     68 CA         22.0160  -26.2810   -7.6350 C.3       6 GLP5        0.0000 
     69 CA         22.3855  -25.4383  -13.2257 C.3       3 GLC5        0.0000 
     70 CA         23.0550  -25.3260  -15.1070 C.3       6 GLP5        0.0000 
     71 CA         25.5587  -25.7875  -10.7345 C.3       3 GLC5        0.0000 
     72 CA         27.0738  -25.8940  -12.0330 C.3       3 GLC5        0.0000 
     73 CA         28.9370  -25.9360  -11.6390 C.3       6 GLP5        0.0000 
     74 CA         24.1327  -25.5890  -13.7670 C.3       3 GLC5        0.0000 
     75 CA         18.7713  -24.9060   -8.2265 C.3       3 GLC5        0.0000 
     76 CA         19.6450  -26.1010   -6.8120 C.3       6 GLP5        0.0000 
     77 CA         17.8122  -23.7265  -12.0847 C.3       3 GLC5        0.0000 
     78 CA         17.9960  -23.6860  -13.8320 C.3       6 GLP5        0.0000 
     79 CA         28.3088  -27.6531  -12.2779 C.3       3 GLC5        0.0000 
@<TRIPOS>BOND
@<TRIPOS>SUBSTRUCTURE
     1 ALC1       45 GROUP        1 X    ALC  0     ROOT ALC X 1
     2 SEC2       51 GROUP        1 X    SEC  0     **** SEC X 2
     3 GLC5        1 GROUP        1 X    GLC  0     **** GLC X 6
     4 ALP1       47 GROUP        1 Y    ALP  0     ROOT ALP Y 8
     5 SEP2       53 GROUP        1 Y    SEP  0     **** SEP Y 9
     6 GLP5        3 GROUP        1 Y    GLP  0     **** GLP Y 13
     7 ALL1       46 GROUP        1 Z    ALL  0     ROOT ALL Z 15
     8 SEL2       52 GROUP        1 Z    SEL  0     **** SEL Z 16
     9 GLL5        2 GROUP        1 Z    GLL  0     **** GLL Z 20
@<TRIPOS>SET

