#    Name: 3vo3_0KF_1_ligand
#    Modification time : Tue Mar 25 01:11:57 2014

@<TRIPOS>MOLECULE
3vo3_0KF_1_ligand
   53    57     1     0     0
SMALL
NO_CHARGES


@<TRIPOS>ATOM
      1 C3         28.7020  -29.2840  -11.4360 C.ar      1 0KF2001     0.0000 
      2 C4         29.3740  -29.6490  -12.5760 C.ar      1 0KF2001     0.0000 
      3 C2         27.3510  -29.0230  -11.4500 C.ar      1 0KF2001     0.0000 
      4 C6         27.3310  -29.4750  -13.8110 C.ar      1 0KF2001     0.0000 
      5 C11        30.6960  -31.3200  -17.2220 C.2       1 0KF2001     0.0000 
      6 C23        21.7480  -26.2180  -11.3970 C.2       1 0KF2001     0.0000 
      7 C5         28.6850  -29.7320  -13.7650 C.ar      1 0KF2001     0.0000 
      8 C1         26.6800  -29.1200  -12.6480 C.ar      1 0KF2001     0.0000 
      9 C10        30.0310  -30.1130  -17.1560 C.2       1 0KF2001     0.0000 
     10 C12        31.3820  -31.2990  -18.4600 C.2       1 0KF2001     0.0000 
     11 C24        21.6840  -24.8830  -11.2920 C.2       1 0KF2001     0.0000 
     12 C21        23.6410  -25.2910  -11.8950 C.2       1 0KF2001     0.0000 
     13 C20        24.9260  -25.2090  -12.2860 C.2       1 0KF2001     0.0000 
     14 C19        25.4950  -26.4950  -12.5680 C.2       1 0KF2001     0.0000 
     15 C18        24.8010  -27.6490  -12.4320 C.2       1 0KF2001     0.0000 
     16 C8         29.1730  -29.5730  -16.1460 C.2       1 0KF2001     0.0000 
     17 C27        19.3520  -24.6680  -10.5510 C.2       1 0KF2001     0.0000 
     18 C30        17.4360  -23.7910   -9.0540 C.3       1 0KF2001     0.0000 
     19 C31        16.8980  -23.9030  -10.4470 C.3       1 0KF2001     0.0000 
     20 C29        18.3590  -23.6310  -10.2280 C.3       1 0KF2001     0.0000 
     21 C16        32.2450  -32.3450  -19.0370 C.3       1 0KF2001     0.0000 
     22 C15        29.9180  -28.1600  -18.7540 C.3       1 0KF2001     0.0000 
     23 N13        31.1690  -30.1660  -19.1310 N.2       1 0KF2001     0.0000 
     24 N25        22.8860  -24.2780  -11.6060 N.4       1 0KF2001     0.0000 
     25 N32        23.6020  -27.6910  -12.0400 N.2       1 0KF2001     0.0000 
     26 N22        23.0300  -26.4900  -11.7770 N.pl3     1 0KF2001     0.0000 
     27 N14        30.3600  -29.4710  -18.3210 N.pl3     1 0KF2001     0.0000 
     28 N7         29.3950  -30.1050  -14.9080 N.am      1 0KF2001     0.0000 
     29 N26        20.5640  -24.1420  -10.9430 N.am      1 0KF2001     0.0000 
     30 O9         28.3080  -28.7490  -16.3920 O.2       1 0KF2001     0.0000 
     31 O28        19.0770  -25.8560  -10.4480 O.2       1 0KF2001     0.0000 
     32 O17        25.3200  -28.8930  -12.7130 O.3       1 0KF2001     0.0000 
     33 H          29.2267  -29.2021  -10.5370 H         1 0KF2001     0.0000 
     34 H          30.3802  -29.8583  -12.5442 H         1 0KF2001     0.0000 
     35 H          26.8585  -28.7639  -10.5936 H         1 0KF2001     0.0000 
     36 H          26.8170  -29.5465  -14.6943 H         1 0KF2001     0.0000 
     37 H          30.7056  -32.0086  -16.6027 H         1 0KF2001     0.0000 
     38 H          21.0607  -26.8487  -11.2438 H         1 0KF2001     0.0000 
     39 H          25.4522  -24.3910  -12.3815 H         1 0KF2001     0.0000 
     40 H          26.4914  -26.5058  -12.8906 H         1 0KF2001     0.0000 
     41 H          17.5487  -24.6681   -8.7040 H         1 0KF2001     0.0000 
     42 H          17.2267  -22.9256   -8.7198 H         1 0KF2001     0.0000 
     43 H          16.4730  -23.0825  -10.6718 H         1 0KF2001     0.0000 
     44 H          16.7950  -24.8250  -10.6561 H         1 0KF2001     0.0000 
     45 H          18.4613  -22.6524  -10.3497 H         1 0KF2001     0.0000 
     46 H          30.1449  -30.8425  -14.7955 H         1 0KF2001     0.0000 
     47 H          20.6520  -23.0782  -10.9825 H         1 0KF2001     0.0000 
     48 H          32.6120  -32.0745  -19.9270 H         1 0KF2001     0.0000 
     49 H          33.0265  -32.5487  -18.4473 H         1 0KF2001     0.0000 
     50 H          31.7489  -33.2026  -19.1729 H         1 0KF2001     0.0000 
     51 H          30.1894  -27.4450  -18.1097 H         1 0KF2001     0.0000 
     52 H          30.3020  -27.9138  -19.6439 H         1 0KF2001     0.0000 
     53 H          28.9229  -28.1136  -18.8412 H         1 0KF2001     0.0000 
@<TRIPOS>BOND
     1    2    1 ar   
     2    3    1 ar   
     3   33    1 1    
     4    7    2 ar   
     5   34    2 1    
     6    8    3 ar   
     7   35    3 1    
     8    7    4 ar   
     9    8    4 ar   
    10   36    4 1    
    11    9    5 2    
    12   10    5 1    
    13   37    5 1    
    14   11    6 2    
    15   26    6 1    
    16   38    6 1    
    17   28    7 1    
    18   32    8 1    
    19   16    9 1    
    20   27    9 1    
    21   21   10 1    
    22   23   10 2    
    23   24   11 1    
    24   29   11 1    
    25   13   12 1    
    26   24   12 2    
    27   26   12 1    
    28   14   13 2    
    29   39   13 1    
    30   15   14 1    
    31   40   14 1    
    32   25   15 2    
    33   32   15 1    
    34   28   16 am   
    35   30   16 2    
    36   20   17 1    
    37   29   17 am   
    38   31   17 2    
    39   19   18 1    
    40   20   18 1    
    41   41   18 1    
    42   42   18 1    
    43   20   19 1    
    44   43   19 1    
    45   44   19 1    
    46   45   20 1    
    47   48   21 1    
    48   49   21 1    
    49   50   21 1    
    50   27   22 1    
    51   51   22 1    
    52   52   22 1    
    53   53   22 1    
    54   27   23 1    
    55   26   25 1    
    56   46   28 1    
    57   47   29 1    
@<TRIPOS>SUBSTRUCTURE
     1 0KF2001     1 GROUP   
@<TRIPOS>SET

