#    Name: 3cgy_RDC_1_INTS_M
#    Modification time : Mon Mar 24 21:18:11 2014

@<TRIPOS>MOLECULE
3cgy_RDC_1_INTS_M
   44     0     6     0     0
SMALL
NO_CHARGES


@<TRIPOS>ATOM
      1 CA         62.5730    9.9625   22.2655 C.3       2 GLC5        0.0000 
      2 CA         63.0800    8.2780   23.4190 C.3       6 GLL5        0.0000 
      3 CA         62.0660   11.6470   21.1120 C.3       4 GLP5        0.0000 
      4 CA         62.6250    8.3515   25.6185 C.3       2 GLC5        0.0000 
      5 CA         62.1700    8.4250   27.8180 C.3       4 GLP5        0.0000 
      6 CA         62.8750    7.3365   26.4230 C.3       2 GLC5        0.0000 
      7 CA         63.5800    6.2480   25.0280 C.3       6 GLL5        0.0000 
      8 CA         63.8520    1.7135   23.9755 C.3       2 GLC5        0.0000 
      9 CA         62.1820    2.7230   24.7390 C.3       6 GLL5        0.0000 
     10 CA         65.5220    0.7040   23.2120 C.3       4 GLP5        0.0000 
     11 CA         60.5395    2.9010   19.8245 C.3       2 GLC5        0.0000 
     12 CA         60.1880    3.3350   21.5530 C.3       6 GLL5        0.0000 
     13 CA         60.8910    2.4670   18.0960 C.3       4 GLP5        0.0000 
     14 CA         61.9285    2.4275   20.5050 C.3       2 GLC5        0.0000 
     15 CA         63.6690    1.5200   19.4570 C.3       4 GLP5        0.0000 
     16 CA         59.5735    3.9495   19.4780 C.3       2 GLC5        0.0000 
     17 CA         59.5630    4.7220   21.0980 C.3       6 GLL5        0.0000 
     18 CA         59.5840    3.1770   17.8580 C.3       4 GLP5        0.0000 
     19 CA         56.9780    6.0365   22.6115 C.3       2 GLC5        0.0000 
     20 CA         58.7080    5.4320   22.1880 C.3       6 GLL5        0.0000 
     21 CA         55.2480    6.6410   23.0350 C.3       4 GLP5        0.0000 
     22 N          61.9200    6.6120   18.5380 N.am      1 SEC2        0.0000 
     23 N          62.8520    5.6980   19.0480 N.am      5 SEL2        0.0000 
     24 N          60.9880    7.5260   18.0280 N.am      3 SEP2        0.0000 
     25 N          67.4720    8.1165   18.6915 N.am      1 SEC2        0.0000 
     26 N          66.5830    8.4170   19.8710 N.am      5 SEL2        0.0000 
     27 N          68.3610    7.8160   17.5120 N.am      3 SEP2        0.0000 
     28 CA         64.6045   10.6075   21.6110 C.3       2 GLC5        0.0000 
     29 CA         65.8360    9.4680   22.5760 C.3       6 GLL5        0.0000 
     30 CA         63.3730   11.7470   20.6460 C.3       4 GLP5        0.0000 
     31 CA         67.7495    9.1475   23.3135 C.3       2 GLC5        0.0000 
     32 CA         69.6630    8.8270   24.0510 C.3       4 GLP5        0.0000 
     33 CA         66.1360    7.5125   23.1035 C.3       2 GLC5        0.0000 
     34 CA         66.4360    5.5570   23.6310 C.3       4 GLP5        0.0000 
     35 CA         65.7930    6.8545   22.2920 C.3       2 GLC5        0.0000 
     36 CA         65.4060    7.9550   20.3150 C.3       6 GLL5        0.0000 
     37 CA         65.0995    9.5251   19.9023 C.3       2 GLC5        0.0000 
     38 CA         64.8940    8.3490   21.5910 C.3       6 GLL5        0.0000 
     39 CA         65.2270   11.1190   19.0550 C.3       4 GLP5        0.0000 
     40 CA         66.5305    6.7226   20.7078 C.3       2 GLC5        0.0000 
     41 CA         68.0890    5.5140   20.6660 C.3       4 GLP5        0.0000 
     42 CA         64.8970    6.8102   23.1767 C.3       2 GLC5        0.0000 
     43 CA         63.6360    7.8490   22.0260 C.3       6 GLL5        0.0000 
     44 CA         64.7171    5.1943   24.2676 C.3       2 GLC5        0.0000 
@<TRIPOS>BOND
@<TRIPOS>SUBSTRUCTURE
     1 SEC2       22 GROUP        1 X    SEC  0     ROOT SEC X 2
     2 GLC5        1 GROUP        1 X    GLC  0     **** GLC X 6
     3 SEP2       24 GROUP        1 Y    SEP  0     ROOT SEP Y 9
     4 GLP5        3 GROUP        1 Y    GLP  0     **** GLP Y 13
     5 SEL2       23 GROUP        1 Z    SEL  0     ROOT SEL Z 16
     6 GLL5        2 GROUP        1 Z    GLL  0     **** GLL Z 20
@<TRIPOS>SET

