#    Name: 3cgy_RDC_1_ligand
#    Modification time : Mon Mar 24 21:18:11 2014

@<TRIPOS>MOLECULE
3cgy_RDC_1_ligand
   42    44     1     0     0
SMALL
NO_CHARGES


@<TRIPOS>ATOM
      1 C1         61.5240    6.3360   21.5630 C.2       1 RDC700      0.0000 
      2 C2         62.8820    6.9090   21.1560 C.ar      1 RDC700      0.0000 
      3 C3         63.4600    6.5500   19.8740 C.ar      1 RDC700      0.0000 
      4 C4         64.6940    7.0720   19.5010 C.ar      1 RDC700      0.0000 
      5 C5         65.4060    7.9550   20.3150 C.ar      1 RDC700      0.0000 
      6 C6         64.8940    8.3490   21.5910 C.ar      1 RDC700      0.0000 
      7 C7         63.6360    7.8490   22.0260 C.ar      1 RDC700      0.0000 
      8 C8         63.0800    8.2780   23.4190 C.3       1 RDC700      0.0000 
      9 C9         63.7520    7.6610   24.6050 C.2       1 RDC700      0.0000 
     10 C10        63.5800    6.2480   25.0280 C.2       1 RDC700      0.0000 
     11 C11        62.8090    5.2460   24.4130 C.2       1 RDC700      0.0000 
     12 C12        62.8020    3.9160   25.0880 C.2       1 RDC700      0.0000 
     13 C13        62.1820    2.7230   24.7390 C.2       1 RDC700      0.0000 
     14 C14        61.2860    2.1830   23.5620 C.3       1 RDC700      0.0000 
     15 C15        59.9760    2.9070   23.0280 C.3       1 RDC700      0.0000 
     16 C16        60.1880    3.3350   21.5530 C.3       1 RDC700      0.0000 
     17 C17        59.5630    4.7220   21.0980 C.3       1 RDC700      0.0000 
     18 C18        58.7080    5.4320   22.1880 C.3       1 RDC700      0.0000 
     19 O1         60.8340    5.4340   20.7530 O.3       1 RDC700      0.0000 
     20 O2         61.0580    6.6580   22.6850 O.2       1 RDC700      0.0000 
     21 O3         62.8520    5.6980   19.0480 O.3       1 RDC700      0.0000 
     22 O4         66.5830    8.4170   19.8710 O.3       1 RDC700      0.0000 
     23 CL1        65.8360    9.4680   22.5760 Cl        1 RDC700      0.0000 
     24 O5         64.5000    8.4110   25.2950 O.2       1 RDC700      0.0000 
     25 O6         60.0430    1.5590   23.5940 O.3       1 RDC700      0.0000 
     26 H          65.1034    6.7958   18.5822 H         1 RDC700      0.0000 
     27 H          61.9953    8.0402   23.4322 H         1 RDC700      0.0000 
     28 H          63.1484    9.3849   23.4783 H         1 RDC700      0.0000 
     29 H          64.1217    5.9880   25.9141 H         1 RDC700      0.0000 
     30 H          62.2917    5.3730   23.5885 H         1 RDC700      0.0000 
     31 H          63.3932    3.9151   26.0078 H         1 RDC700      0.0000 
     32 H          62.3325    1.8698   25.4729 H         1 RDC700      0.0000 
     33 H          61.7254    1.8997   22.6506 H         1 RDC700      0.0000 
     34 H          59.8028    3.5325   23.7663 H         1 RDC700      0.0000 
     35 H          59.7759    2.5492   20.8872 H         1 RDC700      0.0000 
     36 H          61.2764    3.3747   21.3424 H         1 RDC700      0.0000 
     37 H          59.0145    4.5339   20.2151 H         1 RDC700      0.0000 
     38 H          59.2451    5.6367   23.0063 H         1 RDC700      0.0000 
     39 H          58.3326    6.2986   21.8594 H         1 RDC700      0.0000 
     40 H          57.9344    4.8688   22.4784 H         1 RDC700      0.0000 
     41 H          62.2959    5.1154   19.6407 H         1 RDC700      0.0000 
     42 H          66.4244    9.3851   19.6771 H         1 RDC700      0.0000 
@<TRIPOS>BOND
     1    2    1 1    
     2   19    1 1    
     3   20    1 2    
     4    3    2 ar   
     5    7    2 ar   
     6    4    3 ar   
     7   21    3 1    
     8    5    4 ar   
     9   26    4 1    
    10    6    5 ar   
    11   22    5 1    
    12    7    6 ar   
    13   23    6 1    
    14    8    7 1    
    15    9    8 1    
    16   27    8 1    
    17   28    8 1    
    18   10    9 1    
    19   24    9 2    
    20   11   10 2    
    21   29   10 1    
    22   12   11 1    
    23   30   11 1    
    24   13   12 2    
    25   31   12 1    
    26   14   13 1    
    27   32   13 1    
    28   15   14 1    
    29   25   14 1    
    30   33   14 1    
    31   16   15 1    
    32   25   15 1    
    33   34   15 1    
    34   17   16 1    
    35   35   16 1    
    36   36   16 1    
    37   18   17 1    
    38   19   17 1    
    39   37   17 1    
    40   38   18 1    
    41   39   18 1    
    42   40   18 1    
    43   41   21 1    
    44   42   22 1    
@<TRIPOS>SUBSTRUCTURE
     1 RDC700      1 GROUP   
@<TRIPOS>SET

