#    Name: 2aqj_FAD_1_INTS_M
#    Modification time : Mon Mar 24 19:35:08 2014

@<TRIPOS>MOLECULE
2aqj_FAD_1_INTS_M
  124     0     9     0     0
SMALL
NO_CHARGES


@<TRIPOS>ATOM
      1 N          21.3865    1.1310   29.5785 N.am      2 SEC2        0.0000 
      2 N          21.7570    0.9370   28.3820 N.am      8 SEL2        0.0000 
      3 N          21.0160    1.3250   30.7750 N.am      5 SEP2        0.0000 
      4 CA         25.6005    1.8440   26.5390 C.3       3 GLC5        0.0000 
      5 CA         25.3450    0.1590   27.6360 C.3       9 GLL5        0.0000 
      6 CA         25.8560    3.5290   25.4420 C.3       6 GLP5        0.0000 
      7 CA         26.6100   -2.4075   26.4690 C.3       3 GLC5        0.0000 
      8 CA         25.9010   -1.2560   27.7060 C.3       9 GLL5        0.0000 
      9 CA         27.3190   -3.5590   25.2320 C.3       6 GLP5        0.0000 
     10 CA         24.0165   -2.3835   29.9480 C.3       3 GLC5        0.0000 
     11 CA         25.8660   -1.8130   29.1270 C.3       9 GLL5        0.0000 
     12 CA         22.1670   -2.9540   30.7690 C.3       6 GLP5        0.0000 
     13 N          25.6270   -3.9090   27.7870 N.am      2 SEC2        0.0000 
     14 N          25.6460   -3.2020   29.0210 N.am      8 SEL2        0.0000 
     15 N          25.6080   -4.6160   26.5530 N.am      5 SEP2        0.0000 
     16 O          25.8000   -4.1840   30.0685 O.2       1 ALC1        0.0000 
     17 O          25.6460   -3.2020   29.0210 O.2       7 ALL1        0.0000 
     18 O          25.9540   -5.1660   31.1160 O.2       4 ALP1        0.0000 
     19 CA         27.9670   -0.2940   30.9655 C.3       3 GLC5        0.0000 
     20 CA         27.2690   -1.5180   29.6640 C.3       9 GLL5        0.0000 
     21 CA         28.6650    0.9300   32.2670 C.3       6 GLP5        0.0000 
     22 O          27.2355   -2.2115   31.8145 O.2       1 ALC1        0.0000 
     23 O          27.6910   -2.5020   30.5840 O.2       7 ALL1        0.0000 
     24 O          26.7800   -1.9210   33.0450 O.2       4 ALP1        0.0000 
     25 CA         27.6940   -2.6165   26.8085 C.3       3 GLC5        0.0000 
     26 CA         28.0690   -1.6740   28.3850 C.3       9 GLL5        0.0000 
     27 CA         28.2485   -0.4255   26.5605 C.3       3 GLC5        0.0000 
     28 CA         28.4280    0.8230   24.7360 C.3       6 GLP5        0.0000 
     29 CA         33.9415   -2.0225   29.8590 C.3       3 GLC5        0.0000 
     30 CA         32.8770   -1.3770   28.2620 C.3       9 GLL5        0.0000 
     31 CA         35.0060   -2.6680   31.4560 C.3       6 GLP5        0.0000 
     32 CA         34.4950   -2.2110   27.1370 C.3       3 GLC5        0.0000 
     33 CA         36.1130   -3.0450   26.0120 C.3       6 GLP5        0.0000 
     34 CA         33.7300   -0.7260   26.4095 C.3       3 GLC5        0.0000 
     35 CA         34.5830   -0.0750   24.5570 C.3       6 GLP5        0.0000 
     36 O          35.3625   -0.9065   28.4555 O.2       1 ALC1        0.0000 
     37 O          33.8720   -0.5170   28.4990 O.2       7 ALL1        0.0000 
     38 O          36.8530   -1.2960   28.4120 O.2       4 ALP1        0.0000 
     39 N          34.4065   -3.3425   28.2690 N.am      2 SEC2        0.0000 
     40 N          33.0690   -2.7480   28.2460 N.am      8 SEL2        0.0000 
     41 N          35.7440   -3.9370   28.2920 N.am      5 SEP2        0.0000 
     42 CA         31.7840   -3.0870   26.2815 C.3       3 GLC5        0.0000 
     43 CA         31.9940   -3.6160   28.2880 C.3       9 GLL5        0.0000 
     44 CA         31.5740   -2.5580   24.2750 C.3       6 GLP5        0.0000 
     45 CA         32.4765   -5.6445   27.4955 C.3       3 GLC5        0.0000 
     46 CA         32.9590   -7.6730   26.7030 C.3       6 GLP5        0.0000 
     47 CA         30.5545   -5.0930   28.3435 C.3       3 GLC5        0.0000 
     48 CA         29.1150   -6.5700   28.3990 C.3       6 GLP5        0.0000 
     49 CA         31.5150   -3.7370   30.0640 C.3       3 GLC5        0.0000 
     50 CA         31.0360   -3.8580   31.8400 C.3       6 GLP5        0.0000 
     51 CA         33.4625   -4.2765   29.3120 C.3       3 GLC5        0.0000 
     52 CA         34.9310   -4.9370   30.3360 C.3       6 GLP5        0.0000 
     53 N          30.2825   -4.2695   29.3455 N.am      2 SEC2        0.0000 
     54 N          30.7000   -3.1240   28.3240 N.am      8 SEL2        0.0000 
     55 N          29.8650   -5.4150   30.3670 N.am      5 SEP2        0.0000 
     56 CA         30.7795   -2.8190   30.0790 C.3       3 GLC5        0.0000 
     57 CA         30.5230   -1.7800   28.3180 C.3       9 GLL5        0.0000 
     58 N          13.1350    3.6420   22.1630 N.am      2 SEC2        0.0000 
     59 N          12.1260    3.7580   23.1160 N.am      8 SEL2        0.0000 
     60 N          14.1440    3.5260   21.2100 N.am      5 SEP2        0.0000 
     61 O          10.1540    4.3255   24.4185 O.2       1 ALC1        0.0000 
     62 O          11.2740    4.9110   24.8680 O.2       7 ALL1        0.0000 
     63 O           9.0340    3.7400   23.9690 O.2       4 ALP1        0.0000 
     64 N           9.5695    4.7280   26.6205 N.am      2 SEC2        0.0000 
     65 N          10.4620    6.1510   26.6240 N.am      8 SEL2        0.0000 
     66 N           8.6770    3.3050   26.6170 N.am      5 SEP2        0.0000 
     67 CA         13.1175    8.4990   26.9710 C.3       3 GLC5        0.0000 
     68 CA         14.3170    7.2340   27.7330 C.3       9 GLL5        0.0000 
     69 CA         11.9180    9.7640   26.2090 C.3       6 GLP5        0.0000 
     70 CA         13.4500    9.3750   28.0605 C.3       3 GLC5        0.0000 
     71 CA         14.5560    8.0880   28.8030 C.3       9 GLL5        0.0000 
     72 CA         12.3440   10.6620   27.3180 C.3       6 GLP5        0.0000 
     73 CA         15.9465   10.7905   31.6770 C.3       3 GLC5        0.0000 
     74 CA         16.1200    9.3260   30.3090 C.3       9 GLL5        0.0000 
     75 CA         15.7730   12.2550   33.0450 C.3       6 GLP5        0.0000 
     76 CA         14.5090    9.2240   31.2880 C.3       3 GLC5        0.0000 
     77 CA         12.8980    9.1220   32.2670 C.3       6 GLP5        0.0000 
     78 CA         16.8900    8.7875   31.9415 C.3       3 GLC5        0.0000 
     79 CA         17.6600    8.2490   33.5740 C.3       6 GLP5        0.0000 
     80 CA         19.5970    7.1230   29.6470 C.3       3 GLC5        0.0000 
     81 CA         18.3780    8.2700   28.7680 C.3       9 GLL5        0.0000 
     82 CA         20.8160    5.9760   30.5260 C.3       6 GLP5        0.0000 
     83 CA         20.2900    8.5930   28.5130 C.3       3 GLC5        0.0000 
     84 CA         22.2020    8.9160   28.2580 C.3       6 GLP5        0.0000 
     85 CA         19.1010    9.2460   30.4805 C.3       3 GLC5        0.0000 
     86 CA         19.8240   10.2220   32.1930 C.3       6 GLP5        0.0000 
     87 CA         18.1805    9.0850   27.1925 C.3       3 GLC5        0.0000 
     88 CA         17.9830    9.9000   25.6170 C.3       6 GLP5        0.0000 
     89 CA         15.5640    5.5815   23.2220 C.3       3 GLC5        0.0000 
     90 CA         16.2590    5.3350   25.1080 C.3       9 GLL5        0.0000 
     91 CA         14.8690    5.8280   21.3360 C.3       6 GLP5        0.0000 
     92 CA         14.6585    3.2595   26.6960 C.3       3 GLC5        0.0000 
     93 CA         16.5150    3.9100   25.6620 C.3       9 GLL5        0.0000 
     94 CA         12.8020    2.6090   27.7300 C.3       6 GLP5        0.0000 
     95 O          15.6335    3.3275   28.2120 O.2       1 ALC1        0.0000 
     96 O          16.6330    3.8210   27.0940 O.2       7 ALL1        0.0000 
     97 O          14.6340    2.8340   29.3300 O.2       4 ALP1        0.0000 
     98 CA         19.5910    4.3955   24.9700 C.3       3 GLC5        0.0000 
     99 CA         17.8030    3.3670   25.0260 C.3       9 GLL5        0.0000 
    100 CA         21.3790    5.4240   24.9140 C.3       6 GLP5        0.0000 
    101 CA         20.5205    0.3955   23.3405 C.3       3 GLC5        0.0000 
    102 CA         19.3340    1.3670   24.8090 C.3       9 GLL5        0.0000 
    103 CA         21.7070   -0.5760   21.8720 C.3       6 GLP5        0.0000 
    104 N          21.0485   -1.0355   24.1975 N.am      2 SEC2        0.0000 
    105 N          21.8350   -0.1390   25.0630 N.am      8 SEL2        0.0000 
    106 N          20.2620   -1.9320   23.3320 N.am      5 SEP2        0.0000 
    107 N          22.4140    3.2100   23.0665 N.am      2 SEC2        0.0000 
    108 N          22.3600    2.0710   23.8470 N.am      8 SEL2        0.0000 
    109 N          22.4680    4.3490   22.2860 N.am      5 SEP2        0.0000 
    110 CA         27.0255    0.1372   26.2035 C.3       3 GLC5        0.0000 
    111 CA         31.4751   -2.0076   26.2858 C.3       3 GLC5        0.0000 
    112 CA         31.5820   -0.8920   28.2880 C.3       9 GLL5        0.0000 
    113 CA         31.5246   -0.7396   30.0838 C.3       3 GLC5        0.0000 
    114 CA         31.6730   -0.0220   31.8710 C.3       6 GLP5        0.0000 
    115 CA         14.4164    6.6795   29.8998 C.3       3 GLC5        0.0000 
    116 CA         13.6810    5.3210   31.0980 C.3       6 GLP5        0.0000 
    117 CA         17.8315    5.8305   28.7170 C.3       3 GLC5        0.0000 
    118 CA         16.9390    7.9170   28.4030 C.3       9 GLL5        0.0000 
    119 CA         18.8460    4.1680   29.5720 C.3       6 GLP5        0.0000 
    120 CA         18.0898   -0.1315   25.0330 C.3       3 GLC5        0.0000 
    121 CA         17.9350    1.8690   25.2070 C.3       9 GLL5        0.0000 
    122 CA         17.5450   -1.8810   25.0580 C.3       6 GLP5        0.0000 
    123 CA         18.3297    1.1270   23.2080 C.3       3 GLC5        0.0000 
    124 CA         18.0250    0.6360   21.4080 C.3       6 GLP5        0.0000 
@<TRIPOS>BOND
@<TRIPOS>SUBSTRUCTURE
     1 ALC1       16 GROUP        1 X    ALC  0     ROOT ALC X 1
     2 SEC2        1 GROUP        1 X    SEC  0     **** SEC X 2
     3 GLC5        4 GROUP        1 X    GLC  0     **** GLC X 6
     4 ALP1       18 GROUP        1 Y    ALP  0     ROOT ALP Y 8
     5 SEP2        3 GROUP        1 Y    SEP  0     **** SEP Y 9
     6 GLP5        6 GROUP        1 Y    GLP  0     **** GLP Y 13
     7 ALL1       17 GROUP        1 Z    ALL  0     ROOT ALL Z 15
     8 SEL2        2 GROUP        1 Z    SEL  0     **** SEL Z 16
     9 GLL5        5 GROUP        1 Z    GLL  0     **** GLL Z 20
@<TRIPOS>SET

