#    Name: 2aqj_FAD_1_ligand
#    Modification time : Mon Mar 24 19:35:08 2014

@<TRIPOS>MOLECULE
2aqj_FAD_1_ligand
   84    89     1     0     0
SMALL
NO_CHARGES


@<TRIPOS>ATOM
      1 PA         23.0530    1.3750   27.7580 P.3       1 FAD600      0.0000 
      2 O1A        21.7570    0.9370   28.3820 O.co2     1 FAD600      0.0000 
      3 O2A        23.7560    2.5830   28.4280 O.co2     1 FAD600      0.0000 
      4 O5B        23.9490    0.0610   27.7280 O.3       1 FAD600      0.0000 
      5 C5B        25.3450    0.1590   27.6360 C.3       1 FAD600      0.0000 
      6 C4B        25.9010   -1.2560   27.7060 C.3       1 FAD600      0.0000 
      7 O4B        27.2700   -1.1600   27.3250 O.3       1 FAD600      0.0000 
      8 C3B        25.8660   -1.8130   29.1270 C.3       1 FAD600      0.0000 
      9 O3B        25.6460   -3.2020   29.0210 O.3       1 FAD600      0.0000 
     10 C2B        27.2690   -1.5180   29.6640 C.3       1 FAD600      0.0000 
     11 O2B        27.6910   -2.5020   30.5840 O.3       1 FAD600      0.0000 
     12 C1B        28.0690   -1.6740   28.3850 C.3       1 FAD600      0.0000 
     13 N9A        29.3920   -1.0350   28.3760 N.pl3     1 FAD600      0.0000 
     14 C8A        29.7150    0.2970   28.3440 C.2       1 FAD600      0.0000 
     15 N7A        31.0840    0.3620   28.2900 N.2       1 FAD600      0.0000 
     16 C5A        31.5820   -0.8920   28.2880 C.ar      1 FAD600      0.0000 
     17 C6A        32.8770   -1.3770   28.2620 C.ar      1 FAD600      0.0000 
     18 N6A        33.8720   -0.5170   28.4990 N.pl3     1 FAD600      0.0000 
     19 N1A        33.0690   -2.7480   28.2460 N.ar      1 FAD600      0.0000 
     20 C2A        31.9940   -3.6160   28.2880 C.ar      1 FAD600      0.0000 
     21 N3A        30.7000   -3.1240   28.3240 N.ar      1 FAD600      0.0000 
     22 C4A        30.5230   -1.7800   28.3180 C.ar      1 FAD600      0.0000 
     23 N1         13.6320    4.7520   24.4570 N.2       1 FAD600      0.0000 
     24 C2         12.3360    4.4520   24.1190 C.2       1 FAD600      0.0000 
     25 O2         12.1260    3.7580   23.1160 O.2       1 FAD600      0.0000 
     26 N3         11.2740    4.9110   24.8680 N.am      1 FAD600      0.0000 
     27 C4         11.4440    5.7390   25.9560 C.2       1 FAD600      0.0000 
     28 O4         10.4620    6.1510   26.6240 O.2       1 FAD600      0.0000 
     29 C4X        12.7580    6.0700   26.3060 C.2       1 FAD600      0.0000 
     30 N5         13.0060    6.8800   27.4160 N.2       1 FAD600      0.0000 
     31 C5X        14.3170    7.2340   27.7330 C.ar      1 FAD600      0.0000 
     32 C6         14.5560    8.0880   28.8030 C.ar      1 FAD600      0.0000 
     33 C7         15.8670    8.4150   29.1350 C.ar      1 FAD600      0.0000 
     34 C7M        16.1200    9.3260   30.3090 C.3       1 FAD600      0.0000 
     35 C8         16.9390    7.9170   28.4030 C.ar      1 FAD600      0.0000 
     36 C8M        18.3780    8.2700   28.7680 C.3       1 FAD600      0.0000 
     37 C9         16.6950    7.0690   27.3210 C.ar      1 FAD600      0.0000 
     38 C9A        15.3830    6.7400   26.9830 C.ar      1 FAD600      0.0000 
     39 N10        15.1320    5.8950   25.9110 N.pl3     1 FAD600      0.0000 
     40 C10        13.8380    5.5750   25.5550 C.2       1 FAD600      0.0000 
     41 C1'        16.2590    5.3350   25.1080 C.3       1 FAD600      0.0000 
     42 C2'        16.5150    3.9100   25.6620 C.3       1 FAD600      0.0000 
     43 O2'        16.6330    3.8210   27.0940 O.3       1 FAD600      0.0000 
     44 C3'        17.8030    3.3670   25.0260 C.3       1 FAD600      0.0000 
     45 O3'        17.6580    3.5480   23.6300 O.3       1 FAD600      0.0000 
     46 C4'        17.9350    1.8690   25.2070 C.3       1 FAD600      0.0000 
     47 O4'        17.5420    1.3920   26.4640 O.3       1 FAD600      0.0000 
     48 C5'        19.3340    1.3670   24.8090 C.3       1 FAD600      0.0000 
     49 O5'        20.4330    1.8600   25.5550 O.3       1 FAD600      0.0000 
     50 P          21.8830    1.3220   25.0880 P.3       1 FAD600      0.0000 
     51 O1P        21.8350   -0.1390   25.0630 O.co2     1 FAD600      0.0000 
     52 O2P        22.3600    2.0710   23.8470 O.co2     1 FAD600      0.0000 
     53 O3P        22.9180    1.8270   26.2200 O.3       1 FAD600      0.0000 
     54 H          25.7799    0.7273   28.4579 H         1 FAD600      0.0000 
     55 H          25.6727    0.5979   26.6939 H         1 FAD600      0.0000 
     56 H          25.3579   -1.8864   27.0580 H         1 FAD600      0.0000 
     57 H          25.1589   -1.2905   29.6779 H         1 FAD600      0.0000 
     58 H          27.3184   -0.5372   29.9774 H         1 FAD600      0.0000 
     59 H          28.1958   -2.7633   28.2204 H         1 FAD600      0.0000 
     60 H          29.1145    1.0254   28.3566 H         1 FAD600      0.0000 
     61 H          34.7976   -0.8937   28.4611 H         1 FAD600      0.0000 
     62 H          33.6017    0.4260   28.6930 H         1 FAD600      0.0000 
     63 H          32.1553   -4.6359   28.2926 H         1 FAD600      0.0000 
     64 H          10.3030    4.6198   24.6004 H         1 FAD600      0.0000 
     65 H          13.7756    8.4731   29.3422 H         1 FAD600      0.0000 
     66 H          17.4774    6.6905   26.7782 H         1 FAD600      0.0000 
     67 H          17.1483    5.9170   25.2403 H         1 FAD600      0.0000 
     68 H          15.9891    5.2555   24.0746 H         1 FAD600      0.0000 
     69 H          15.7038    3.2692   25.2972 H         1 FAD600      0.0000 
     70 H          18.6355    3.8612   25.4092 H         1 FAD600      0.0000 
     71 H          17.2455    1.4118   24.4157 H         1 FAD600      0.0000 
     72 H          19.4534    1.5923   23.7098 H         1 FAD600      0.0000 
     73 H          19.2906    0.2400   24.8433 H         1 FAD600      0.0000 
     74 H          17.0965    9.4911   30.4473 H         1 FAD600      0.0000 
     75 H          15.6862   10.2187   30.1866 H         1 FAD600      0.0000 
     76 H          15.7642    8.9416   31.1608 H         1 FAD600      0.0000 
     77 H          19.0346    7.8383   28.1495 H         1 FAD600      0.0000 
     78 H          18.5406    9.2558   28.7264 H         1 FAD600      0.0000 
     79 H          18.6095    7.9736   29.6946 H         1 FAD600      0.0000 
     80 H          25.8339   -3.5641   29.9340 H         1 FAD600      0.0000 
     81 H          27.2799   -2.2346   31.4555 H         1 FAD600      0.0000 
     82 H          15.7675    3.4250   27.4008 H         1 FAD600      0.0000 
     83 H          18.5574    3.8496   23.3135 H         1 FAD600      0.0000 
     84 H          17.4101    2.2113   27.0219 H         1 FAD600      0.0000 
@<TRIPOS>BOND
     1    2    1 ar   
     2    3    1 ar   
     3    4    1 1    
     4   53    1 1    
     5    5    4 1    
     6    6    5 1    
     7   54    5 1    
     8   55    5 1    
     9    7    6 1    
    10    8    6 1    
    11   56    6 1    
    12   12    7 1    
    13    9    8 1    
    14   10    8 1    
    15   57    8 1    
    16   80    9 1    
    17   11   10 1    
    18   12   10 1    
    19   58   10 1    
    20   81   11 1    
    21   13   12 1    
    22   59   12 1    
    23   14   13 1    
    24   22   13 1    
    25   15   14 2    
    26   60   14 1    
    27   16   15 1    
    28   17   16 ar   
    29   22   16 ar   
    30   18   17 1    
    31   19   17 ar   
    32   61   18 1    
    33   62   18 1    
    34   20   19 ar   
    35   21   20 ar   
    36   63   20 1    
    37   22   21 ar   
    38   24   23 1    
    39   40   23 2    
    40   25   24 2    
    41   26   24 am   
    42   27   26 am   
    43   64   26 1    
    44   28   27 2    
    45   29   27 1    
    46   30   29 2    
    47   40   29 1    
    48   31   30 1    
    49   32   31 ar   
    50   38   31 ar   
    51   33   32 ar   
    52   65   32 1    
    53   34   33 1    
    54   35   33 ar   
    55   74   34 1    
    56   75   34 1    
    57   76   34 1    
    58   36   35 1    
    59   37   35 ar   
    60   77   36 1    
    61   78   36 1    
    62   79   36 1    
    63   38   37 ar   
    64   66   37 1    
    65   39   38 1    
    66   40   39 1    
    67   41   39 1    
    68   42   41 1    
    69   67   41 1    
    70   68   41 1    
    71   43   42 1    
    72   44   42 1    
    73   69   42 1    
    74   82   43 1    
    75   45   44 1    
    76   46   44 1    
    77   70   44 1    
    78   83   45 1    
    79   47   46 1    
    80   48   46 1    
    81   71   46 1    
    82   84   47 1    
    83   49   48 1    
    84   72   48 1    
    85   73   48 1    
    86   50   49 1    
    87   51   50 ar   
    88   52   50 ar   
    89   53   50 1    
@<TRIPOS>SUBSTRUCTURE
     1 FAD600      1 GROUP   
@<TRIPOS>SET

