#    Name: 2VUU_8_CAVITY_N1_6.mol2
#    Modification time : Mon Mar 10 17:59:28 2014

@<TRIPOS>MOLECULE
2VUU_8_CAVITY_N1_6.mol2
  172     0     6     0     0
SMALL
NO_CHARGES


@<TRIPOS>ATOM
      1 O          33.2079  -42.1331  169.6262 O.2       2 ALA2        0.0000 
      2 O          33.0382  -42.7080  171.0012 O.2       2 ALA2        0.0000 
      3 O          32.8685  -43.2830  172.3762 O.2       2 ALA2        0.0000 
      4 O          31.7218  -41.9625  169.5141 O.2       2 ALA2        0.0000 
      5 OG         31.5521  -42.5375  170.8891 O.2       1 SER1        0.0000 
      6 CZ         31.3825  -43.1124  172.2641 C.ar      4 PHE5        0.0000 
      7 N          30.4055  -41.2170  168.0270 N.2       2 ALA2        0.0000 
      8 DU         30.2358  -41.7920  169.4020 H         6 CUB7        0.0000 
      9 DU         30.0661  -42.3669  170.7770 H         6 CUB7        0.0000 
     10 DU         29.8964  -42.9419  172.1520 H         6 CUB7        0.0000 
     11 O          29.7267  -43.5168  173.5270 O.2       2 ALA2        0.0000 
     12 N          29.2176  -45.2416  177.6521 N.2       2 ALA2        0.0000 
     13 N          28.9194  -41.0465  167.9149 N.2       2 ALA2        0.0000 
     14 OG         28.7497  -41.6214  169.2899 O.2       1 SER1        0.0000 
     15 DU         28.5800  -42.1964  170.6650 H         6 CUB7        0.0000 
     16 DU         28.2407  -43.3462  173.4150 H         6 CUB7        0.0000 
     17 O          28.0710  -43.9212  174.7900 O.2       2 ALA2        0.0000 
     18 N          27.9013  -44.4961  176.1650 N.2       2 ALA2        0.0000 
     19 N          27.7316  -45.0711  177.5400 N.2       2 ALA2        0.0000 
     20 OD1        27.4334  -40.8759  167.8029 O.3       3 ASP3        0.0000 
     21 OD1        27.2637  -41.4509  169.1779 O.3       3 ASP3        0.0000 
     22 DU         27.0940  -42.0258  170.5529 H         6 CUB7        0.0000 
     23 DU         26.9243  -42.6007  171.9279 H         6 CUB7        0.0000 
     24 DU         26.5849  -43.7506  174.6779 H         6 CUB7        0.0000 
     25 OG         26.4152  -44.3256  176.0529 O.2       1 SER1        0.0000 
     26 OG         26.2455  -44.9005  177.4279 O.2       1 SER1        0.0000 
     27 N          25.7776  -41.2803  169.0658 N.2       2 ALA2        0.0000 
     28 CA         25.6079  -41.8552  170.4408 C.3       5 GLY6        0.0000 
     29 CA         25.4383  -42.4302  171.8158 C.3       5 GLY6        0.0000 
     30 DU         25.2686  -43.0051  173.1908 H         6 CUB7        0.0000 
     31 OG         25.0989  -43.5801  174.5658 O.2       1 SER1        0.0000 
     32 CA         23.9522  -42.2596  171.7037 C.3       5 GLY6        0.0000 
     33 CA         23.7825  -42.8346  173.0787 C.3       5 GLY6        0.0000 
     34 CA         28.1265  -47.6960  168.3094 C.3       5 GLY6        0.0000 
     35 N          27.9568  -48.2709  169.6844 N.2       2 ALA2        0.0000 
     36 N          27.7871  -48.8458  171.0594 N.2       2 ALA2        0.0000 
     37 CA         26.6405  -47.5254  168.1973 C.3       5 GLY6        0.0000 
     38 OG         26.4708  -48.1003  169.5723 O.2       1 SER1        0.0000 
     39 OG         26.3011  -48.6753  170.9473 O.2       1 SER1        0.0000 
     40 CA         26.1314  -49.2502  172.3223 C.3       5 GLY6        0.0000 
     41 OG         24.6453  -49.0797  172.2103 O.2       1 SER1        0.0000 
     42 CA         24.4756  -49.6546  173.5853 C.3       5 GLY6        0.0000 
     43 CZ         23.1593  -48.9091  172.0982 C.ar      4 PHE5        0.0000 
     44 CZ         22.9896  -49.4841  173.4732 C.ar      4 PHE5        0.0000 
     45 CZ         21.6732  -48.7386  171.9861 C.ar      4 PHE5        0.0000 
     46 OD1        28.5230  -44.3712  168.1122 O.3       3 ASP3        0.0000 
     47 OG         28.3533  -44.9462  169.4872 O.2       1 SER1        0.0000 
     48 OG         28.1836  -45.5211  170.8622 O.2       1 SER1        0.0000 
     49 CZ         28.0139  -46.0960  172.2372 C.ar      4 PHE5        0.0000 
     50 N          27.8442  -46.6710  173.6122 N.2       2 ALA2        0.0000 
     51 O          28.5808  -39.2215  175.1816 O.2       2 ALA2        0.0000 
     52 DU         28.4111  -39.7965  176.5566 H         6 CUB7        0.0000 
     53 DU         28.2414  -40.3714  177.9317 H         6 CUB7        0.0000 
     54 CA         27.2645  -38.4760  173.6945 C.3       5 GLY6        0.0000 
     55 O          27.0948  -39.0510  175.0696 O.2       2 ALA2        0.0000 
     56 CA         25.7784  -38.3055  173.5825 C.3       5 GLY6        0.0000 
     57 O          28.4096  -45.7461  167.5233 O.2       2 ALA2        0.0000 
     58 OG         28.2399  -46.3211  168.8983 O.2       1 SER1        0.0000 
     59 CZ         28.0702  -46.8960  170.2733 C.ar      4 PHE5        0.0000 
     60 CZ         27.9005  -47.4709  171.6483 C.ar      4 PHE5        0.0000 
     61 CA         26.9235  -45.5756  167.4112 C.3       5 GLY6        0.0000 
     62 CA         26.7538  -46.1505  168.7862 C.3       5 GLY6        0.0000 
     63 OG         26.5842  -46.7254  170.1612 O.2       1 SER1        0.0000 
     64 OG         26.4145  -47.3004  171.5362 O.2       1 SER1        0.0000 
     65 O          26.2448  -47.8753  172.9112 O.2       2 ALA2        0.0000 
     66 O          25.0981  -46.5549  170.0491 O.2       2 ALA2        0.0000 
     67 OG         24.9284  -47.1298  171.4241 O.2       1 SER1        0.0000 
     68 CZ         24.7587  -47.7048  172.7991 C.ar      4 PHE5        0.0000 
     69 CZ         23.2727  -47.5342  172.6871 C.ar      4 PHE5        0.0000 
     70 CZ         23.1030  -48.1092  174.0621 C.ar      4 PHE5        0.0000 
     71 CZ         21.7866  -47.3637  172.5750 C.ar      4 PHE5        0.0000 
     72 O          31.6085  -43.3374  168.9252 O.2       2 ALA2        0.0000 
     73 O          30.1224  -43.1669  168.8131 O.2       2 ALA2        0.0000 
     74 OG         29.9527  -43.7418  170.1881 O.2       1 SER1        0.0000 
     75 OG         29.7830  -44.3168  171.5632 O.2       1 SER1        0.0000 
     76 CZ         29.6133  -44.8917  172.9382 C.ar      4 PHE5        0.0000 
     77 OD1        28.6364  -42.9963  168.7011 O.3       3 ASP3        0.0000 
     78 OG         28.4667  -43.5713  170.0761 O.2       1 SER1        0.0000 
     79 DU         28.2970  -44.1462  171.4511 H         6 CUB7        0.0000 
     80 DU         28.1273  -44.7211  172.8261 H         6 CUB7        0.0000 
     81 N          27.9576  -45.2961  174.2011 N.2       2 ALA2        0.0000 
     82 OD1        27.1503  -42.8258  168.5890 O.3       3 ASP3        0.0000 
     83 DU         26.9806  -43.4007  169.9640 H         6 CUB7        0.0000 
     84 DU         26.8109  -43.9756  171.3390 H         6 CUB7        0.0000 
     85 DU         26.6412  -44.5506  172.7140 H         6 CUB7        0.0000 
     86 N          26.4715  -45.1255  174.0890 N.2       2 ALA2        0.0000 
     87 N          26.3018  -45.7005  175.4640 N.2       2 ALA2        0.0000 
     88 CZ         26.1321  -46.2754  176.8390 C.ar      4 PHE5        0.0000 
     89 N          25.6643  -42.6552  168.4769 N.2       2 ALA2        0.0000 
     90 O          25.4946  -43.2301  169.8519 O.2       2 ALA2        0.0000 
     91 O          25.3249  -43.8051  171.2269 O.2       2 ALA2        0.0000 
     92 DU         25.1552  -44.3800  172.6019 H         6 CUB7        0.0000 
     93 DU         24.9855  -44.9550  173.9769 H         6 CUB7        0.0000 
     94 OG         24.8158  -45.5299  175.3519 O.2       1 SER1        0.0000 
     95 CZ         24.6461  -46.1049  176.7269 C.ar      4 PHE5        0.0000 
     96 O          23.8388  -43.6345  171.1148 O.2       2 ALA2        0.0000 
     97 O          23.6691  -44.2095  172.4898 O.2       2 ALA2        0.0000 
     98 O          23.4994  -44.7844  173.8648 O.2       2 ALA2        0.0000 
     99 OG         23.3297  -45.3594  175.2398 O.2       1 SER1        0.0000 
    100 N          35.8977  -41.4492  175.1532 N.2       2 ALA2        0.0000 
    101 CA         34.5813  -40.7037  173.6661 C.3       5 GLY6        0.0000 
    102 DU         34.4116  -41.2787  175.0411 H         6 CUB7        0.0000 
    103 CA         33.2650  -39.9582  172.1790 C.3       5 GLY6        0.0000 
    104 DU         33.0953  -40.5332  173.5540 H         6 CUB7        0.0000 
    105 N          31.9486  -39.2127  170.6919 N.2       2 ALA2        0.0000 
    106 O          31.7789  -39.7877  172.0669 O.2       2 ALA2        0.0000 
    107 O          31.6092  -40.3626  173.4419 O.2       2 ALA2        0.0000 
    108 OG         30.2929  -39.6171  171.9548 O.2       1 SER1        0.0000 
    109 O          30.1232  -40.1921  173.3298 O.2       2 ALA2        0.0000 
    110 O          29.9535  -40.7670  174.7048 O.2       2 ALA2        0.0000 
    111 O          29.7838  -41.3419  176.0798 O.2       2 ALA2        0.0000 
    112 O          29.6141  -41.9169  177.4548 O.2       2 ALA2        0.0000 
    113 DU         29.4444  -42.4918  178.8299 H         6 CUB7        0.0000 
    114 O          28.6371  -40.0215  173.2177 O.2       2 ALA2        0.0000 
    115 O          28.4674  -40.5964  174.5927 O.2       2 ALA2        0.0000 
    116 DU         28.2977  -41.1714  175.9678 H         6 CUB7        0.0000 
    117 DU         28.1280  -41.7463  177.3428 H         6 CUB7        0.0000 
    118 OG         27.3208  -39.2760  171.7306 O.2       1 SER1        0.0000 
    119 O          27.1511  -39.8509  173.1057 O.2       2 ALA2        0.0000 
    120 DU         26.9814  -40.4259  174.4807 H         6 CUB7        0.0000 
    121 DU         26.8117  -41.0008  175.8557 H         6 CUB7        0.0000 
    122 OD1        27.0369  -44.2007  168.0001 O.3       3 ASP3        0.0000 
    123 O          26.8672  -44.7756  169.3751 O.2       2 ALA2        0.0000 
    124 DU         26.6975  -45.3505  170.7501 H         6 CUB7        0.0000 
    125 DU         26.5278  -45.9255  172.1251 H         6 CUB7        0.0000 
    126 N          26.3581  -46.5004  173.5001 N.2       2 ALA2        0.0000 
    127 O          26.1885  -47.0754  174.8751 O.2       2 ALA2        0.0000 
    128 O          25.2115  -45.1800  170.6380 O.2       2 ALA2        0.0000 
    129 O          25.0418  -45.7549  172.0130 O.2       2 ALA2        0.0000 
    130 DU         24.8721  -46.3299  173.3880 H         6 CUB7        0.0000 
    131 CZ         24.7024  -46.9048  174.7630 C.ar      4 PHE5        0.0000 
    132 O          23.5557  -45.5844  171.9009 O.2       2 ALA2        0.0000 
    133 CZ         23.3860  -46.1593  173.2759 C.ar      4 PHE5        0.0000 
    134 CZ         23.2164  -46.7343  174.6510 C.ar      4 PHE5        0.0000 
    135 O          22.0697  -45.4138  171.7889 O.2       2 ALA2        0.0000 
    136 OG         25.8347  -39.1054  171.6186 O.2       1 SER1        0.0000 
    137 CA         25.6650  -39.6804  172.9936 C.3       5 GLY6        0.0000 
    138 CA         25.4953  -40.2553  174.3686 C.3       5 GLY6        0.0000 
    139 N          34.6947  -39.3288  174.2550 N.2       2 ALA2        0.0000 
    140 O          33.3784  -38.5833  172.7679 O.2       2 ALA2        0.0000 
    141 O          34.4679  -42.0786  173.0772 O.2       2 ALA2        0.0000 
    142 O          34.2982  -42.6536  174.4522 O.2       2 ALA2        0.0000 
    143 N          33.3213  -40.7582  170.2151 N.2       2 ALA2        0.0000 
    144 CA         33.1516  -41.3331  171.5901 C.3       5 GLY6        0.0000 
    145 O          32.9819  -41.9081  172.9651 O.2       2 ALA2        0.0000 
    146 N          31.8352  -40.5876  170.1030 N.2       2 ALA2        0.0000 
    147 DU         31.6655  -41.1626  171.4780 H         6 CUB7        0.0000 
    148 DU         31.4958  -41.7375  172.8530 H         6 CUB7        0.0000 
    149 O          31.3261  -42.3125  174.2280 O.2       2 ALA2        0.0000 
    150 OG         30.3492  -40.4171  169.9909 O.2       1 SER1        0.0000 
    151 OG         30.1795  -40.9920  171.3659 O.2       1 SER1        0.0000 
    152 DU         30.0098  -41.5670  172.7409 H         6 CUB7        0.0000 
    153 O          29.8401  -42.1419  174.1159 O.2       2 ALA2        0.0000 
    154 O          29.6704  -42.7168  175.4909 O.2       2 ALA2        0.0000 
    155 O          29.3310  -43.8667  178.2410 O.2       2 ALA2        0.0000 
    156 OG         28.6934  -40.8215  171.2538 O.2       1 SER1        0.0000 
    157 DU         28.5237  -41.3964  172.6288 H         6 CUB7        0.0000 
    158 DU         28.3540  -41.9713  174.0039 H         6 CUB7        0.0000 
    159 DU         28.1843  -42.5463  175.3789 H         6 CUB7        0.0000 
    160 DU         28.0147  -43.1212  176.7539 H         6 CUB7        0.0000 
    161 DU         27.8450  -43.6962  178.1289 H         6 CUB7        0.0000 
    162 CA         27.5468  -39.5010  168.3917 C.3       5 GLY6        0.0000 
    163 OG         27.3771  -40.0760  169.7668 O.2       1 SER1        0.0000 
    164 OG         27.2074  -40.6509  171.1418 O.2       1 SER1        0.0000 
    165 DU         27.0377  -41.2258  172.5168 H         6 CUB7        0.0000 
    166 DU         26.8680  -41.8008  173.8918 H         6 CUB7        0.0000 
    167 OG         26.6983  -42.3757  175.2668 O.2       1 SER1        0.0000 
    168 OG         26.5286  -42.9507  176.6418 O.2       1 SER1        0.0000 
    169 CA         25.8910  -39.9054  169.6547 C.3       5 GLY6        0.0000 
    170 CA         25.7213  -40.4803  171.0297 C.3       5 GLY6        0.0000 
    171 CA         25.5516  -41.0553  172.4047 C.3       5 GLY6        0.0000 
    172 CA         25.3819  -41.6302  173.7797 C.3       5 GLY6        0.0000 
@<TRIPOS>BOND
@<TRIPOS>SUBSTRUCTURE
     1 SER1        5 GROUP   
     2 ALA2        1 GROUP   
     3 ASP3       20 GROUP   
     4 PHE5        6 GROUP   
     5 GLY6       28 GROUP   
     6 CUB7        8 GROUP   
@<TRIPOS>SET

