#    Name: 2vuu_NAP_8_INTS_M
#    Modification time : Tue Mar 25 03:01:42 2014

@<TRIPOS>MOLECULE
2vuu_NAP_8_INTS_M
   80     0    12     0     0
SMALL
NO_CHARGES


@<TRIPOS>ATOM
      1 N          31.5635  -43.5140  174.5625 N.am      2 SEC2        0.0000 
      2 N          31.6790  -42.1620  173.5680 N.am     10 SEL2        0.0000 
      3 N          31.4480  -44.8660  175.5570 N.am      6 SEP2        0.0000 
      4 NZ         33.8550  -43.9955  174.2065 N.4       3 LYC4        0.0000 
      5 NZ         34.1000  -42.7230  173.5250 N.4      11 LYL4        0.0000 
      6 NZ         32.5190  -45.6470  175.5370 N.4       7 LYP4        0.0000 
      7 N          35.2205  -42.9835  172.6430 N.am      2 SEC2        0.0000 
      8 N          34.1000  -42.7230  173.5250 N.am     10 SEL2        0.0000 
      9 N          36.3410  -43.2440  171.7610 N.am      6 SEP2        0.0000 
     10 N          33.8550  -43.9955  174.2065 N.am      2 SEC2        0.0000 
     11 N          33.6100  -45.2680  174.8880 N.am      6 SEP2        0.0000 
     12 O          37.1990  -37.5705  172.9570 O.2       1 ALC1        0.0000 
     13 O          36.0970  -38.2780  173.1380 O.2       9 ALL1        0.0000 
     14 O          38.3010  -36.8630  172.7760 O.2       5 ALP1        0.0000 
     15 N          37.3035  -36.4335  173.6725 N.am      2 SEC2        0.0000 
     16 N          36.3060  -36.0040  174.5690 N.am     10 SEL2        0.0000 
     17 N          38.3010  -36.8630  172.7760 N.am      6 SEP2        0.0000 
     18 N          36.4375  -34.5045  174.4355 N.am      2 SEC2        0.0000 
     19 N          36.5690  -33.0050  174.3020 N.am      6 SEP2        0.0000 
     20 CA         34.6580  -31.4695  171.3430 C.3       4 GLC5        0.0000 
     21 CA         33.0250  -32.0670  171.3540 C.3      12 GLL5        0.0000 
     22 CA         36.2910  -30.8720  171.3320 C.3       8 GLP5        0.0000 
     23 CA         31.3630  -31.9295  170.1905 C.3       4 GLC5        0.0000 
     24 CA         29.7010  -31.7920  169.0270 C.3       8 GLP5        0.0000 
     25 N          31.9820  -44.8830  170.4410 N.am      2 SEC2        0.0000 
     26 N          32.2900  -43.8170  171.0010 N.am     10 SEL2        0.0000 
     27 N          31.6740  -45.9490  169.8810 N.am      6 SEP2        0.0000 
     28 N          35.2495  -43.8850  169.5835 N.am      2 SEC2        0.0000 
     29 N          34.1550  -42.8290  169.7110 N.am     10 SEL2        0.0000 
     30 N          36.3440  -44.9410  169.4560 N.am      6 SEP2        0.0000 
     31 N          32.5360  -42.1170  168.0645 N.am      2 SEC2        0.0000 
     32 N          31.8440  -41.8030  169.4680 N.am     10 SEL2        0.0000 
     33 N          33.2280  -42.4310  166.6610 N.am      6 SEP2        0.0000 
     34 CA         27.4150  -41.6160  167.0805 C.3       4 GLC5        0.0000 
     35 CA         28.1060  -41.5620  169.1570 C.3      12 GLL5        0.0000 
     36 CA         26.7240  -41.6700  165.0040 C.3       8 GLP5        0.0000 
     37 N          27.5610  -41.7930  166.8510 N.am      2 SEC2        0.0000 
     38 N          27.6290  -40.8380  168.0140 N.am     10 SEL2        0.0000 
     39 N          27.4930  -42.7480  165.6880 N.am      6 SEP2        0.0000 
     40 O          28.7350  -40.1235  167.0405 O.2       1 ALC1        0.0000 
     41 O          27.6290  -40.8380  168.0140 O.2       9 ALL1        0.0000 
     42 O          29.8410  -39.4090  166.0670 O.2       5 ALP1        0.0000 
     43 CA         27.4740  -42.7495  166.8265 C.3       4 GLC5        0.0000 
     44 CA         28.2240  -43.8290  168.6490 C.3      12 GLL5        0.0000 
     45 N          28.3380  -49.9615  172.6690 N.am      2 SEC2        0.0000 
     46 N          27.5370  -48.8440  172.3960 N.am     10 SEL2        0.0000 
     47 N          29.1390  -51.0790  172.9420 N.am      6 SEP2        0.0000 
     48 N          27.7980  -49.0835  173.7635 N.am      2 SEC2        0.0000 
     49 N          28.0590  -49.3230  175.1310 N.am      6 SEP2        0.0000 
     50 O          28.7025  -47.1105  174.4650 O.2       1 ALC1        0.0000 
     51 O          28.4400  -46.8010  173.0380 O.2       9 ALL1        0.0000 
     52 O          28.9650  -47.4200  175.8920 O.2       5 ALP1        0.0000 
     53 CA         26.5010  -46.7170  166.5695 C.3       4 GLC5        0.0000 
     54 CA         27.5910  -46.1490  167.9380 C.3      12 GLL5        0.0000 
     55 CA         25.4110  -47.2850  165.2010 C.3       8 GLP5        0.0000 
     56 N          38.3510  -36.1385  174.1270 N.am      2 SEC2        0.0000 
     57 N          38.4010  -35.4140  175.4780 N.am     10 SEL2        0.0000 
     58 N          37.4850  -34.2095  174.8900 N.am      2 SEC2        0.0000 
     59 N          36.4520  -33.8930  175.4815 N.am      2 SEC2        0.0000 
     60 N          36.3350  -34.7810  176.6610 N.am     10 SEL2        0.0000 
     61 CA         35.4200  -39.4417  172.3595 C.3       4 GLC5        0.0000 
     62 CA         34.9400  -37.9550  173.9300 C.3      12 GLL5        0.0000 
     63 CA         36.5230  -40.8850  171.2100 C.3       8 GLP5        0.0000 
     64 CA         35.7157  -34.4810  173.4455 C.3       4 GLC5        0.0000 
     65 CA         34.9650  -36.5400  174.4390 C.3      12 GLL5        0.0000 
     66 CA         36.8410  -32.8050  172.9710 C.3       8 GLP5        0.0000 
     67 CA         34.5031  -32.1710  173.0190 C.3       4 GLC5        0.0000 
     68 CA         32.4610  -32.6120  173.9570 C.3      12 GLL5        0.0000 
     69 CA         36.3030  -31.6110  172.6290 C.3       8 GLP5        0.0000 
     70 CA         30.8001  -33.5485  173.0660 C.3       4 GLC5        0.0000 
     71 CA         33.1520  -33.4600  173.1430 C.3      12 GLL5        0.0000 
     72 CA         28.8970  -34.3660  172.7230 C.3       8 GLP5        0.0000 
     73 CA         29.5538  -39.6317  169.2758 C.3       4 GLC5        0.0000 
     74 CA         30.5550  -41.4210  169.8620 C.3      12 GLL5        0.0000 
     75 CA         30.0290  -37.6450  169.2890 C.3       8 GLP5        0.0000 
     76 CA         25.8027  -47.5378  167.7352 C.3       4 GLC5        0.0000 
     77 CA         27.3240  -47.5310  168.2250 C.3      12 GLL5        0.0000 
     78 CA         24.2330  -47.2970  166.5750 C.3       8 GLP5        0.0000 
     79 CA         28.7559  -48.0689  167.4424 C.3       4 GLC5        0.0000 
     80 CA         30.0300  -49.1740  166.4680 C.3       8 GLP5        0.0000 
@<TRIPOS>BOND
@<TRIPOS>SUBSTRUCTURE
     1 ALC1       12 GROUP        1 X    ALC  0     ROOT ALC X 1
     2 SEC2        1 GROUP        1 X    SEC  0     **** SEC X 2
     3 LYC4        4 GROUP        1 X    LYC  0     **** LYC X 4
     4 GLC5       20 GROUP        1 X    GLC  0     **** GLC X 6
     5 ALP1       14 GROUP        1 Y    ALP  0     ROOT ALP Y 8
     6 SEP2        3 GROUP        1 Y    SEP  0     **** SEP Y 9
     7 LYP4        6 GROUP        1 Y    LYP  0     **** LYP Y 11
     8 GLP5       22 GROUP        1 Y    GLP  0     **** GLP Y 13
     9 ALL1       13 GROUP        1 Z    ALL  0     ROOT ALL Z 15
    10 SEL2        2 GROUP        1 Z    SEL  0     **** SEL Z 16
    11 LYL4        5 GROUP        1 Z    LYL  0     **** LYL Z 18
    12 GLL5       21 GROUP        1 Z    GLL  0     **** GLL Z 20
@<TRIPOS>SET

