#    Name: 2vuu_NAP_8_ligand
#    Modification time : Tue Mar 25 03:01:42 2014

@<TRIPOS>MOLECULE
2vuu_NAP_8_ligand
   73    77     1     0     0
SMALL
NO_CHARGES


@<TRIPOS>ATOM
      1 PA         33.0440  -41.8130  173.1250 P.3       1 NAP1353     0.0000 
      2 O1A        31.6790  -42.1620  173.5680 O.co2     1 NAP1353     0.0000 
      3 O2A        34.1000  -42.7230  173.5250 O.co2     1 NAP1353     0.0000 
      4 O5B        33.5390  -40.4130  173.7320 O.3       1 NAP1353     0.0000 
      5 C5B        32.7840  -39.2320  173.5710 C.3       1 NAP1353     0.0000 
      6 C4B        33.6940  -38.0420  173.0880 C.3       1 NAP1353     0.0000 
      7 O4B        33.2900  -36.6960  172.8270 O.3       1 NAP1353     0.0000 
      8 C3B        34.9400  -37.9550  173.9300 C.3       1 NAP1353     0.0000 
      9 O3B        36.0970  -38.2780  173.1380 O.3       1 NAP1353     0.0000 
     10 C2B        34.9650  -36.5400  174.4390 C.3       1 NAP1353     0.0000 
     11 O2B        36.3060  -36.0040  174.5690 O.3       1 NAP1353     0.0000 
     12 C1B        34.2160  -35.7740  173.4010 C.3       1 NAP1353     0.0000 
     13 N9A        33.4570  -34.5720  173.8930 N.pl3     1 NAP1353     0.0000 
     14 C8A        32.9250  -34.3000  175.1550 C.2       1 NAP1353     0.0000 
     15 N7A        32.3320  -33.1410  175.2190 N.2       1 NAP1353     0.0000 
     16 C5A        32.4610  -32.6120  173.9570 C.ar      1 NAP1353     0.0000 
     17 C6A        32.0480  -31.3920  173.3930 C.ar      1 NAP1353     0.0000 
     18 N6A        31.3810  -30.5030  174.0920 N.pl3     1 NAP1353     0.0000 
     19 N1A        32.3410  -31.1510  172.0750 N.ar      1 NAP1353     0.0000 
     20 C2A        33.0250  -32.0670  171.3540 C.ar      1 NAP1353     0.0000 
     21 N3A        33.4590  -33.2460  171.8080 N.ar      1 NAP1353     0.0000 
     22 C4A        33.1520  -33.4600  173.1430 C.ar      1 NAP1353     0.0000 
     23 O3         33.1410  -41.5440  171.5540 O.3       1 NAP1353     0.0000 
     24 PN         32.8850  -42.5940  170.4000 P.3       1 NAP1353     0.0000 
     25 O1N        32.2900  -43.8170  171.0010 O.co2     1 NAP1353     0.0000 
     26 O2N        34.1550  -42.8290  169.7110 O.co2     1 NAP1353     0.0000 
     27 O5D        31.8440  -41.8030  169.4680 O.3       1 NAP1353     0.0000 
     28 C5D        30.5550  -41.4210  169.8620 C.3       1 NAP1353     0.0000 
     29 C4D        29.5470  -41.9290  168.8740 C.3       1 NAP1353     0.0000 
     30 O4D        29.5430  -43.3860  168.9810 O.3       1 NAP1353     0.0000 
     31 C3D        28.1060  -41.5620  169.1570 C.3       1 NAP1353     0.0000 
     32 O3D        27.6290  -40.8380  168.0140 O.3       1 NAP1353     0.0000 
     33 C2D        27.3290  -42.9070  169.4210 C.3       1 NAP1353     0.0000 
     34 O2D        26.0030  -42.8130  168.9230 O.3       1 NAP1353     0.0000 
     35 C1D        28.2240  -43.8290  168.6490 C.3       1 NAP1353     0.0000 
     36 N1N        27.9650  -45.2560  169.0400 N.pl3     1 NAP1353     0.0000 
     37 C2N        28.0630  -45.7650  170.4120 C.ar      1 NAP1353     0.0000 
     38 C3N        27.7890  -47.1580  170.6760 C.ar      1 NAP1353     0.0000 
     39 C7N        27.8870  -47.7040  172.0910 C.2       1 NAP1353     0.0000 
     40 O7N        27.5370  -48.8440  172.3960 O.2       1 NAP1353     0.0000 
     41 N7N        28.4400  -46.8010  173.0380 N.am      1 NAP1353     0.0000 
     42 C4N        27.4210  -48.0260  169.5660 C.ar      1 NAP1353     0.0000 
     43 C5N        27.3240  -47.5310  168.2250 C.ar      1 NAP1353     0.0000 
     44 C6N        27.5910  -46.1490  167.9380 C.ar      1 NAP1353     0.0000 
     45 P2B        37.0820  -35.8610  175.9730 P.3       1 NAP1353     0.0000 
     46 O1X        37.0670  -37.1700  176.7000 O.co2     1 NAP1353     0.0000 
     47 O2X        38.4010  -35.4140  175.4780 O.co2     1 NAP1353     0.0000 
     48 O3X        36.3350  -34.7810  176.6610 O.co2     1 NAP1353     0.0000 
     49 H          32.3118  -38.8981  174.5061 H         1 NAP1353     0.0000 
     50 H          31.9880  -39.3350  172.8196 H         1 NAP1353     0.0000 
     51 H          34.1535  -38.4483  172.0707 H         1 NAP1353     0.0000 
     52 H          34.8206  -38.6173  174.7653 H         1 NAP1353     0.0000 
     53 H          34.4169  -36.4919  175.3537 H         1 NAP1353     0.0000 
     54 H          34.9182  -35.4572  172.6284 H         1 NAP1353     0.0000 
     55 H          33.0153  -34.9566  175.8986 H         1 NAP1353     0.0000 
     56 H          31.1575  -30.7601  175.0322 H         1 NAP1353     0.0000 
     57 H          31.1575  -29.6500  173.6203 H         1 NAP1353     0.0000 
     58 H          33.2359  -31.8185  170.3223 H         1 NAP1353     0.0000 
     59 H          30.4498  -40.3246  169.9221 H         1 NAP1353     0.0000 
     60 H          30.2908  -41.8229  170.8547 H         1 NAP1353     0.0000 
     61 H          29.8014  -41.6532  167.8835 H         1 NAP1353     0.0000 
     62 H          28.0788  -40.9835  170.0519 H         1 NAP1353     0.0000 
     63 H          27.4268  -43.1013  170.4472 H         1 NAP1353     0.0000 
     64 H          28.0241  -43.6869  167.6053 H         1 NAP1353     0.0000 
     65 H          28.3194  -45.1415  171.1552 H         1 NAP1353     0.0000 
     66 H          28.7280  -45.9120  172.6821 H         1 NAP1353     0.0000 
     67 H          28.4946  -47.1306  173.9805 H         1 NAP1353     0.0000 
     68 H          27.2291  -49.0115  169.7588 H         1 NAP1353     0.0000 
     69 H          27.0645  -48.1609  167.4701 H         1 NAP1353     0.0000 
     70 H          27.5267  -45.7887  167.0076 H         1 NAP1353     0.0000 
     71 H          36.6775  -37.4650  173.1843 H         1 NAP1353     0.0000 
     72 H          28.4517  -40.4783  167.5738 H         1 NAP1353     0.0000 
     73 H          26.0619  -42.1846  168.1473 H         1 NAP1353     0.0000 
@<TRIPOS>BOND
     1    2    1 ar   
     2    3    1 ar   
     3    4    1 1    
     4   23    1 1    
     5    5    4 1    
     6    6    5 1    
     7   49    5 1    
     8   50    5 1    
     9    7    6 1    
    10    8    6 1    
    11   51    6 1    
    12   12    7 1    
    13    9    8 1    
    14   10    8 1    
    15   52    8 1    
    16   71    9 1    
    17   11   10 1    
    18   12   10 1    
    19   53   10 1    
    20   45   11 1    
    21   13   12 1    
    22   54   12 1    
    23   14   13 1    
    24   22   13 1    
    25   15   14 2    
    26   55   14 1    
    27   16   15 1    
    28   17   16 ar   
    29   22   16 ar   
    30   18   17 1    
    31   19   17 ar   
    32   56   18 1    
    33   57   18 1    
    34   20   19 ar   
    35   21   20 ar   
    36   58   20 1    
    37   22   21 ar   
    38   24   23 1    
    39   25   24 ar   
    40   26   24 ar   
    41   27   24 1    
    42   28   27 1    
    43   29   28 1    
    44   59   28 1    
    45   60   28 1    
    46   30   29 1    
    47   31   29 1    
    48   61   29 1    
    49   35   30 1    
    50   32   31 1    
    51   33   31 1    
    52   62   31 1    
    53   72   32 1    
    54   34   33 1    
    55   35   33 1    
    56   63   33 1    
    57   73   34 1    
    58   36   35 1    
    59   64   35 1    
    60   37   36 ar   
    61   44   36 ar   
    62   38   37 ar   
    63   65   37 1    
    64   39   38 1    
    65   42   38 ar   
    66   40   39 2    
    67   41   39 am   
    68   66   41 1    
    69   67   41 1    
    70   43   42 ar   
    71   68   42 1    
    72   44   43 ar   
    73   69   43 1    
    74   70   44 1    
    75   46   45 ar   
    76   47   45 ar   
    77   48   45 ar   
@<TRIPOS>SUBSTRUCTURE
     1 NAP1353     1 GROUP   
@<TRIPOS>SET

