#    Name: 3qd0_3Q4_1_INTS_M
#    Modification time : Tue Mar 25 09:39:32 2014

@<TRIPOS>MOLECULE
3qd0_3Q4_1_INTS_M
   76     0     9     0     0
SMALL
NO_CHARGES


@<TRIPOS>ATOM
      1 CA        -43.4815   15.0505   13.9630 C.3       3 GLC5        0.0000 
      2 CA        -43.0190   15.0870   11.9110 C.3       9 GLL5        0.0000 
      3 CA        -43.9440   15.0140   16.0150 C.3       6 GLP5        0.0000 
      4 CA        -42.8975   13.4690   13.4010 C.3       3 GLC5        0.0000 
      5 CA        -42.7760   11.8510   14.8910 C.3       6 GLP5        0.0000 
      6 CA        -44.9695   14.2590   12.0880 C.3       3 GLC5        0.0000 
      7 CA        -46.9200   13.4310   12.2650 C.3       6 GLP5        0.0000 
      8 CA        -47.3065   18.5455   12.5405 C.3       3 GLC5        0.0000 
      9 CA        -45.7500   19.1170   11.6860 C.3       9 GLL5        0.0000 
     10 CA        -48.8630   17.9740   13.3950 C.3       6 GLP5        0.0000 
     11 CA        -45.8800   19.4980    9.5495 C.3       3 GLC5        0.0000 
     12 CA        -46.0100   19.8790    7.4130 C.3       6 GLP5        0.0000 
     13 CA        -39.9440   13.7410   14.9485 C.3       3 GLC5        0.0000 
     14 CA        -39.7370   14.0810   12.9550 C.3       9 GLL5        0.0000 
     15 CA        -40.1510   13.4010   16.9420 C.3       6 GLP5        0.0000 
     16 CA        -39.0150   12.3860   13.9420 C.3       3 GLC5        0.0000 
     17 CA        -38.2930   10.6910   14.9290 C.3       6 GLP5        0.0000 
     18 CA        -38.7700   13.0515   11.2670 C.3       3 GLC5        0.0000 
     19 CA        -37.8030   12.0220    9.5790 C.3       6 GLP5        0.0000 
     20 CA        -47.6420   17.5430   12.0800 C.3       3 GLC5        0.0000 
     21 CA        -46.4210   17.1120   10.7650 C.3       9 GLL5        0.0000 
     22 CA        -46.6705   15.2715   11.5150 C.3       3 GLC5        0.0000 
     23 CA        -44.8030   17.1080    9.4180 C.3       3 GLC5        0.0000 
     24 CA        -43.1850   17.1040    8.0710 C.3       6 GLP5        0.0000 
     25 CA        -46.7210   17.9170    9.0435 C.3       3 GLC5        0.0000 
     26 CA        -47.0210   18.7220    7.3220 C.3       6 GLP5        0.0000 
     27 CA        -48.0920   19.5130   12.6135 C.3       3 GLC5        0.0000 
     28 CA        -47.3210   21.0520   11.8320 C.3       9 GLL5        0.0000 
     29 CA        -44.6570   21.9315   16.0340 C.3       3 GLC5        0.0000 
     30 CA        -45.5760   20.9800   14.4180 C.3       9 GLL5        0.0000 
     31 CA        -43.7380   22.8830   17.6500 C.3       6 GLP5        0.0000 
     32 CA        -46.0115   22.9910   15.2760 C.3       3 GLC5        0.0000 
     33 CA        -46.4470   25.0020   16.1340 C.3       6 GLP5        0.0000 
     34 CA        -45.4760   19.0095   14.9005 C.3       3 GLC5        0.0000 
     35 CA        -45.3760   17.0390   15.3830 C.3       6 GLP5        0.0000 
     36 N         -45.1045   15.9305    9.7990 N.am      2 SEC2        0.0000 
     37 N         -45.2770   16.4850   11.1050 N.am      8 SEL2        0.0000 
     38 N         -44.9320   15.3760    8.4930 N.am      5 SEP2        0.0000 
     39 N         -48.0680   18.4140   11.5540 N.am      2 SEC2        0.0000 
     40 N         -46.6810   18.4020   11.0390 N.am      8 SEL2        0.0000 
     41 N         -49.4550   18.4260   12.0690 N.am      5 SEP2        0.0000 
     42 O         -37.3975   13.4580   12.7085 O.2       1 ALC1        0.0000 
     43 O         -38.4790   14.2720   13.4660 O.2       7 ALL1        0.0000 
     44 O         -36.3160   12.6440   11.9510 O.2       4 ALP1        0.0000 
     45 O         -48.6425   16.9450    9.5810 O.2       1 ALC1        0.0000 
     46 O         -47.4170   16.3900   10.0880 O.2       7 ALL1        0.0000 
     47 O         -49.8680   17.5000    9.0740 O.2       4 ALP1        0.0000 
     48 O         -48.4295   22.3210    9.0785 O.2       1 ALC1        0.0000 
     49 O         -49.0260   23.2960    9.9890 O.2       7 ALL1        0.0000 
     50 O         -47.8330   21.3460    8.1680 O.2       4 ALP1        0.0000 
     51 CA        -54.2580   23.4223    8.8350 C.3       3 GLC5        0.0000 
     52 CA        -52.2490   23.8000    8.3290 C.3       9 GLL5        0.0000 
     53 CA        -55.9640   22.5880    8.9210 C.3       6 GLP5        0.0000 
     54 CA        -52.1720   22.0040    7.6755 C.3       3 GLC5        0.0000 
     55 CA        -52.7300   20.4400    6.8810 C.3       6 GLP5        0.0000 
     56 CA        -51.4855   24.1275    6.6845 C.3       3 GLC5        0.0000 
     57 CA        -51.3570   24.6870    4.8990 C.3       6 GLP5        0.0000 
     58 CA        -40.3412   15.8475   14.9590 C.3       3 GLC5        0.0000 
     59 CA        -40.8020   16.4820   13.0440 C.3       9 GLL5        0.0000 
     60 CA        -39.9220   15.9000   16.9970 C.3       6 GLP5        0.0000 
     61 CA        -40.7425   16.0663   11.1460 C.3       3 GLC5        0.0000 
     62 CA        -40.0840   15.3460    9.4180 C.3       6 GLP5        0.0000 
     63 CA        -43.9633   16.9053   13.9028 C.3       3 GLC5        0.0000 
     64 CA        -42.0000   17.0910   12.7040 C.3       9 GLL5        0.0000 
     65 CA        -41.5720   15.5578   10.7220 C.3       3 GLC5        0.0000 
     66 CA        -43.1010   16.4520   12.1410 C.3       9 GLL5        0.0000 
     67 CA        -43.1225   16.4367   10.0485 C.3       3 GLC5        0.0000 
     68 CA        -43.8128   17.4782    9.9875 C.3       3 GLC5        0.0000 
     69 CA        -44.5490   18.5190   12.0560 C.3       9 GLL5        0.0000 
     70 CA        -41.5020   13.2228   13.8837 C.3       3 GLC5        0.0000 
     71 CA        -40.7190   15.1080   12.7980 C.3       9 GLL5        0.0000 
     72 CA        -40.1560   14.9703   11.1472 C.3       3 GLC5        0.0000 
     73 CA        -45.2356   17.7619   13.5890 C.3       3 GLC5        0.0000 
     74 CA        -44.3320   17.1860   11.7520 C.3       9 GLL5        0.0000 
     75 CA        -46.0568   23.9662   14.3245 C.3       3 GLC5        0.0000 
     76 CA        -44.9820   22.6120   12.6350 C.3       9 GLL5        0.0000 
@<TRIPOS>BOND
@<TRIPOS>SUBSTRUCTURE
     1 ALC1       42 GROUP        1 X    ALC  0     ROOT ALC X 1
     2 SEC2       36 GROUP        1 X    SEC  0     **** SEC X 2
     3 GLC5        1 GROUP        1 X    GLC  0     **** GLC X 6
     4 ALP1       44 GROUP        1 Y    ALP  0     ROOT ALP Y 8
     5 SEP2       38 GROUP        1 Y    SEP  0     **** SEP Y 9
     6 GLP5        3 GROUP        1 Y    GLP  0     **** GLP Y 13
     7 ALL1       43 GROUP        1 Z    ALL  0     ROOT ALL Z 15
     8 SEL2       37 GROUP        1 Z    SEL  0     **** SEL Z 16
     9 GLL5        2 GROUP        1 Z    GLL  0     **** GLL Z 20
@<TRIPOS>SET

