#    Name: 3qd0_3Q4_1_ligand
#    Modification time : Tue Mar 25 09:39:32 2014

@<TRIPOS>MOLECULE
3qd0_3Q4_1_ligand
   59    63     1     0     0
SMALL
NO_CHARGES


@<TRIPOS>ATOM
      1 C1        -52.8550   24.7130    9.1690 C.ar      1 3Q4370      0.0000 
      2 C2        -52.2490   23.8000    8.3290 C.ar      1 3Q4370      0.0000 
      3 C3        -52.1820   25.1640   10.2880 C.ar      1 3Q4370      0.0000 
      4 C4        -40.8020   16.4820   13.0440 C.ar      1 3Q4370      0.0000 
      5 C5        -42.0000   17.0910   12.7040 C.ar      1 3Q4370      0.0000 
      6 C6        -50.9790   23.3360    8.6110 C.ar      1 3Q4370      0.0000 
      7 C7        -50.9130   24.7030   10.5740 C.ar      1 3Q4370      0.0000 
      8 C8        -43.0190   15.0870   11.9110 C.ar      1 3Q4370      0.0000 
      9 C9        -44.5490   18.5190   12.0560 C.ar      1 3Q4370      0.0000 
     10 C10       -40.7190   15.1080   12.7980 C.ar      1 3Q4370      0.0000 
     11 C11       -43.1010   16.4520   12.1410 C.ar      1 3Q4370      0.0000 
     12 C12       -41.8260   14.4760   12.2570 C.ar      1 3Q4370      0.0000 
     13 C13       -50.3160   23.7840    9.7340 C.ar      1 3Q4370      0.0000 
     14 C14       -44.3320   17.1860   11.7520 C.ar      1 3Q4370      0.0000 
     15 C15       -45.7500   19.1170   11.6860 C.ar      1 3Q4370      0.0000 
     16 C16       -39.7370   14.0810   12.9550 C.2       1 3Q4370      0.0000 
     17 C17       -46.4210   17.1120   10.7650 C.ar      1 3Q4370      0.0000 
     18 C18       -48.5250   23.1180   11.2570 C.2       1 3Q4370      0.0000 
     19 C19       -46.3510   23.2490   12.3950 C.3       1 3Q4370      0.0000 
     20 C20       -44.9820   22.6120   12.6350 C.3       1 3Q4370      0.0000 
     21 C21       -47.3210   21.0520   11.8320 C.3       1 3Q4370      0.0000 
     22 C22       -47.1510   22.4810   11.3360 C.3       1 3Q4370      0.0000 
     23 C23       -45.0930   21.1290   12.9980 C.3       1 3Q4370      0.0000 
     24 C24       -45.5760   20.9800   14.4180 C.3       1 3Q4370      0.0000 
     25 N25       -45.2770   16.4850   11.1050 N.ar      1 3Q4370      0.0000 
     26 N26       -46.6810   18.4020   11.0390 N.ar      1 3Q4370      0.0000 
     27 N27       -40.2110   12.8990   12.5270 N.pl3     1 3Q4370      0.0000 
     28 N28       -41.4590   13.1680   12.1200 N.2       1 3Q4370      0.0000 
     29 N29       -45.9620   20.5170   11.9760 N.3       1 3Q4370      0.0000 
     30 N30       -38.4790   14.2720   13.4660 N.pl3     1 3Q4370      0.0000 
     31 N31       -47.4170   16.3900   10.0880 N.pl3     1 3Q4370      0.0000 
     32 N32       -49.0260   23.2960    9.9890 N.am      1 3Q4370      0.0000 
     33 O33       -49.1330   23.4090   12.2650 O.2       1 3Q4370      0.0000 
     34 H         -53.8031   25.0560    8.9629 H         1 3Q4370      0.0000 
     35 H         -52.7456   23.4636    7.4890 H         1 3Q4370      0.0000 
     36 H         -52.6329   25.8520   10.9155 H         1 3Q4370      0.0000 
     37 H         -40.0380   16.9906   13.4424 H         1 3Q4370      0.0000 
     38 H         -42.0879   18.1392   12.8888 H         1 3Q4370      0.0000 
     39 H         -50.5277   22.6549    7.9814 H         1 3Q4370      0.0000 
     40 H         -50.4146   25.0418   11.4078 H         1 3Q4370      0.0000 
     41 H         -43.7844   14.5706   11.5147 H         1 3Q4370      0.0000 
     42 H         -43.8341   19.0633   12.5488 H         1 3Q4370      0.0000 
     43 H         -46.2152   24.2789   12.0617 H         1 3Q4370      0.0000 
     44 H         -46.9130   23.2570   13.3300 H         1 3Q4370      0.0000 
     45 H         -44.4770   23.1421   13.4475 H         1 3Q4370      0.0000 
     46 H         -44.3751   22.7143   11.7309 H         1 3Q4370      0.0000 
     47 H         -47.8815   20.4947   11.1027 H         1 3Q4370      0.0000 
     48 H         -47.8324   21.0703   12.7779 H         1 3Q4370      0.0000 
     49 H         -46.6690   22.5074   10.4225 H         1 3Q4370      0.0000 
     50 H         -44.0877   20.7158   12.9124 H         1 3Q4370      0.0000 
     51 H         -39.7641   12.0680   12.5163 H         1 3Q4370      0.0000 
     52 H         -38.4325   14.6415   14.3941 H         1 3Q4370      0.0000 
     53 H         -37.7181   14.0250   12.8659 H         1 3Q4370      0.0000 
     54 H         -47.2366   15.4164    9.9483 H         1 3Q4370      0.0000 
     55 H         -48.2216   16.9111    9.8034 H         1 3Q4370      0.0000 
     56 H         -48.4212   23.0579    9.1623 H         1 3Q4370      0.0000 
     57 H         -45.6598   20.0194   14.6829 H         1 3Q4370      0.0000 
     58 H         -44.9515   21.4104   15.0698 H         1 3Q4370      0.0000 
     59 H         -46.4737   21.4001   14.5510 H         1 3Q4370      0.0000 
@<TRIPOS>BOND
     1    2    1 ar   
     2    3    1 ar   
     3   34    1 1    
     4    6    2 ar   
     5   35    2 1    
     6    7    3 ar   
     7   36    3 1    
     8    5    4 ar   
     9   10    4 ar   
    10   37    4 1    
    11   11    5 ar   
    12   38    5 1    
    13   13    6 ar   
    14   39    6 1    
    15   13    7 ar   
    16   40    7 1    
    17   11    8 ar   
    18   12    8 ar   
    19   41    8 1    
    20   14    9 ar   
    21   15    9 ar   
    22   42    9 1    
    23   12   10 ar   
    24   16   10 2    
    25   14   11 1    
    26   28   12 2    
    27   32   13 1    
    28   25   14 ar   
    29   26   15 ar   
    30   29   15 1    
    31   27   16 1    
    32   30   16 1    
    33   25   17 ar   
    34   26   17 ar   
    35   31   17 1    
    36   22   18 1    
    37   32   18 am   
    38   33   18 2    
    39   20   19 1    
    40   22   19 1    
    41   43   19 1    
    42   44   19 1    
    43   23   20 1    
    44   45   20 1    
    45   46   20 1    
    46   22   21 1    
    47   29   21 1    
    48   47   21 1    
    49   48   21 1    
    50   49   22 1    
    51   24   23 1    
    52   29   23 1    
    53   50   23 1    
    54   57   24 1    
    55   58   24 1    
    56   59   24 1    
    57   28   27 1    
    58   51   27 1    
    59   52   30 1    
    60   53   30 1    
    61   54   31 1    
    62   55   31 1    
    63   56   32 1    
@<TRIPOS>SUBSTRUCTURE
     1 3Q4370      1 GROUP   
@<TRIPOS>SET

