#    Name: 1M6E_1_CAVITY_N1_6.mol2
#    Modification time : Mon Mar 10 15:42:32 2014

@<TRIPOS>MOLECULE
1M6E_1_CAVITY_N1_6.mol2
   33     0     4     0     0
SMALL
NO_CHARGES


@<TRIPOS>ATOM
      1 OG         50.6845   30.8932   35.1428 O.2       1 SER1        0.0000 
      2 N          49.8869   30.4740   33.9436 N.2       2 ALA2        0.0000 
      3 CA         52.4811   30.5247   34.0766 C.3       4 GLY6        0.0000 
      4 CA         51.5845   29.7073   34.9587 C.3       4 GLY6        0.0000 
      5 N          50.6879   28.8900   35.8407 N.2       2 ALA2        0.0000 
      6 OG         51.6834   30.1056   32.8774 O.2       1 SER1        0.0000 
      7 N          50.7868   29.2882   33.7595 N.2       2 ALA2        0.0000 
      8 CA         50.8857   29.6864   31.6782 C.3       4 GLY6        0.0000 
      9 N          49.9892   28.8690   32.5603 N.2       2 ALA2        0.0000 
     10 CA         50.0881   29.2673   30.4790 C.3       4 GLY6        0.0000 
     11 N          49.1915   28.4499   31.3611 N.2       2 ALA2        0.0000 
     12 CA         48.3938   28.0307   30.1619 C.3       4 GLY6        0.0000 
     13 OG         53.3810   29.3389   33.8925 O.2       1 SER1        0.0000 
     14 N          52.4844   28.5215   34.7745 N.2       2 ALA2        0.0000 
     15 OG         51.6868   28.1023   33.5753 O.2       1 SER1        0.0000 
     16 N          50.7902   27.2850   34.4574 N.2       2 ALA2        0.0000 
     17 N          50.8891   27.6832   32.3762 N.2       2 ALA2        0.0000 
     18 N          49.9925   26.8658   33.2582 N.2       2 ALA2        0.0000 
     19 OG         50.9880   28.0814   30.2949 O.2       1 SER1        0.0000 
     20 N          50.0914   27.2640   31.1770 N.2       2 ALA2        0.0000 
     21 N          49.1949   26.4467   32.0590 N.2       2 ALA2        0.0000 
     22 CA         49.2938   26.8449   29.9778 C.3       4 GLY6        0.0000 
     23 NZ         48.3972   26.0275   30.8599 N.2       3 LYS4        0.0000 
     24 CA         52.5867   26.9165   33.3912 C.3       4 GLY6        0.0000 
     25 OG         52.6856   27.3147   31.3100 O.2       1 SER1        0.0000 
     26 CA         51.7890   26.4974   32.1920 C.3       4 GLY6        0.0000 
     27 CA         51.8879   26.8956   30.1108 C.3       4 GLY6        0.0000 
     28 CA         50.9914   26.0782   30.9928 C.3       4 GLY6        0.0000 
     29 N          50.0948   25.2608   31.8749 N.2       2 ALA2        0.0000 
     30 CA         50.1937   25.6591   29.7937 C.3       4 GLY6        0.0000 
     31 CA         49.2971   24.8417   30.6757 C.3       4 GLY6        0.0000 
     32 CA         52.6890   25.3115   32.0079 C.3       4 GLY6        0.0000 
     33 CA         51.8913   24.8924   30.8087 C.3       4 GLY6        0.0000 
@<TRIPOS>BOND
@<TRIPOS>SUBSTRUCTURE
     1 SER1        1 GROUP   
     2 ALA2        2 GROUP   
     3 LYS4       23 GROUP   
     4 GLY6        3 GROUP   
@<TRIPOS>SET

