#    Name: 1m6e_SAH_1_INTS_M
#    Modification time : Tue Mar 25 11:25:08 2014

@<TRIPOS>MOLECULE
1m6e_SAH_1_INTS_M
   62     0     9     0     0
SMALL
NO_CHARGES


@<TRIPOS>ATOM
      1 O          48.5780   27.3970   32.9845 O.2       1 ALC1        0.0000 
      2 O          49.3180   26.6930   31.8480 O.2       7 ALL1        0.0000 
      3 O          47.8380   28.1010   34.1210 O.2       4 ALP1        0.0000 
      4 CA         50.4345   27.8820   29.0520 C.3       3 GLC5        0.0000 
      5 CA         50.4400   27.4570   31.1300 C.3       9 GLL5        0.0000 
      6 CA         50.4290   28.3070   26.9740 C.3       6 GLP5        0.0000 
      7 CA         52.5870   29.6600   31.6460 C.3       3 GLC5        0.0000 
      8 CA         51.3160   28.3120   32.0660 C.3       9 GLL5        0.0000 
      9 CA         53.8580   31.0080   31.2260 C.3       6 GLP5        0.0000 
     10 CA         52.9155   30.1455   32.9400 C.3       3 GLC5        0.0000 
     11 CA         51.9730   29.2830   34.6540 C.3       9 GLL5        0.0000 
     12 CA         51.6770   28.3890   38.0355 C.3       3 GLC5        0.0000 
     13 CA         50.9700   28.9640   36.0660 C.3       9 GLL5        0.0000 
     14 CA         52.3840   27.8140   40.0050 C.3       6 GLP5        0.0000 
     15 CA         47.9180   29.0380   36.0570 C.3       3 GLC5        0.0000 
     16 CA         49.7430   29.9400   36.3490 C.3       9 GLL5        0.0000 
     17 CA         46.0930   28.1360   35.7650 C.3       6 GLP5        0.0000 
     18 N          50.0000   32.6685   34.3495 N.am      2 SEC2        0.0000 
     19 N          49.7360   32.4670   35.9000 N.am      8 SEL2        0.0000 
     20 N          50.2640   32.8700   32.7990 N.am      5 SEP2        0.0000 
     21 O          48.3585   32.2035   35.7385 O.2       1 ALC1        0.0000 
     22 O          49.7360   32.4670   35.9000 O.2       7 ALL1        0.0000 
     23 O          46.9810   31.9400   35.5770 O.2       4 ALP1        0.0000 
     24 O          47.7230   32.9850   37.9100 O.2       1 ALC1        0.0000 
     25 O          48.9100   32.7630   38.4890 O.2       7 ALL1        0.0000 
     26 O          46.5360   33.2070   37.3310 O.2       4 ALP1        0.0000 
     27 CA         47.3060   29.1910   36.9605 C.3       3 GLC5        0.0000 
     28 CA         48.5190   30.2460   38.1560 C.3       9 GLL5        0.0000 
     29 CA         48.7355   28.0840   37.5860 C.3       3 GLC5        0.0000 
     30 CA         48.9520   25.9220   37.0160 C.3       6 GLP5        0.0000 
     31 N          49.4020   30.6590   41.9850 N.am      2 SEC2        0.0000 
     32 N          48.2400   29.4070   41.7020 N.am      8 SEL2        0.0000 
     33 N          50.5640   31.9110   42.2680 N.am      5 SEP2        0.0000 
     34 CA         45.2770   30.9410   42.1390 C.3       3 GLC5        0.0000 
     35 CA         45.7020   29.2170   41.8890 C.3       9 GLL5        0.0000 
     36 CA         44.8520   32.6650   42.3890 C.3       6 GLP5        0.0000 
     37 CA         43.8815   29.7405   42.4625 C.3       3 GLC5        0.0000 
     38 CA         42.0610   30.2640   43.0360 C.3       6 GLP5        0.0000 
     39 O          44.5475   29.1405   43.9870 O.2       1 ALC1        0.0000 
     40 O          45.6530   28.9400   43.1920 O.2       7 ALL1        0.0000 
     41 O          43.4420   29.3410   44.7820 O.2       4 ALP1        0.0000 
     42 N          43.2960   28.6370   41.7205 N.am      2 SEC2        0.0000 
     43 N          44.5160   29.2960   41.1700 N.am      8 SEL2        0.0000 
     44 N          42.0760   27.9780   42.2710 N.am      5 SEP2        0.0000 
     45 CA         44.2140   30.8690   38.3455 C.3       3 GLC5        0.0000 
     46 CA         44.5880   29.5870   39.8310 C.3       9 GLL5        0.0000 
     47 CA         43.8400   32.1510   36.8600 C.3       6 GLP5        0.0000 
     48 CA         44.7200   31.1260   41.1100 C.3       3 GLC5        0.0000 
     49 CA         43.3245   29.9255   41.4335 C.3       3 GLC5        0.0000 
     50 CA         43.3585   27.7815   40.3055 C.3       3 GLC5        0.0000 
     51 CA         42.1290   25.9760   40.7800 C.3       6 GLP5        0.0000 
     52 CA         46.4840   28.9275   37.8300 C.3       3 GLC5        0.0000 
     53 CA         46.8750   29.7190   39.8950 C.3       9 GLL5        0.0000 
     54 CA         50.4100   30.2132   32.2668 C.3       3 GLC5        0.0000 
     55 CA         50.9460   28.3210   33.4890 C.3       9 GLL5        0.0000 
     56 CA         49.6890   32.1100   31.7560 C.3       6 GLP5        0.0000 
     57 CA         52.6917   30.3722   35.9460 C.3       3 GLC5        0.0000 
     58 CA         53.9120   31.6210   36.5320 C.3       6 GLP5        0.0000 
     59 CA         49.6542   27.6870   36.6118 C.3       3 GLC5        0.0000 
     60 CA         51.9370   31.1352   36.5720 C.3       3 GLC5        0.0000 
     61 CA         46.4600   31.2743   41.0267 C.3       3 GLC5        0.0000 
     62 CA         46.0110   32.9750   41.4830 C.3       6 GLP5        0.0000 
@<TRIPOS>BOND
@<TRIPOS>SUBSTRUCTURE
     1 ALC1        1 GROUP        1 X    ALC  0     ROOT ALC X 1
     2 SEC2       18 GROUP        1 X    SEC  0     **** SEC X 2
     3 GLC5        4 GROUP        1 X    GLC  0     **** GLC X 6
     4 ALP1        3 GROUP        1 Y    ALP  0     ROOT ALP Y 8
     5 SEP2       20 GROUP        1 Y    SEP  0     **** SEP Y 9
     6 GLP5        6 GROUP        1 Y    GLP  0     **** GLP Y 13
     7 ALL1        2 GROUP        1 Z    ALL  0     ROOT ALL Z 15
     8 SEL2       19 GROUP        1 Z    SEL  0     **** SEL Z 16
     9 GLL5        5 GROUP        1 Z    GLL  0     **** GLL Z 20
@<TRIPOS>SET

