#    Name: 1m6e_SAH_1_ligand
#    Modification time : Tue Mar 25 11:25:08 2014

@<TRIPOS>MOLECULE
1m6e_SAH_1_ligand
   46    48     1     0     0
SMALL
NO_CHARGES


@<TRIPOS>ATOM
      1 N          49.3180   26.6930   31.8480 N.4       1 SAH2814     0.0000 
      2 CA         50.4400   27.4570   31.1300 C.3       1 SAH2814     0.0000 
      3 CB         51.3160   28.3120   32.0660 C.3       1 SAH2814     0.0000 
      4 CG         50.9460   28.3210   33.4890 C.3       1 SAH2814     0.0000 
      5 SD         51.9730   29.2830   34.6540 S.3       1 SAH2814     0.0000 
      6 C          51.4490   26.5570   30.4180 C.2       1 SAH2814     0.0000 
      7 O          51.3250   25.2970   30.4710 O.co2     1 SAH2814     0.0000 
      8 OXT        52.3860   27.2130   29.7970 O.co2     1 SAH2814     0.0000 
      9 C5'        50.9700   28.9640   36.0660 C.3       1 SAH2814     0.0000 
     10 C4'        49.7430   29.9400   36.3490 C.3       1 SAH2814     0.0000 
     11 O4'        49.1730   29.3190   37.5450 O.3       1 SAH2814     0.0000 
     12 C3'        50.1810   31.3590   36.8750 C.3       1 SAH2814     0.0000 
     13 O3'        49.7360   32.4670   35.9000 O.3       1 SAH2814     0.0000 
     14 C2'        49.4670   31.5410   38.1390 C.3       1 SAH2814     0.0000 
     15 O2'        48.9100   32.7630   38.4890 O.3       1 SAH2814     0.0000 
     16 C1'        48.5190   30.2460   38.1560 C.3       1 SAH2814     0.0000 
     17 N9         48.1530   29.8920   39.5090 N.pl3     1 SAH2814     0.0000 
     18 C8         48.9250   29.6870   40.6320 C.2       1 SAH2814     0.0000 
     19 N7         48.2400   29.4070   41.7020 N.2       1 SAH2814     0.0000 
     20 C5         46.9430   29.4280   41.2460 C.ar      1 SAH2814     0.0000 
     21 C6         45.7020   29.2170   41.8890 C.ar      1 SAH2814     0.0000 
     22 N6         45.6530   28.9400   43.1920 N.pl3     1 SAH2814     0.0000 
     23 N1         44.5160   29.2960   41.1700 N.ar      1 SAH2814     0.0000 
     24 C2         44.5880   29.5870   39.8310 C.ar      1 SAH2814     0.0000 
     25 N3         45.7290   29.8140   39.1220 N.ar      1 SAH2814     0.0000 
     26 C4         46.8750   29.7190   39.8950 C.ar      1 SAH2814     0.0000 
     27 H          50.0206   28.1271   30.3863 H         1 SAH2814     0.0000 
     28 H          51.3156   29.3560   31.6620 H         1 SAH2814     0.0000 
     29 H          52.3727   27.9624   31.9456 H         1 SAH2814     0.0000 
     30 H          50.9652   27.3240   33.9718 H         1 SAH2814     0.0000 
     31 H          49.9443   28.7461   33.6973 H         1 SAH2814     0.0000 
     32 H          51.6725   28.9754   36.9024 H         1 SAH2814     0.0000 
     33 H          50.6218   27.9388   35.9218 H         1 SAH2814     0.0000 
     34 H          49.1110   29.9794   35.5842 H         1 SAH2814     0.0000 
     35 H          51.2151   31.3683   37.0049 H         1 SAH2814     0.0000 
     36 H          50.2521   31.2131   38.9425 H         1 SAH2814     0.0000 
     37 H          47.6241   30.5838   37.6086 H         1 SAH2814     0.0000 
     38 H          49.9279   29.7568   40.5870 H         1 SAH2814     0.0000 
     39 H          44.7401   28.8224   43.5828 H         1 SAH2814     0.0000 
     40 H          46.5336   28.8747   43.6614 H         1 SAH2814     0.0000 
     41 H          43.6548   29.6400   39.2946 H         1 SAH2814     0.0000 
     42 H          48.9965   27.1812   32.6594 H         1 SAH2814     0.0000 
     43 H          48.5244   26.5549   31.2553 H         1 SAH2814     0.0000 
     44 H          49.6189   25.7886   32.1502 H         1 SAH2814     0.0000 
     45 H          48.7573   32.3138   35.7636 H         1 SAH2814     0.0000 
     46 H          48.0351   32.7963   38.0059 H         1 SAH2814     0.0000 
@<TRIPOS>BOND
     1    2    1 1    
     2   42    1 1    
     3   43    1 1    
     4   44    1 1    
     5    3    2 1    
     6    6    2 1    
     7   27    2 1    
     8    4    3 1    
     9   28    3 1    
    10   29    3 1    
    11    5    4 1    
    12   30    4 1    
    13   31    4 1    
    14    9    5 1    
    15    7    6 ar   
    16    8    6 ar   
    17   10    9 1    
    18   32    9 1    
    19   33    9 1    
    20   11   10 1    
    21   12   10 1    
    22   34   10 1    
    23   16   11 1    
    24   13   12 1    
    25   14   12 1    
    26   35   12 1    
    27   45   13 1    
    28   15   14 1    
    29   16   14 1    
    30   36   14 1    
    31   46   15 1    
    32   17   16 1    
    33   37   16 1    
    34   18   17 1    
    35   26   17 1    
    36   19   18 2    
    37   38   18 1    
    38   20   19 1    
    39   21   20 ar   
    40   26   20 ar   
    41   22   21 1    
    42   23   21 ar   
    43   39   22 1    
    44   40   22 1    
    45   24   23 ar   
    46   25   24 ar   
    47   41   24 1    
    48   26   25 ar   
@<TRIPOS>SUBSTRUCTURE
     1 SAH2814     1 GROUP   
@<TRIPOS>SET

