#    Name: 3gn2_AX8_3_INTS_M
#    Modification time : Tue Mar 25 12:41:33 2014

@<TRIPOS>MOLECULE
3gn2_AX8_3_INTS_M
   46     0     6     0     0
SMALL
NO_CHARGES


@<TRIPOS>ATOM
      1 CA         -5.4875   20.8030   28.5705 C.3       2 GLC5        0.0000 
      2 CA         -5.5390   21.6410   26.6450 C.3       6 GLL5        0.0000 
      3 CA         -5.4360   19.9650   30.4960 C.3       4 GLP5        0.0000 
      4 CA         -4.4175   22.7545   25.8155 C.3       2 GLC5        0.0000 
      5 CA         -3.2960   23.8680   24.9860 C.3       4 GLP5        0.0000 
      6 CA         -7.1545   22.5295   25.6785 C.3       2 GLC5        0.0000 
      7 CA         -8.7700   23.4180   24.7120 C.3       4 GLP5        0.0000 
      8 CA         -6.3420   19.8930   26.7290 C.3       2 GLC5        0.0000 
      9 CA         -7.1450   18.1450   26.8130 C.3       4 GLP5        0.0000 
     10 CA         -4.1750   20.0025   22.0820 C.3       2 GLC5        0.0000 
     11 CA         -5.1920   20.7250   23.6160 C.3       6 GLL5        0.0000 
     12 CA         -3.1580   19.2800   20.5480 C.3       4 GLP5        0.0000 
     13 CA         -6.8625   20.8950   22.4780 C.3       2 GLC5        0.0000 
     14 CA         -8.5330   21.0650   21.3400 C.3       4 GLP5        0.0000 
     15 CA         -3.9580   22.2030   23.6720 C.3       2 GLC5        0.0000 
     16 CA         -2.7240   23.6810   23.7280 C.3       4 GLP5        0.0000 
     17 CA         -5.9660   22.4200   23.4855 C.3       2 GLC5        0.0000 
     18 CA         -6.7400   24.1150   23.3550 C.3       4 GLP5        0.0000 
     19 CA         -6.9420   20.0980   24.4800 C.3       2 GLC5        0.0000 
     20 CA         -8.6920   19.4710   25.3440 C.3       4 GLP5        0.0000 
     21 CA         -3.1855   19.2080   22.5505 C.3       2 GLC5        0.0000 
     22 CA         -3.2130   19.1360   24.5530 C.3       6 GLL5        0.0000 
     23 CA         -4.4425   17.6815   23.8145 C.3       2 GLC5        0.0000 
     24 CA         -5.6720   16.2270   23.0760 C.3       4 GLP5        0.0000 
     25 CA         -3.4585   16.9145   25.4775 C.3       2 GLC5        0.0000 
     26 CA         -2.3960   18.6040   25.5600 C.3       6 GLL5        0.0000 
     27 CA         -4.5210   15.2250   25.3950 C.3       4 GLP5        0.0000 
     28 CA          2.5820   17.9605   24.1430 C.3       2 GLC5        0.0000 
     29 CA          2.9000   17.2840   25.7750 C.3       6 GLL5        0.0000 
     30 CA          2.2640   18.6370   22.5110 C.3       4 GLP5        0.0000 
     31 CA          4.5065   16.8620   24.6735 C.3       2 GLC5        0.0000 
     32 CA          6.1130   16.4400   23.5720 C.3       4 GLP5        0.0000 
     33 O          -2.1685   14.1855   27.7150 O.2       1 ALC1        0.0000 
     34 O          -2.2250   15.5540   27.9510 O.2       5 ALL1        0.0000 
     35 O          -2.1120   12.8170   27.4790 O.2       3 ALP1        0.0000 
     36 O          -3.1665   16.0760   28.8400 O.2       1 ALC1        0.0000 
     37 O          -4.1080   16.5980   29.7290 O.2       3 ALP1        0.0000 
     38 CA         -4.6822   20.0907   28.6017 C.3       2 GLC5        0.0000 
     39 CA         -3.5230   19.9530   27.2100 C.3       6 GLL5        0.0000 
     40 CA         -5.5994   19.1469   26.3029 C.3       2 GLC5        0.0000 
     41 CA         -1.0637   18.9210   24.1612 C.3       2 GLC5        0.0000 
     42 CA          0.6770   18.9720   23.2660 C.3       4 GLP5        0.0000 
     43 CA          1.1576   18.6610   24.8829 C.3       2 GLC5        0.0000 
     44 CA          2.4650   18.5580   26.1440 C.3       6 GLL5        0.0000 
     45 CA          1.0820   17.6010   24.7855 C.3       2 GLC5        0.0000 
     46 CA          2.1100   16.1580   26.0020 C.3       6 GLL5        0.0000 
@<TRIPOS>BOND
@<TRIPOS>SUBSTRUCTURE
     1 ALC1       33 GROUP        1 X    ALC  0     ROOT ALC X 1
     2 GLC5        1 GROUP        1 X    GLC  0     **** GLC X 6
     3 ALP1       35 GROUP        1 Y    ALP  0     ROOT ALP Y 8
     4 GLP5        3 GROUP        1 Y    GLP  0     **** GLP Y 13
     5 ALL1       34 GROUP        1 Z    ALL  0     ROOT ALL Z 15
     6 GLL5        2 GROUP        1 Z    GLL  0     **** GLL Z 20
@<TRIPOS>SET

