#    Name: 3gn2_AX8_3_ligand
#    Modification time : Tue Mar 25 12:41:33 2014

@<TRIPOS>MOLECULE
3gn2_AX8_3_ligand
   30    32     1     0     0
SMALL
NO_CHARGES


@<TRIPOS>ATOM
      1 CAJ        -3.5230   19.9530   27.2100 C.ar      1 AX8270      0.0000 
      2 CAO        -4.3340   20.4800   26.2050 C.ar      1 AX8270      0.0000 
      3 CLAC       -5.5390   21.6410   26.6450 Cl        1 AX8270      0.0000 
      4 CAN        -4.1790   20.0810   24.8780 C.ar      1 AX8270      0.0000 
      5 CLAB       -5.1920   20.7250   23.6160 Cl        1 AX8270      0.0000 
      6 CAG        -3.2130   19.1360   24.5530 C.ar      1 AX8270      0.0000 
      7 CAF        -2.3960   18.6040   25.5600 C.ar      1 AX8270      0.0000 
      8 CAM        -2.5520   19.0050   26.8930 C.ar      1 AX8270      0.0000 
      9 CAK        -1.6680   18.4460   28.0240 C.3       1 AX8270      0.0000 
     10 NAS        -0.7920   17.3910   27.5130 N.pl3     1 AX8270      0.0000 
     11 CAR         0.4150   17.5750   26.9670 C.ar      1 AX8270      0.0000 
     12 CAI         1.2080   18.7090   26.7440 C.ar      1 AX8270      0.0000 
     13 CAE         2.4650   18.5580   26.1440 C.ar      1 AX8270      0.0000 
     14 CAD         2.9000   17.2840   25.7750 C.ar      1 AX8270      0.0000 
     15 CAH         2.1100   16.1580   26.0020 C.ar      1 AX8270      0.0000 
     16 CAQ         0.8640   16.3020   26.6080 C.ar      1 AX8270      0.0000 
     17 NAL        -0.0830   15.4090   26.9320 N.2       1 AX8270      0.0000 
     18 CAP        -1.0920   16.0900   27.4830 C.2       1 AX8270      0.0000 
     19 NAA        -2.2250   15.5540   27.9510 N.pl3     1 AX8270      0.0000 
     20 H          -3.6416   20.2632   28.1811 H         1 AX8270      0.0000 
     21 H          -3.0946   18.8264   23.5838 H         1 AX8270      0.0000 
     22 H          -1.6740   17.9115   25.3171 H         1 AX8270      0.0000 
     23 H          -2.3262   18.0641   28.8088 H         1 AX8270      0.0000 
     24 H          -1.0859   19.2739   28.4373 H         1 AX8270      0.0000 
     25 H           0.8737   19.6330   27.0154 H         1 AX8270      0.0000 
     26 H           3.0563   19.3745   25.9790 H         1 AX8270      0.0000 
     27 H           3.8256   17.1742   25.3249 H         1 AX8270      0.0000 
     28 H           2.4443   15.2301   25.7245 H         1 AX8270      0.0000 
     29 H          -2.5572   14.7407   27.4733 H         1 AX8270      0.0000 
     30 H          -2.6381   16.0147   28.7366 H         1 AX8270      0.0000 
@<TRIPOS>BOND
     1    2    1 ar   
     2    8    1 ar   
     3   20    1 1    
     4    3    2 1    
     5    4    2 ar   
     6    5    4 1    
     7    6    4 ar   
     8    7    6 ar   
     9   21    6 1    
    10    8    7 ar   
    11   22    7 1    
    12    9    8 1    
    13   10    9 1    
    14   23    9 1    
    15   24    9 1    
    16   11   10 1    
    17   18   10 1    
    18   12   11 ar   
    19   16   11 ar   
    20   13   12 ar   
    21   25   12 1    
    22   14   13 ar   
    23   26   13 1    
    24   15   14 ar   
    25   27   14 1    
    26   16   15 ar   
    27   28   15 1    
    28   17   16 1    
    29   18   17 2    
    30   19   18 1    
    31   29   19 1    
    32   30   19 1    
@<TRIPOS>SUBSTRUCTURE
     1 AX8270      1 GROUP   
@<TRIPOS>SET

