#    Name: 3gcu_R48_1_INTS_M
#    Modification time : Tue Mar 25 07:30:08 2014

@<TRIPOS>MOLECULE
3gcu_R48_1_INTS_M
   96     0     9     0     0
SMALL
NO_CHARGES


@<TRIPOS>ATOM
      1 CA         13.3640    1.9800    6.3395 C.3       3 GLC5        0.0000 
      2 CA         11.9780    2.0200    4.6330 C.3       9 GLL5        0.0000 
      3 CA         14.7500    1.9400    8.0460 C.3       6 GLP5        0.0000 
      4 N          12.1940    1.5640    7.1440 N.am      2 SEC2        0.0000 
      5 N          12.0290    1.2170    5.7020 N.am      8 SEL2        0.0000 
      6 N          12.3590    1.9110    8.5860 N.am      5 SEP2        0.0000 
      7 CA         10.5315   -0.0845    5.2630 C.3       3 GLC5        0.0000 
      8 CA         12.1450   -0.1200    5.5590 C.3       9 GLL5        0.0000 
      9 CA          8.9180   -0.0490    4.9670 C.3       6 GLP5        0.0000 
     10 CA         11.1600    0.4235    7.3080 C.3       3 GLC5        0.0000 
     11 CA         10.1750    0.9670    9.0570 C.3       6 GLP5        0.0000 
     12 CA         13.4070    0.1500    6.7115 C.3       3 GLC5        0.0000 
     13 CA         14.6690    0.4200    7.8640 C.3       6 GLP5        0.0000 
     14 CA         10.3050    0.9950    2.3630 C.3       3 GLC5        0.0000 
     15 CA         12.1770    0.0800    3.2080 C.3       9 GLL5        0.0000 
     16 CA          8.4330    1.9100    1.5180 C.3       6 GLP5        0.0000 
     17 CA         14.1385   -0.5695    3.3480 C.3       3 GLC5        0.0000 
     18 CA         16.1000   -1.2190    3.4880 C.3       6 GLP5        0.0000 
     19 CA          9.8880   -1.2465    3.5475 C.3       3 GLC5        0.0000 
     20 CA         10.8580   -2.4440    2.1280 C.3       9 GLL5        0.0000 
     21 CA          9.3190   -5.3230    1.1865 C.3       3 GLC5        0.0000 
     22 CA         10.6260   -3.7960    1.8160 C.3       9 GLL5        0.0000 
     23 CA          8.0120   -6.8500    0.5570 C.3       6 GLP5        0.0000 
     24 CA         10.5715   -5.9360   -0.1140 C.3       3 GLC5        0.0000 
     25 CA         11.5770   -4.5270    1.0960 C.3       9 GLL5        0.0000 
     26 CA          9.5660   -7.3450   -1.3240 C.3       6 GLP5        0.0000 
     27 O          13.3095   -5.4140   -1.1535 O.2       1 ALC1        0.0000 
     28 O          13.6160   -4.7000   -0.0190 O.2       7 ALL1        0.0000 
     29 O          13.0030   -6.1280   -2.2880 O.2       4 ALP1        0.0000 
     30 N          16.9730   -3.6745    0.8980 N.am      2 SEC2        0.0000 
     31 N          15.5560   -4.4140    1.0730 N.am      8 SEL2        0.0000 
     32 N          18.3900   -2.9350    0.7230 N.am      5 SEP2        0.0000 
     33 O          14.2365   -5.9510   -1.5100 O.2       1 ALC1        0.0000 
     34 O          15.4700   -5.7740   -0.7320 O.2       7 ALL1        0.0000 
     35 CA         17.0170   -6.5175    2.2870 C.3       3 GLC5        0.0000 
     36 CA         17.5120   -6.5020    0.3640 C.3       9 GLL5        0.0000 
     37 CA         16.5220   -6.5330    4.2100 C.3       6 GLP5        0.0000 
     38 CA         18.3085   -5.0045    1.6675 C.3       3 GLC5        0.0000 
     39 CA         19.1050   -3.5070    2.9710 C.3       6 GLP5        0.0000 
     40 CA         17.1235   -8.7595    1.7325 C.3       3 GLC5        0.0000 
     41 CA         19.3350   -8.8180    1.6190 C.3       9 GLL5        0.0000 
     42 CA         14.9120   -8.7010    1.8460 C.3       6 GLP5        0.0000 
     43 CA         18.8365  -10.3350    2.7225 C.3       3 GLC5        0.0000 
     44 CA         18.3380  -11.8520    3.8260 C.3       6 GLP5        0.0000 
     45 CA         19.5915   -8.8155    3.6975 C.3       3 GLC5        0.0000 
     46 CA         19.8480   -8.8130    5.7760 C.3       6 GLP5        0.0000 
     47 CA         17.9285   -7.6755    2.9145 C.3       3 GLC5        0.0000 
     48 CA         18.3820   -6.5250    2.9825 C.3       3 GLC5        0.0000 
     49 CA         20.2420   -6.5170    1.7550 C.3       9 GLL5        0.0000 
     50 CA         21.9550   -7.5720    2.7520 C.3       3 GLC5        0.0000 
     51 CA         23.6680   -8.6270    3.7490 C.3       6 GLP5        0.0000 
     52 CA         21.6615   -5.6320    2.6835 C.3       3 GLC5        0.0000 
     53 CA         23.0810   -4.7470    3.6120 C.3       6 GLP5        0.0000 
     54 CA         19.6735   -5.0120    2.3630 C.3       3 GLC5        0.0000 
     55 CA         16.7435  -10.4065   -5.7795 C.3       3 GLC5        0.0000 
     56 CA         16.5220   -8.5200   -4.8690 C.3       9 GLL5        0.0000 
     57 CA         16.9650  -12.2930   -6.6900 C.3       6 GLP5        0.0000 
     58 CA         15.0090   -7.9625   -8.9205 C.3       3 GLC5        0.0000 
     59 CA         15.5020   -7.7570   -7.0240 C.3       9 GLL5        0.0000 
     60 CA         14.5160   -8.1680  -10.8170 C.3       6 GLP5        0.0000 
     61 CA          9.9955    4.6132    2.7235 C.3       3 GLC5        0.0000 
     62 CA         11.8020    4.2330    3.6680 C.3       9 GLL5        0.0000 
     63 CA          8.1540    5.2440    2.4280 C.3       6 GLP5        0.0000 
     64 CA         10.1930    2.3653    2.0449 C.3       3 GLC5        0.0000 
     65 CA         11.8720    3.7320    2.3700 C.3       9 GLL5        0.0000 
     66 CA         10.4780    3.0038    5.9712 C.3       3 GLC5        0.0000 
     67 CA          9.0390    3.2980    7.2260 C.3       6 GLP5        0.0000 
     68 CA         10.5081    0.4330    4.2819 C.3       3 GLC5        0.0000 
     69 CA         12.0610    1.4800    3.3380 C.3       9 GLL5        0.0000 
     70 CA         11.4335   -2.6485   -0.3478 C.3       3 GLC5        0.0000 
     71 CA         12.0430   -1.8130    1.7190 C.3       9 GLL5        0.0000 
     72 CA         10.3500   -3.1080   -2.0440 C.3       6 GLP5        0.0000 
     73 CA         14.3085   -1.7040    2.4183 C.3       3 GLC5        0.0000 
     74 CA         12.9910   -2.5650    0.9780 C.3       9 GLL5        0.0000 
     75 CA          9.4925   -2.8710    0.6360 C.3       3 GLC5        0.0000 
     76 CA          8.2430   -2.6220   -0.7000 C.3       6 GLP5        0.0000 
     77 CA         11.2615   -3.6652   -0.5782 C.3       3 GLC5        0.0000 
     78 CA         12.4115   -6.1893    0.9333 C.3       3 GLC5        0.0000 
     79 CA         12.6500   -8.1560    0.9790 C.3       6 GLP5        0.0000 
     80 CA         11.1688   -4.6547    3.2650 C.3       3 GLC5        0.0000 
     81 CA         11.1780   -5.4860    4.9960 C.3       6 GLP5        0.0000 
     82 CA         16.0162   -7.5510    0.8325 C.3       3 GLC5        0.0000 
     83 CA         16.7290   -6.3000   -0.7260 C.3       9 GLL5        0.0000 
     84 CA         17.9097   -4.9005   -0.9225 C.3       3 GLC5        0.0000 
     85 CA         18.6990   -3.4000   -1.6640 C.3       6 GLP5        0.0000 
     86 CA         15.0680   -8.0033   -3.1470 C.3       3 GLC5        0.0000 
     87 CA         16.8790   -7.0260   -2.9950 C.3       9 GLL5        0.0000 
     88 CA         13.2110   -8.3480   -3.0070 C.3       6 GLP5        0.0000 
     89 CA         17.6478   -4.9473   -2.5115 C.3       3 GLC5        0.0000 
     90 CA         17.5257   -9.9977   -3.6435 C.3       3 GLC5        0.0000 
     91 CA         16.9710   -8.2910   -3.5790 C.3       9 GLL5        0.0000 
     92 CA         18.3050  -11.5900   -3.0630 C.3       6 GLP5        0.0000 
     93 CA         14.4645   -8.5754   -5.2006 C.3       3 GLC5        0.0000 
     94 CA         13.0570   -9.2720   -4.2750 C.3       6 GLP5        0.0000 
     95 CA         14.6502   -7.2157   -3.6935 C.3       3 GLC5        0.0000 
     96 CA         15.8650   -6.2040   -5.0370 C.3       9 GLL5        0.0000 
@<TRIPOS>BOND
@<TRIPOS>SUBSTRUCTURE
     1 ALC1       27 GROUP        1 X    ALC  0     ROOT ALC X 1
     2 SEC2        4 GROUP        1 X    SEC  0     **** SEC X 2
     3 GLC5        1 GROUP        1 X    GLC  0     **** GLC X 6
     4 ALP1       29 GROUP        1 Y    ALP  0     ROOT ALP Y 8
     5 SEP2        6 GROUP        1 Y    SEP  0     **** SEP Y 9
     6 GLP5        3 GROUP        1 Y    GLP  0     **** GLP Y 13
     7 ALL1       28 GROUP        1 Z    ALL  0     ROOT ALL Z 15
     8 SEL2        5 GROUP        1 Z    SEL  0     **** SEL Z 16
     9 GLL5        2 GROUP        1 Z    GLL  0     **** GLL Z 20
@<TRIPOS>SET

