#    Name: 3gcu_R48_1_ligand
#    Modification time : Tue Mar 25 07:30:08 2014

@<TRIPOS>MOLECULE
3gcu_R48_1_ligand
   68    72     1     0     0
SMALL
NO_CHARGES


@<TRIPOS>ATOM
      1 C5         12.0610    1.4800    3.3380 C.ar      1 R48401      0.0000 
      2 C1S        12.0070    2.3380    2.2090 C.ar      1 R48401      0.0000 
      3 C2B        11.8720    3.7320    2.3700 C.ar      1 R48401      0.0000 
      4 N1E        11.8240    4.5870    1.2970 N.pl3     1 R48401      0.0000 
      5 C1M        11.8020    4.2330    3.6680 C.ar      1 R48401      0.0000 
      6 C1P        11.8560    3.3990    4.8000 C.ar      1 R48401      0.0000 
      7 C4         11.9780    2.0200    4.6330 C.ar      1 R48401      0.0000 
      8 N3         12.0290    1.2170    5.7020 N.ar      1 R48401      0.0000 
      9 C2         12.1450   -0.1200    5.5590 C.ar      1 R48401      0.0000 
     10 N1         12.2280   -0.6770    4.3440 N.ar      1 R48401      0.0000 
     11 C6         12.1770    0.0800    3.2080 C.ar      1 R48401      0.0000 
     12 N1Y        12.2660   -0.4790    1.9810 N.pl3     1 R48401      0.0000 
     13 C2D        12.0430   -1.8130    1.7190 C.ar      1 R48401      0.0000 
     14 C1Q        12.9910   -2.5650    0.9780 C.ar      1 R48401      0.0000 
     15 C1J        10.8580   -2.4440    2.1280 C.ar      1 R48401      0.0000 
     16 C1G        10.6260   -3.7960    1.8160 C.ar      1 R48401      0.0000 
     17 C1I        11.5770   -4.5270    1.0960 C.ar      1 R48401      0.0000 
     18 C2C        12.7690   -3.9180    0.6790 C.ar      1 R48401      0.0000 
     19 N1W        13.6160   -4.7000   -0.0190 N.am      1 R48401      0.0000 
     20 C1Z        14.9170   -4.9360    0.1640 C.2       1 R48401      0.0000 
     21 O1F        15.5560   -4.4140    1.0730 O.2       1 R48401      0.0000 
     22 N1X        15.4700   -5.7740   -0.7320 N.am      1 R48401      0.0000 
     23 C2G        16.7290   -6.3000   -0.7260 C.2       1 R48401      0.0000 
     24 C1R        17.5120   -6.5020    0.3640 C.2       1 R48401      0.0000 
     25 C2F        18.6130   -7.1730   -0.0660 C.2       1 R48401      0.0000 
     26 C2L        19.8240   -7.6190    0.8090 C.3       1 R48401      0.0000 
     27 C1C        19.3350   -8.8180    1.6190 C.3       1 R48401      0.0000 
     28 C1D        21.0840   -8.0740    0.0650 C.3       1 R48401      0.0000 
     29 C1B        20.2420   -6.5170    1.7550 C.3       1 R48401      0.0000 
     30 N1V        18.4510   -7.4100   -1.3650 N.2       1 R48401      0.0000 
     31 N2K        17.3430   -6.9310   -1.7330 N.pl3     1 R48401      0.0000 
     32 C2E        16.8790   -7.0260   -2.9950 C.ar      1 R48401      0.0000 
     33 C1N        16.9710   -8.2910   -3.5790 C.ar      1 R48401      0.0000 
     34 C1K        16.5220   -8.5200   -4.8690 C.ar      1 R48401      0.0000 
     35 C2A        15.9620   -7.4810   -5.5880 C.ar      1 R48401      0.0000 
     36 C1A        15.5020   -7.7570   -7.0240 C.3       1 R48401      0.0000 
     37 C1L        15.8650   -6.2040   -5.0370 C.ar      1 R48401      0.0000 
     38 C1O        16.3140   -5.9630   -3.7230 C.ar      1 R48401      0.0000 
     39 H          12.0671    1.9358    1.2677 H         1 R48401      0.0000 
     40 H          11.9353    4.1685    0.3956 H         1 R48401      0.0000 
     41 H          11.6820    5.5535    1.5106 H         1 R48401      0.0000 
     42 H          11.7063    5.2601    3.8118 H         1 R48401      0.0000 
     43 H          11.8057    3.8066    5.7356 H         1 R48401      0.0000 
     44 H          12.1701   -0.7276    6.4147 H         1 R48401      0.0000 
     45 H          12.5250    0.1438    1.1549 H         1 R48401      0.0000 
     46 H          13.8538   -2.1043    0.6574 H         1 R48401      0.0000 
     47 H          10.1549   -1.9167    2.6585 H         1 R48401      0.0000 
     48 H           9.7545   -4.2448    2.1194 H         1 R48401      0.0000 
     49 H          11.4026   -5.5137    0.8713 H         1 R48401      0.0000 
     50 H          13.1537   -5.2307   -0.8833 H         1 R48401      0.0000 
     51 H          14.8359   -6.0756   -1.5737 H         1 R48401      0.0000 
     52 H          17.3273   -6.2278    1.2558 H         1 R48401      0.0000 
     53 H          17.3837   -9.0697   -3.0330 H         1 R48401      0.0000 
     54 H          16.6051   -9.4544   -5.2866 H         1 R48401      0.0000 
     55 H          15.4666   -5.4330   -5.5842 H         1 R48401      0.0000 
     56 H          16.2309   -5.0405   -3.3112 H         1 R48401      0.0000 
     57 H          20.0513   -9.1803    2.2154 H         1 R48401      0.0000 
     58 H          18.5595   -8.5798    2.2037 H         1 R48401      0.0000 
     59 H          19.0376   -9.5685    1.0288 H         1 R48401      0.0000 
     60 H          21.4526   -7.3502   -0.5183 H         1 R48401      0.0000 
     61 H          21.8121   -8.3410    0.6964 H         1 R48401      0.0000 
     62 H          20.9034   -8.8617   -0.5240 H         1 R48401      0.0000 
     63 H          21.0209   -6.7884    2.3204 H         1 R48401      0.0000 
     64 H          20.5108   -5.6883    1.2641 H         1 R48401      0.0000 
     65 H          19.5025   -6.2619    2.3779 H         1 R48401      0.0000 
     66 H          16.2569   -8.0647   -7.6032 H         1 R48401      0.0000 
     67 H          14.7981   -8.4664   -7.0586 H         1 R48401      0.0000 
     68 H          15.1167   -6.9405   -7.4540 H         1 R48401      0.0000 
@<TRIPOS>BOND
     1    2    1 ar   
     2    7    1 ar   
     3   11    1 ar   
     4    3    2 ar   
     5   39    2 1    
     6    4    3 1    
     7    5    3 ar   
     8   40    4 1    
     9   41    4 1    
    10    6    5 ar   
    11   42    5 1    
    12    7    6 ar   
    13   43    6 1    
    14    8    7 ar   
    15    9    8 ar   
    16   10    9 ar   
    17   44    9 1    
    18   11   10 ar   
    19   12   11 1    
    20   13   12 1    
    21   45   12 1    
    22   14   13 ar   
    23   15   13 ar   
    24   18   14 ar   
    25   46   14 1    
    26   16   15 ar   
    27   47   15 1    
    28   17   16 ar   
    29   48   16 1    
    30   18   17 ar   
    31   49   17 1    
    32   19   18 1    
    33   20   19 am   
    34   50   19 1    
    35   21   20 2    
    36   22   20 am   
    37   23   22 1    
    38   51   22 1    
    39   24   23 2    
    40   31   23 1    
    41   25   24 1    
    42   52   24 1    
    43   26   25 1    
    44   30   25 2    
    45   27   26 1    
    46   28   26 1    
    47   29   26 1    
    48   57   27 1    
    49   58   27 1    
    50   59   27 1    
    51   60   28 1    
    52   61   28 1    
    53   62   28 1    
    54   63   29 1    
    55   64   29 1    
    56   65   29 1    
    57   31   30 1    
    58   32   31 1    
    59   33   32 ar   
    60   38   32 ar   
    61   34   33 ar   
    62   53   33 1    
    63   35   34 ar   
    64   54   34 1    
    65   36   35 1    
    66   37   35 ar   
    67   66   36 1    
    68   67   36 1    
    69   68   36 1    
    70   38   37 ar   
    71   55   37 1    
    72   56   38 1    
@<TRIPOS>SUBSTRUCTURE
     1 R48401      1 GROUP   
@<TRIPOS>SET

