#    Name: 2vna_NAP_1_INTS_M
#    Modification time : Tue Mar 25 02:10:30 2014

@<TRIPOS>MOLECULE
2vna_NAP_1_INTS_M
  100     0    12     0     0
SMALL
NO_CHARGES


@<TRIPOS>ATOM
      1 N          19.3505   -8.9510  -18.3095 N.am      2 SEC2        0.0000 
      2 N          19.5090  -10.1610  -18.3110 N.am     10 SEL2        0.0000 
      3 N          19.1920   -7.7410  -18.3080 N.am      6 SEP2        0.0000 
      4 N          18.3760  -11.0100  -18.8560 N.am      2 SEC2        0.0000 
      5 N          17.2430  -11.8590  -19.4010 N.am      6 SEP2        0.0000 
      6 N          18.9255  -12.0605  -19.5300 N.am      2 SEC2        0.0000 
      7 N          20.6080  -12.2620  -19.6590 N.am     10 SEL2        0.0000 
      8 CA         22.9015  -13.2270  -18.4265 C.3       4 GLC5        0.0000 
      9 CA         21.7430  -12.9040  -20.1940 C.3      12 GLL5        0.0000 
     10 CA         24.0600  -13.5500  -16.6590 C.3       8 GLP5        0.0000 
     11 CA         21.2630  -14.0870  -18.8050 C.3       4 GLC5        0.0000 
     12 CA         20.7830  -15.2700  -17.4160 C.3       8 GLP5        0.0000 
     13 N          18.7875  -11.8335  -22.6325 N.am      2 SEC2        0.0000 
     14 N          19.3680  -13.0180  -22.1940 N.am     10 SEL2        0.0000 
     15 N          18.2070  -10.6490  -23.0710 N.am      6 SEP2        0.0000 
     16 N          19.2625  -11.6550  -23.8910 N.am      2 SEC2        0.0000 
     17 N          20.3180  -12.6610  -24.7110 N.am     10 SEL2        0.0000 
     18 CA         24.5495  -13.2600  -23.1300 C.3       4 GLC5        0.0000 
     19 CA         22.5880  -13.0720  -23.7740 C.3      12 GLL5        0.0000 
     20 CA         26.5110  -13.4480  -22.4860 C.3       8 GLP5        0.0000 
     21 CA         27.1965  -15.5490  -25.0475 C.3       4 GLC5        0.0000 
     22 CA         25.0240  -15.2360  -25.4310 C.3      12 GLL5        0.0000 
     23 CA         29.3690  -15.8620  -24.6640 C.3       8 GLP5        0.0000 
     24 CA         27.8550  -15.2930  -26.2465 C.3       4 GLC5        0.0000 
     25 CA         26.0390  -15.3910  -26.4830 C.3      12 GLL5        0.0000 
     26 CA         29.6710  -15.1950  -26.0100 C.3       8 GLP5        0.0000 
     27 CA         26.8420  -11.8685  -26.1840 C.3       4 GLC5        0.0000 
     28 CA         25.6680  -13.1530  -27.1750 C.3      12 GLL5        0.0000 
     29 CA         28.0160  -10.5840  -25.1930 C.3       8 GLP5        0.0000 
     30 CA         26.4420  -12.0130  -28.5885 C.3       4 GLC5        0.0000 
     31 CA         27.2160  -10.8730  -30.0020 C.3       8 GLP5        0.0000 
     32 N          21.7050   -7.2230  -17.1545 N.am      2 SEC2        0.0000 
     33 N          22.1290   -8.4960  -17.2600 N.am     10 SEL2        0.0000 
     34 N          21.2810   -5.9500  -17.0490 N.am      6 SEP2        0.0000 
     35 CA         24.3455  -11.6585  -17.4905 C.3       4 GLC5        0.0000 
     36 CA         24.6310   -9.7670  -18.3220 C.3      12 GLL5        0.0000 
     37 CA         27.0270  -12.3680  -19.5205 C.3       4 GLC5        0.0000 
     38 CA         26.9070  -10.9640  -17.9180 C.3      12 GLL5        0.0000 
     39 CA         27.1470  -13.7720  -21.1230 C.3       8 GLP5        0.0000 
     40 O          28.0960  -10.6985  -20.0025 O.2       1 ALC1        0.0000 
     41 O          28.0810  -11.1300  -18.6510 O.2       9 ALL1        0.0000 
     42 O          28.1110  -10.2670  -21.3540 O.2       5 ALP1        0.0000 
     43 N          29.2410  -12.2710  -16.5915 N.am      2 SEC2        0.0000 
     44 N          28.0560  -11.7790  -15.9430 N.am     10 SEL2        0.0000 
     45 N          30.4260  -12.7630  -17.2400 N.am      6 SEP2        0.0000 
     46 CA         27.8725   -7.4895  -16.4335 C.3       4 GLC5        0.0000 
     47 CA         27.5450   -9.4040  -16.3650 C.3      12 GLL5        0.0000 
     48 CA         28.2000   -5.5750  -16.5020 C.3       8 GLP5        0.0000 
     49 N          30.6805   -5.6945  -10.4350 N.am      2 SEC2        0.0000 
     50 N          30.0710   -6.7890  -11.2710 N.am     10 SEL2        0.0000 
     51 N          31.2900   -4.6000   -9.5990 N.am      6 SEP2        0.0000 
     52 O          31.0285   -7.3540  -14.8530 O.2       1 ALC1        0.0000 
     53 O          30.9530   -6.8200  -13.4130 O.2       9 ALL1        0.0000 
     54 O          31.1040   -7.8880  -16.2930 O.2       5 ALP1        0.0000 
     55 O          32.1675   -6.2395  -13.2580 O.2       1 ALC1        0.0000 
     56 O          33.3820   -5.6590  -13.1030 O.2       5 ALP1        0.0000 
     57 CA         27.8665   -6.4440  -10.4895 C.3       4 GLC5        0.0000 
     58 CA         27.3150   -7.6460  -12.1550 C.3      12 GLL5        0.0000 
     59 CA         28.4180   -5.2420   -8.8240 C.3       8 GLP5        0.0000 
     60 CA         27.1940   -7.1975  -15.3990 C.3       4 GLC5        0.0000 
     61 CA         26.1880   -8.8200  -14.2960 C.3      12 GLL5        0.0000 
     62 NZ         18.0355  -12.6595  -26.1995 N.4       3 LYC4        0.0000 
     63 NZ         19.0420  -13.0800  -27.0720 N.4      11 LYL4        0.0000 
     64 NZ         17.0290  -12.2390  -25.3270 N.4       7 LYP4        0.0000 
     65 N          18.0355  -12.6595  -26.1995 N.am      2 SEC2        0.0000 
     66 N          19.0420  -13.0800  -27.0720 N.am     10 SEL2        0.0000 
     67 N          17.0290  -12.2390  -25.3270 N.am      6 SEP2        0.0000 
     68 NZ         18.7640  -11.6355  -25.9745 N.4       3 LYC4        0.0000 
     69 NZ         20.4990  -11.0320  -26.6220 N.4      11 LYL4        0.0000 
     70 N          20.2035  -10.8140  -27.9770 N.am      2 SEC2        0.0000 
     71 N          20.4990  -11.0320  -26.6220 N.am     10 SEL2        0.0000 
     72 N          19.9080  -10.5960  -29.3320 N.am      6 SEP2        0.0000 
     73 CA         23.3760  -13.5990  -20.3995 C.3       4 GLC5        0.0000 
     74 CA         21.7130  -12.7300  -21.6980 C.3      12 GLL5        0.0000 
     75 CA         25.0240  -14.3810  -19.8530 C.3       8 GLP5        0.0000 
     76 CA         19.5650  -14.5285  -23.7093 C.3       4 GLC5        0.0000 
     77 CA         20.6460  -13.5540  -22.4360 C.3      12 GLL5        0.0000 
     78 CA         18.2510  -15.5140  -24.2430 C.3       8 GLP5        0.0000 
     79 CA         25.7349  -14.0591  -24.0630 C.3       4 GLC5        0.0000 
     80 CA         25.9840   -8.7545  -19.7997 C.3       4 GLC5        0.0000 
     81 CA         26.5760   -7.8120  -21.3080 C.3       8 GLP5        0.0000 
     82 CA         26.1713  -12.6402  -16.8287 C.3       4 GLC5        0.0000 
     83 CA         25.3130  -14.3740  -16.4770 C.3       8 GLP5        0.0000 
     84 CA         28.0072  -12.7822  -17.3173 C.3       4 GLC5        0.0000 
     85 CA         27.1520  -10.8490  -16.4430 C.3      12 GLL5        0.0000 
     86 CA         28.9850  -14.6580  -17.4540 C.3       8 GLP5        0.0000 
     87 CA         28.0693   -6.1530  -13.4992 C.3       4 GLC5        0.0000 
     88 CA         28.6420   -8.2220  -14.4160 C.3      12 GLL5        0.0000 
     89 CA         27.5150   -4.3700  -13.2930 C.3       8 GLP5        0.0000 
     90 CA         28.4117   -6.7555  -15.1037 C.3       4 GLC5        0.0000 
     91 CA         28.6050   -7.6500  -12.9950 C.3      12 GLL5        0.0000 
     92 CA         25.5850   -8.0905  -11.1067 C.3       4 GLC5        0.0000 
     93 CA         24.4730   -8.2510   -9.6840 C.3       8 GLP5        0.0000 
     94 CA         27.1060   -6.1500  -12.9112 C.3       4 GLC5        0.0000 
     95 CA         26.0790   -8.2140  -12.9040 C.3      12 GLL5        0.0000 
     96 CA         25.0757   -7.3265  -14.5775 C.3       4 GLC5        0.0000 
     97 CA         24.0180   -6.1360  -15.5550 C.3       8 GLP5        0.0000 
     98 CA         28.6931   -9.8195  -17.8719 C.3       4 GLC5        0.0000 
     99 CA         26.1530   -9.6270  -18.2610 C.3      12 GLL5        0.0000 
    100 CA         30.4470   -9.4280  -18.4970 C.3       8 GLP5        0.0000 
@<TRIPOS>BOND
@<TRIPOS>SUBSTRUCTURE
     1 ALC1       40 GROUP        1 X    ALC  0     ROOT ALC X 1
     2 SEC2        1 GROUP        1 X    SEC  0     **** SEC X 2
     3 LYC4       62 GROUP        1 X    LYC  0     **** LYC X 4
     4 GLC5        8 GROUP        1 X    GLC  0     **** GLC X 6
     5 ALP1       42 GROUP        1 Y    ALP  0     ROOT ALP Y 8
     6 SEP2        3 GROUP        1 Y    SEP  0     **** SEP Y 9
     7 LYP4       64 GROUP        1 Y    LYP  0     **** LYP Y 11
     8 GLP5       10 GROUP        1 Y    GLP  0     **** GLP Y 13
     9 ALL1       41 GROUP        1 Z    ALL  0     ROOT ALL Z 15
    10 SEL2        2 GROUP        1 Z    SEL  0     **** SEL Z 16
    11 LYL4       63 GROUP        1 Z    LYL  0     **** LYL Z 18
    12 GLL5        9 GROUP        1 Z    GLL  0     **** GLL Z 20
@<TRIPOS>SET

