#    Name: 2vna_NAP_1_ligand
#    Modification time : Tue Mar 25 02:10:30 2014

@<TRIPOS>MOLECULE
2vna_NAP_1_ligand
   73    77     1     0     0
SMALL
NO_CHARGES


@<TRIPOS>ATOM
      1 PA         20.8800  -10.8360  -18.9060 P.3       1 NAP801      0.0000 
      2 O1A        19.5090  -10.1610  -18.3110 O.co2     1 NAP801      0.0000 
      3 O2A        21.5830   -9.9050  -19.7890 O.co2     1 NAP801      0.0000 
      4 O5B        20.6080  -12.2620  -19.6590 O.3       1 NAP801      0.0000 
      5 C5B        21.7430  -12.9040  -20.1940 C.3       1 NAP801      0.0000 
      6 C4B        21.7130  -12.7300  -21.6980 C.3       1 NAP801      0.0000 
      7 O4B        22.9420  -12.8870  -22.3800 O.3       1 NAP801      0.0000 
      8 C3B        20.6460  -13.5540  -22.4360 C.3       1 NAP801      0.0000 
      9 O3B        19.3680  -13.0180  -22.1940 O.3       1 NAP801      0.0000 
     10 C2B        21.1120  -13.5320  -23.9150 C.3       1 NAP801      0.0000 
     11 O2B        20.3180  -12.6610  -24.7110 O.3       1 NAP801      0.0000 
     12 C1B        22.5880  -13.0720  -23.7740 C.3       1 NAP801      0.0000 
     13 N9A        23.4430  -14.1620  -24.2310 N.pl3     1 NAP801      0.0000 
     14 C8A        23.5320  -15.4180  -23.6810 C.2       1 NAP801      0.0000 
     15 N7A        24.5280  -16.1220  -24.4370 N.2       1 NAP801      0.0000 
     16 C5A        25.0240  -15.2360  -25.4310 C.ar      1 NAP801      0.0000 
     17 C6A        26.0390  -15.3910  -26.4830 C.ar      1 NAP801      0.0000 
     18 N6A        26.7400  -16.6440  -26.5920 N.pl3     1 NAP801      0.0000 
     19 N1A        26.3210  -14.3960  -27.2920 N.ar      1 NAP801      0.0000 
     20 C2A        25.6680  -13.1530  -27.1750 C.ar      1 NAP801      0.0000 
     21 N3A        24.6650  -12.9980  -26.1340 N.ar      1 NAP801      0.0000 
     22 C4A        24.3860  -14.0270  -25.3230 C.ar      1 NAP801      0.0000 
     23 O3         21.8240  -11.2280  -17.6220 O.3       1 NAP801      0.0000 
     24 PN         22.5470   -9.9900  -16.7760 P.3       1 NAP801      0.0000 
     25 O1N        22.1290   -8.4960  -17.2600 O.co2     1 NAP801      0.0000 
     26 O2N        22.2300  -10.2140  -15.3600 O.co2     1 NAP801      0.0000 
     27 O5D        24.1780  -10.0810  -17.0290 O.3       1 NAP801      0.0000 
     28 C5D        24.6310   -9.7670  -18.3220 C.3       1 NAP801      0.0000 
     29 C4D        26.1530   -9.6270  -18.2610 C.3       1 NAP801      0.0000 
     30 O4D        26.5840   -8.6850  -17.1590 O.3       1 NAP801      0.0000 
     31 C3D        26.9070  -10.9640  -17.9180 C.3       1 NAP801      0.0000 
     32 O3D        28.0810  -11.1300  -18.6510 O.3       1 NAP801      0.0000 
     33 C2D        27.1520  -10.8490  -16.4430 C.3       1 NAP801      0.0000 
     34 O2D        28.0560  -11.7790  -15.9430 O.3       1 NAP801      0.0000 
     35 C1D        27.5450   -9.4040  -16.3650 C.3       1 NAP801      0.0000 
     36 N1N        27.4660   -8.8850  -14.9810 N.pl3     1 NAP801      0.0000 
     37 C2N        28.6420   -8.2220  -14.4160 C.ar      1 NAP801      0.0000 
     38 C3N        28.6050   -7.6500  -12.9950 C.ar      1 NAP801      0.0000 
     39 C7N        29.9290   -7.1040  -12.4250 C.2       1 NAP801      0.0000 
     40 O7N        30.0710   -6.7890  -11.2710 O.2       1 NAP801      0.0000 
     41 N7N        30.9530   -6.8200  -13.4130 N.am      1 NAP801      0.0000 
     42 C4N        27.3150   -7.6460  -12.1550 C.ar      1 NAP801      0.0000 
     43 C5N        26.0790   -8.2140  -12.9040 C.ar      1 NAP801      0.0000 
     44 C6N        26.1880   -8.8200  -14.2960 C.ar      1 NAP801      0.0000 
     45 P2B        20.4110  -12.4690  -26.3710 P.3       1 NAP801      0.0000 
     46 O1X        21.6600  -13.3270  -26.9770 O.co2     1 NAP801      0.0000 
     47 O2X        19.0420  -13.0800  -27.0720 O.co2     1 NAP801      0.0000 
     48 O3X        20.4990  -11.0320  -26.6220 O.co2     1 NAP801      0.0000 
     49 H          21.7514  -13.9753  -19.9790 H         1 NAP801      0.0000 
     50 H          22.6755  -12.4713  -19.8235 H         1 NAP801      0.0000 
     51 H          21.3728  -11.6401  -21.8789 H         1 NAP801      0.0000 
     52 H          20.7602  -14.5734  -22.0846 H         1 NAP801      0.0000 
     53 H          21.1295  -14.5466  -24.2476 H         1 NAP801      0.0000 
     54 H          22.7434  -12.2071  -24.3418 H         1 NAP801      0.0000 
     55 H          23.0581  -15.7752  -22.9630 H         1 NAP801      0.0000 
     56 H          26.5059  -17.3397  -25.9129 H         1 NAP801      0.0000 
     57 H          27.4025  -16.7141  -27.3377 H         1 NAP801      0.0000 
     58 H          25.8747  -12.3835  -27.7830 H         1 NAP801      0.0000 
     59 H          24.2285   -8.8219  -18.6888 H         1 NAP801      0.0000 
     60 H          24.4017  -10.5486  -19.0474 H         1 NAP801      0.0000 
     61 H          26.5449   -9.2679  -19.1887 H         1 NAP801      0.0000 
     62 H          26.1792  -11.7518  -18.0677 H         1 NAP801      0.0000 
     63 H          26.1537  -10.9147  -15.9789 H         1 NAP801      0.0000 
     64 H          28.5237   -9.2778  -16.7595 H         1 NAP801      0.0000 
     65 H          29.4874   -8.1269  -14.9357 H         1 NAP801      0.0000 
     66 H          30.6941   -6.9622  -14.3684 H         1 NAP801      0.0000 
     67 H          31.8329   -6.5056  -13.0568 H         1 NAP801      0.0000 
     68 H          27.2730   -7.3344  -11.2813 H         1 NAP801      0.0000 
     69 H          25.1948   -8.1748  -12.4496 H         1 NAP801      0.0000 
     70 H          25.3491   -9.1704  -14.7194 H         1 NAP801      0.0000 
     71 H          19.3818  -12.7396  -21.2337 H         1 NAP801      0.0000 
     72 H          27.8654  -10.7881  -19.5657 H         1 NAP801      0.0000 
     73 H          28.1085  -11.5877  -14.9629 H         1 NAP801      0.0000 
@<TRIPOS>BOND
     1    2    1 ar   
     2    3    1 ar   
     3    4    1 1    
     4   23    1 1    
     5    5    4 1    
     6    6    5 1    
     7   49    5 1    
     8   50    5 1    
     9    7    6 1    
    10    8    6 1    
    11   51    6 1    
    12   12    7 1    
    13    9    8 1    
    14   10    8 1    
    15   52    8 1    
    16   71    9 1    
    17   11   10 1    
    18   12   10 1    
    19   53   10 1    
    20   45   11 1    
    21   13   12 1    
    22   54   12 1    
    23   14   13 1    
    24   22   13 1    
    25   15   14 2    
    26   55   14 1    
    27   16   15 1    
    28   17   16 ar   
    29   22   16 ar   
    30   18   17 1    
    31   19   17 ar   
    32   56   18 1    
    33   57   18 1    
    34   20   19 ar   
    35   21   20 ar   
    36   58   20 1    
    37   22   21 ar   
    38   24   23 1    
    39   25   24 ar   
    40   26   24 ar   
    41   27   24 1    
    42   28   27 1    
    43   29   28 1    
    44   59   28 1    
    45   60   28 1    
    46   30   29 1    
    47   31   29 1    
    48   61   29 1    
    49   35   30 1    
    50   32   31 1    
    51   33   31 1    
    52   62   31 1    
    53   72   32 1    
    54   34   33 1    
    55   35   33 1    
    56   63   33 1    
    57   73   34 1    
    58   36   35 1    
    59   64   35 1    
    60   37   36 ar   
    61   44   36 ar   
    62   38   37 ar   
    63   65   37 1    
    64   39   38 1    
    65   42   38 ar   
    66   40   39 2    
    67   41   39 am   
    68   66   41 1    
    69   67   41 1    
    70   43   42 ar   
    71   68   42 1    
    72   44   43 ar   
    73   69   43 1    
    74   70   44 1    
    75   46   45 ar   
    76   47   45 ar   
    77   48   45 ar   
@<TRIPOS>SUBSTRUCTURE
     1 NAP801      1 GROUP   
@<TRIPOS>SET

