#    Name: 1a2b_GSP_1_INTS_M
#    Modification time : Mon Mar 24 17:44:04 2014

@<TRIPOS>MOLECULE
1a2b_GSP_1_INTS_M
   77     0    15     0     0
SMALL
NO_CHARGES


@<TRIPOS>ATOM
      1 N           9.3495   28.0880   28.3350 N.am      2 SEC2        0.0000 
      2 N           9.7490   29.0980   27.4300 N.am     12 SEL2        0.0000 
      3 N           8.9500   27.0780   29.2400 N.am      7 SEP2        0.0000 
      4 CA          6.6815   28.9925   29.4060 C.3       5 GLC5        0.0000 
      5 CA          7.3590   30.3480   28.2900 C.3      15 GLL5        0.0000 
      6 CA          6.0040   27.6370   30.5220 C.3      10 GLP5        0.0000 
      7 CA          8.7410   31.0910   29.3900 C.3       5 GLC5        0.0000 
      8 CA         10.1230   31.8340   30.4900 C.3      10 GLP5        0.0000 
      9 CA          6.8440   32.1115   28.6410 C.3       5 GLC5        0.0000 
     10 CA          6.3290   33.8750   28.9920 C.3      10 GLP5        0.0000 
     11 Zn          9.9085   31.4635   25.5445 Zn        4 ZIC7        0.0000 
     12 Zn          8.9680   31.1250   26.0820 Zn       14 ZIL7        0.0000 
     13 Zn         10.8490   31.8020   25.0070 Zn        9 ZIP7        0.0000 
     14 N           8.3405   32.5645   25.9875 N.am      2 SEC2        0.0000 
     15 N           8.9680   31.1250   26.0820 N.am     12 SEL2        0.0000 
     16 N           7.7130   34.0040   25.8930 N.am      7 SEP2        0.0000 
     17 N           6.5410   28.7760   24.9650 N.am      2 SEC2        0.0000 
     18 N           7.8360   28.8930   25.8210 N.am     12 SEL2        0.0000 
     19 N           5.2460   28.6590   24.1090 N.am      7 SEP2        0.0000 
     20 NZ          9.9195   26.9230   25.4045 N.4       3 LYC4        0.0000 
     21 NZ         11.0350   27.2470   26.4810 N.4      13 LYL4        0.0000 
     22 NZ          8.8040   26.5990   24.3280 N.4       8 LYP4        0.0000 
     23 N          11.0890   26.3095   27.4930 N.am      2 SEC2        0.0000 
     24 N          11.0350   27.2470   26.4810 N.am     12 SEL2        0.0000 
     25 N          11.1430   25.3720   28.5050 N.am      7 SEP2        0.0000 
     26 N          12.2840   26.6140   27.0230 N.am      2 SEC2        0.0000 
     27 N          13.5330   25.9810   27.5650 N.am      7 SEP2        0.0000 
     28 N          12.3595   27.1000   25.7085 N.am      2 SEC2        0.0000 
     29 N          13.6840   26.9530   24.9360 N.am      7 SEP2        0.0000 
     30 N           9.9195   26.9230   25.4045 N.am      2 SEC2        0.0000 
     31 N           8.8040   26.5990   24.3280 N.am      7 SEP2        0.0000 
     32 Zn         11.2255   30.6690   25.3275 Zn        4 ZIC7        0.0000 
     33 Zn         11.6020   29.5360   25.6480 Zn       14 ZIL7        0.0000 
     34 N          12.8370   29.6155   24.7960 N.am      2 SEC2        0.0000 
     35 N          11.6020   29.5360   25.6480 N.am     12 SEL2        0.0000 
     36 N          14.0720   29.6950   23.9440 N.am      7 SEP2        0.0000 
     37 N          15.4675   30.1090   26.2110 N.am      2 SEC2        0.0000 
     38 N          14.4040   29.5200   27.1490 N.am     12 SEL2        0.0000 
     39 N          16.5310   30.6980   25.2730 N.am      7 SEP2        0.0000 
     40 N          12.8885   27.3570   27.7890 N.am      2 SEC2        0.0000 
     41 N          12.2440   28.7330   28.0130 N.am     12 SEL2        0.0000 
     42 CA         11.8430   27.8520   30.3330 C.3       5 GLC5        0.0000 
     43 CA         13.4480   28.5810   30.7250 C.3      15 GLL5        0.0000 
     44 CA         10.2380   27.1230   29.9410 C.3      10 GLP5        0.0000 
     45 CA         14.1135   27.5525   28.8925 C.3       5 GLC5        0.0000 
     46 CA         14.7790   26.5240   27.0600 C.3      10 GLP5        0.0000 
     47 CA         12.3700   30.5350   30.7975 C.3       5 GLC5        0.0000 
     48 CA         11.2920   32.4890   30.8700 C.3      10 GLP5        0.0000 
     49 CA         12.1210   28.0000   31.7280 C.3       5 GLC5        0.0000 
     50 CA         14.2160   28.6240   32.0160 C.3      15 GLL5        0.0000 
     51 CA         10.0260   27.3760   31.4400 C.3      10 GLP5        0.0000 
     52 N          14.7140   26.1155   32.0365 N.am      2 SEC2        0.0000 
     53 N          15.2880   27.6270   32.0370 N.am     12 SEL2        0.0000 
     54 N          14.1400   24.6040   32.0360 N.am      7 SEP2        0.0000 
     55 CA         13.9080   31.6680   32.4045 C.3       5 GLC5        0.0000 
     56 CA         14.9130   29.9750   32.1750 C.3      15 GLL5        0.0000 
     57 CA         12.9030   33.3610   32.6340 C.3      10 GLP5        0.0000 
     58 CA         16.9225   30.4305   30.0210 C.3       5 GLC5        0.0000 
     59 CA         16.3490   29.7310   31.6550 C.3      15 GLL5        0.0000 
     60 CA         17.4960   31.1300   28.3870 C.3      10 GLP5        0.0000 
     61 CA         15.8360   26.2340   31.4855 C.3       5 GLC5        0.0000 
     62 CA         16.6170   28.2580   32.0380 C.3      15 GLL5        0.0000 
     63 CA         15.0550   24.2100   30.9330 C.3      10 GLP5        0.0000 
     64 N          21.4885   24.8925   27.9680 N.am      2 SEC2        0.0000 
     65 N          20.5610   24.6970   29.0910 N.am     12 SEL2        0.0000 
     66 N          22.4160   25.0880   26.8450 N.am      7 SEP2        0.0000 
     67 N          21.9555   25.6730   28.9170 N.am      2 SEC2        0.0000 
     68 N          23.3500   26.6490   28.7430 N.am      7 SEP2        0.0000 
     69 O          21.3335   23.6680   31.3455 O.2       1 ALC1        0.0000 
     70 O          20.2690   24.7350   31.3480 O.2      11 ALL1        0.0000 
     71 O          22.3980   22.6010   31.3430 O.2       6 ALP1        0.0000 
     72 O          21.2945   23.8675   33.5785 O.2       1 ALC1        0.0000 
     73 O          20.0480   24.7040   33.6630 O.2      11 ALL1        0.0000 
     74 O          22.5410   23.0310   33.4940 O.2       6 ALP1        0.0000 
     75 CA         17.8597   24.6258   30.4975 C.3       5 GLC5        0.0000 
     76 CA         18.9230   26.2250   30.0890 C.3      15 GLL5        0.0000 
     77 CA         17.0610   22.8340   30.3060 C.3      10 GLP5        0.0000 
@<TRIPOS>BOND
@<TRIPOS>SUBSTRUCTURE
     1 ALC1       69 GROUP        1 X    ALC  0     ROOT ALC X 1
     2 SEC2        1 GROUP        1 X    SEC  0     **** SEC X 2
     3 LYC4       20 GROUP        1 X    LYC  0     **** LYC X 4
     4 ZIC7       11 GROUP        1 X    ZIC  0     **** ZIC X 5
     5 GLC5        4 GROUP        1 X    GLC  0     **** GLC X 6
     6 ALP1       71 GROUP        1 Y    ALP  0     ROOT ALP Y 8
     7 SEP2        3 GROUP        1 Y    SEP  0     **** SEP Y 9
     8 LYP4       22 GROUP        1 Y    LYP  0     **** LYP Y 11
     9 ZIP7       13 GROUP        1 Y    ZIP  0     **** ZIP Y 12
    10 GLP5        6 GROUP        1 Y    GLP  0     **** GLP Y 13
    11 ALL1       70 GROUP        1 Z    ALL  0     ROOT ALL Z 15
    12 SEL2        2 GROUP        1 Z    SEL  0     **** SEL Z 16
    13 LYL4       21 GROUP        1 Z    LYL  0     **** LYL Z 18
    14 ZIL7       12 GROUP        1 Z    ZIL  0     **** ZIL Z 19
    15 GLL5        5 GROUP        1 Z    GLL  0     **** GLL Z 20
@<TRIPOS>SET

