#    Name: 1a2b_GSP_1_ligand
#    Modification time : Mon Mar 24 17:44:04 2014

@<TRIPOS>MOLECULE
1a2b_GSP_1_ligand
   45    47     1     0     0
SMALL
NO_CHARGES


@<TRIPOS>ATOM
      1 PG          8.4140   29.9140   26.7600 P.3       1 GSP538      0.0000 
      2 O3B         9.7490   29.0980   27.4300 O.3       1 GSP538      0.0000 
      3 S1G         7.3590   30.3480   28.2900 S.2       1 GSP538      0.0000 
      4 O2G         8.9680   31.1250   26.0820 O.3       1 GSP538      0.0000 
      5 O3G         7.8360   28.8930   25.8210 O.3       1 GSP538      0.0000 
      6 PB         11.1620   28.6580   26.8020 P.3       1 GSP538      0.0000 
      7 O1B        11.0350   27.2470   26.4810 O.co2     1 GSP538      0.0000 
      8 O2B        11.6020   29.5360   25.6480 O.co2     1 GSP538      0.0000 
      9 PA         13.4950   29.7620   28.2830 P.3       1 GSP538      0.0000 
     10 O1A        14.4040   29.5200   27.1490 O.co2     1 GSP538      0.0000 
     11 O2A        12.9870   31.1530   28.4690 O.co2     1 GSP538      0.0000 
     12 O3A        12.2440   28.7330   28.0130 O.3       1 GSP538      0.0000 
     13 O5'        14.1500   29.2130   29.6710 O.3       1 GSP538      0.0000 
     14 C5'        13.4480   28.5810   30.7250 C.3       1 GSP538      0.0000 
     15 C4'        14.2160   28.6240   32.0160 C.3       1 GSP538      0.0000 
     16 O4'        15.2880   27.6270   32.0370 O.3       1 GSP538      0.0000 
     17 C3'        14.9130   29.9750   32.1750 C.3       1 GSP538      0.0000 
     18 O3'        14.9600   30.3820   33.5500 O.3       1 GSP538      0.0000 
     19 C2'        16.3490   29.7310   31.6550 C.3       1 GSP538      0.0000 
     20 O2'        17.3160   30.5890   32.2230 O.3       1 GSP538      0.0000 
     21 C1'        16.6170   28.2580   32.0380 C.3       1 GSP538      0.0000 
     22 N9         17.4600   27.5600   31.0280 N.pl3     1 GSP538      0.0000 
     23 C8         17.4870   27.6970   29.6450 C.2       1 GSP538      0.0000 
     24 N7         18.3290   26.9340   29.0420 N.2       1 GSP538      0.0000 
     25 C5         18.9230   26.2250   30.0890 C.2       1 GSP538      0.0000 
     26 C6         19.9620   25.1890   30.0600 C.2       1 GSP538      0.0000 
     27 O6         20.5610   24.6970   29.0910 O.2       1 GSP538      0.0000 
     28 N1         20.2690   24.7350   31.3480 N.am      1 GSP538      0.0000 
     29 C2         19.6730   25.2040   32.5010 C.2       1 GSP538      0.0000 
     30 N2         20.0480   24.7040   33.6630 N.pl3     1 GSP538      0.0000 
     31 N3         18.7180   26.1520   32.5220 N.2       1 GSP538      0.0000 
     32 C4         18.3940   26.6100   31.2890 C.2       1 GSP538      0.0000 
     33 H          13.2356   27.5179   30.4898 H         1 GSP538      0.0000 
     34 H          12.4621   29.0589   30.8986 H         1 GSP538      0.0000 
     35 H          13.5624   28.4878   32.8470 H         1 GSP538      0.0000 
     36 H          14.4506   30.6776   31.5374 H         1 GSP538      0.0000 
     37 H          16.3083   29.7658   30.5820 H         1 GSP538      0.0000 
     38 H          17.0400   28.2226   32.9983 H         1 GSP538      0.0000 
     39 H          16.8694   28.3622   29.1958 H         1 GSP538      0.0000 
     40 H          21.0085   23.9818   31.4351 H         1 GSP538      0.0000 
     41 H          20.7599   24.0025   33.6310 H         1 GSP538      0.0000 
     42 H          19.5862   25.0720   34.4700 H         1 GSP538      0.0000 
     43 H           6.9488   29.2652   25.5484 H         1 GSP538      0.0000 
     44 H          15.9032   30.6784   33.7000 H         1 GSP538      0.0000 
     45 H          17.2462   31.4390   31.7009 H         1 GSP538      0.0000 
@<TRIPOS>BOND
     1    2    1 1    
     2    3    1 2    
     3    4    1 1    
     4    5    1 1    
     5    6    2 1    
     6   43    5 1    
     7    7    6 ar   
     8    8    6 ar   
     9   12    6 1    
    10   10    9 ar   
    11   11    9 ar   
    12   12    9 1    
    13   13    9 1    
    14   14   13 1    
    15   15   14 1    
    16   33   14 1    
    17   34   14 1    
    18   16   15 1    
    19   17   15 1    
    20   35   15 1    
    21   21   16 1    
    22   18   17 1    
    23   19   17 1    
    24   36   17 1    
    25   44   18 1    
    26   20   19 1    
    27   21   19 1    
    28   37   19 1    
    29   45   20 1    
    30   22   21 1    
    31   38   21 1    
    32   23   22 1    
    33   32   22 1    
    34   24   23 2    
    35   39   23 1    
    36   25   24 1    
    37   26   25 1    
    38   32   25 2    
    39   27   26 2    
    40   28   26 am   
    41   29   28 1    
    42   40   28 1    
    43   30   29 1    
    44   31   29 2    
    45   41   30 1    
    46   42   30 1    
    47   32   31 1    
@<TRIPOS>SUBSTRUCTURE
     1 GSP538      1 GROUP   
@<TRIPOS>SET

