#    Name: 2a0x_DIH_1_INTS_M
#    Modification time : Mon Mar 24 18:12:59 2014

@<TRIPOS>MOLECULE
2a0x_DIH_1_INTS_M
   44     0     9     0     0
SMALL
NO_CHARGES


@<TRIPOS>ATOM
      1 CA          0.0410   20.2520   24.4400 C.3       3 GLC5        0.0000 
      2 CA          1.5900   20.5660   23.3090 C.3       9 GLL5        0.0000 
      3 CA         -1.5080   19.9380   25.5710 C.3       6 GLP5        0.0000 
      4 CA          1.6830   21.7435   24.9815 C.3       3 GLC5        0.0000 
      5 CA          1.7760   22.9210   26.6540 C.3       6 GLP5        0.0000 
      6 CA          5.4925   20.6735   25.2695 C.3       3 GLC5        0.0000 
      7 CA          3.7640   19.9490   24.1690 C.3       9 GLL5        0.0000 
      8 CA          7.2210   21.3980   26.3700 C.3       6 GLP5        0.0000 
      9 CA          3.9050   21.6990   24.9575 C.3       3 GLC5        0.0000 
     10 CA          4.0460   23.4490   25.7460 C.3       6 GLP5        0.0000 
     11 CA          2.7795   17.1065   20.7935 C.3       3 GLC5        0.0000 
     12 CA          2.8200   18.5960   22.4280 C.3       9 GLL5        0.0000 
     13 CA          2.7390   15.6170   19.1590 C.3       6 GLP5        0.0000 
     14 N           3.4805   18.0420   19.8560 N.am      2 SEC2        0.0000 
     15 N           3.6110   18.2930   21.2810 N.am      8 SEL2        0.0000 
     16 N           3.3500   17.7910   18.4310 N.am      5 SEP2        0.0000 
     17 CA          5.8115   19.8385   26.0660 C.3       3 GLC5        0.0000 
     18 CA          4.4020   18.2790   25.7620 C.3       9 GLL5        0.0000 
     19 CA          4.8650   16.2030   26.2735 C.3       3 GLC5        0.0000 
     20 CA          5.3280   14.1270   26.7850 C.3       6 GLP5        0.0000 
     21 CA          3.3030   18.7460   29.7635 C.3       3 GLC5        0.0000 
     22 CA          3.2650   19.5200   27.7310 C.3       9 GLL5        0.0000 
     23 CA          3.3410   17.9720   31.7960 C.3       6 GLP5        0.0000 
     24 CA          2.5205   21.2205   27.1925 C.3       3 GLC5        0.0000 
     25 O           2.2370   20.3185   29.5470 O.2       1 ALC1        0.0000 
     26 O           2.3270   19.3610   28.6330 O.2       7 ALL1        0.0000 
     27 O           2.1470   21.2760   30.4610 O.2       4 ALP1        0.0000 
     28 CA          2.5840   18.0315   30.1050 C.3       3 GLC5        0.0000 
     29 CA          1.8270   18.0910   28.4140 C.3       9 GLL5        0.0000 
     30 N           0.1635   19.0825   30.6495 N.am      2 SEC2        0.0000 
     31 N           0.0910   17.7620   30.0400 N.am      8 SEL2        0.0000 
     32 N           0.2360   20.4030   31.2590 N.am      5 SEP2        0.0000 
     33 O          -0.4795   15.3325   28.9185 O.2       1 ALC1        0.0000 
     34 O           0.5250   16.0520   28.5790 O.2       7 ALL1        0.0000 
     35 O          -1.4840   14.6130   29.2580 O.2       4 ALP1        0.0000 
     36 CA          3.9130   15.8060   27.0610 C.3       3 GLC5        0.0000 
     37 CA          2.4980   17.4850   27.3370 C.3       9 GLL5        0.0000 
     38 CA          2.0285   16.5650   22.8320 C.3       3 GLC5        0.0000 
     39 CA          3.0780   17.9180   23.7160 C.3       9 GLL5        0.0000 
     40 CA          1.1080   14.8730   22.5920 C.3       6 GLP5        0.0000 
     41 CA          0.5643   18.2795   27.0187 C.3       3 GLC5        0.0000 
     42 CA         -1.0340   18.7710   26.1620 C.3       6 GLP5        0.0000 
     43 CA          4.6383   18.1842   28.2883 C.3       3 GLC5        0.0000 
     44 CA          6.2300   18.1560   29.3940 C.3       6 GLP5        0.0000 
@<TRIPOS>BOND
@<TRIPOS>SUBSTRUCTURE
     1 ALC1       25 GROUP        1 X    ALC  0     ROOT ALC X 1
     2 SEC2       14 GROUP        1 X    SEC  0     **** SEC X 2
     3 GLC5        1 GROUP        1 X    GLC  0     **** GLC X 6
     4 ALP1       27 GROUP        1 Y    ALP  0     ROOT ALP Y 8
     5 SEP2       16 GROUP        1 Y    SEP  0     **** SEP Y 9
     6 GLP5        3 GROUP        1 Y    GLP  0     **** GLP Y 13
     7 ALL1       26 GROUP        1 Z    ALL  0     ROOT ALL Z 15
     8 SEL2       15 GROUP        1 Z    SEL  0     **** SEL Z 16
     9 GLL5        2 GROUP        1 Z    GLL  0     **** GLL Z 20
@<TRIPOS>SET

