#    Name: 2a0x_DIH_1_ligand
#    Modification time : Mon Mar 24 18:12:59 2014

@<TRIPOS>MOLECULE
2a0x_DIH_1_ligand
   38    40     1     0     0
SMALL
NO_CHARGES


@<TRIPOS>ATOM
      1 O5'         1.3120   21.8540   23.8420 O.3       1 DIH300      0.0000 
      2 C5'         1.5900   20.5660   23.3090 C.3       1 DIH300      0.0000 
      3 C4'         2.9130   19.9860   22.9650 C.3       1 DIH300      0.0000 
      4 C6'         3.7640   19.9490   24.1690 C.3       1 DIH300      0.0000 
      5 C3'         2.8200   18.5960   22.4280 C.3       1 DIH300      0.0000 
      6 O3'         3.6110   18.2930   21.2810 O.3       1 DIH300      0.0000 
      7 C2'         3.0780   17.9180   23.7160 C.3       1 DIH300      0.0000 
      8 N1'         4.1920   18.5800   24.3570 N.4       1 DIH300      0.0000 
      9 C10         4.4020   18.2790   25.7620 C.3       1 DIH300      0.0000 
     10 C9          3.4480   18.4400   26.8890 C.2       1 DIH300      0.0000 
     11 C8          3.2650   19.5200   27.7310 C.2       1 DIH300      0.0000 
     12 N7          2.3270   19.3610   28.6330 N.pl3     1 DIH300      0.0000 
     13 C5          1.8270   18.0910   28.4140 C.3       1 DIH300      0.0000 
     14 C6          0.7630   17.3630   29.0950 C.2       1 DIH300      0.0000 
     15 O6          0.0910   17.7620   30.0400 O.2       1 DIH300      0.0000 
     16 N1          0.5250   16.0520   28.5790 N.am      1 DIH300      0.0000 
     17 C2          1.2350   15.4780   27.4890 C.2       1 DIH300      0.0000 
     18 N3          2.2390   16.1700   26.8370 N.2       1 DIH300      0.0000 
     19 C4          2.4980   17.4850   27.3370 C.3       1 DIH300      0.0000 
     20 H           0.9113   20.4104   22.3507 H         1 DIH300      0.0000 
     21 H           1.0539   19.7614   23.9934 H         1 DIH300      0.0000 
     22 H           3.4001   20.6141   22.2218 H         1 DIH300      0.0000 
     23 H           3.1934   20.2966   25.0304 H         1 DIH300      0.0000 
     24 H           4.6227   20.6060   24.0297 H         1 DIH300      0.0000 
     25 H           1.7253   18.4542   22.2404 H         1 DIH300      0.0000 
     26 H           3.3067   16.8657   23.5330 H         1 DIH300      0.0000 
     27 H           2.1837   17.9731   24.3409 H         1 DIH300      0.0000 
     28 H           5.0790   18.4282   23.7666 H         1 DIH300      0.0000 
     29 H           5.4000   18.8197   26.0945 H         1 DIH300      0.0000 
     30 H           4.8087   17.1704   25.8295 H         1 DIH300      0.0000 
     31 H           3.8282   20.3508   27.6302 H         1 DIH300      0.0000 
     32 H           2.0255   19.9563   29.3046 H         1 DIH300      0.0000 
     33 H           2.8191   17.5320   29.3000 H         1 DIH300      0.0000 
     34 H          -0.2231   15.4776   29.0362 H         1 DIH300      0.0000 
     35 H           0.9822   14.5201   27.1897 H         1 DIH300      0.0000 
     36 H           1.5237   18.0765   26.4462 H         1 DIH300      0.0000 
     37 H           1.8894   22.4314   24.4194 H         1 DIH300      0.0000 
     38 H           4.2974   17.6418   21.6048 H         1 DIH300      0.0000 
@<TRIPOS>BOND
     1    2    1 1    
     2   37    1 1    
     3    3    2 1    
     4   20    2 1    
     5   21    2 1    
     6    4    3 1    
     7    5    3 1    
     8   22    3 1    
     9    8    4 1    
    10   23    4 1    
    11   24    4 1    
    12    6    5 1    
    13    7    5 1    
    14   25    5 1    
    15   38    6 1    
    16    8    7 1    
    17   26    7 1    
    18   27    7 1    
    19    9    8 1    
    20   28    8 1    
    21   10    9 1    
    22   29    9 1    
    23   30    9 1    
    24   11   10 2    
    25   19   10 1    
    26   12   11 1    
    27   31   11 1    
    28   13   12 1    
    29   32   12 1    
    30   14   13 1    
    31   19   13 1    
    32   33   13 1    
    33   15   14 2    
    34   16   14 am   
    35   17   16 1    
    36   34   16 1    
    37   18   17 2    
    38   35   17 1    
    39   19   18 1    
    40   36   19 1    
@<TRIPOS>SUBSTRUCTURE
     1 DIH300      1 GROUP   
@<TRIPOS>SET

