#    Name: 4enx_Z20_1_INTS_M
#    Modification time : Mon Mar 24 18:19:01 2014

@<TRIPOS>MOLECULE
4enx_Z20_1_INTS_M
   59     0     6     0     0
SMALL
NO_CHARGES


@<TRIPOS>ATOM
      1 CA        -43.6785    0.3005    0.9910 C.3       2 GLC5        0.0000 
      2 CA        -43.3300   -1.5540    0.4400 C.3       6 GLL5        0.0000 
      3 CA        -44.0270    2.1550    1.5420 C.3       4 GLP5        0.0000 
      4 CA        -46.0635   -0.8180   -2.7295 C.3       2 GLC5        0.0000 
      5 CA        -44.4040   -1.3140   -1.7170 C.3       6 GLL5        0.0000 
      6 CA        -47.7230   -0.3220   -3.7420 C.3       4 GLP5        0.0000 
      7 CA        -43.9475   -3.2135   -3.5910 C.3       2 GLC5        0.0000 
      8 CA        -43.2300   -1.7290   -2.3200 C.3       6 GLL5        0.0000 
      9 CA        -44.6650   -4.6980   -4.8620 C.3       4 GLP5        0.0000 
     10 CA        -42.4515   -1.0400   -4.2545 C.3       2 GLC5        0.0000 
     11 CA        -41.6730   -0.3510   -6.1890 C.3       4 GLP5        0.0000 
     12 CA        -40.9965   -0.0445   -0.2240 C.3       2 GLC5        0.0000 
     13 CA        -42.1490   -1.9730   -0.1720 C.3       6 GLL5        0.0000 
     14 CA        -39.8440    1.8840   -0.2760 C.3       4 GLP5        0.0000 
     15 CA        -41.5675   -3.8020    0.2425 C.3       2 GLC5        0.0000 
     16 CA        -40.9860   -5.6310    0.6570 C.3       4 GLP5        0.0000 
     17 CA        -40.1380   -4.5225   -1.8020 C.3       2 GLC5        0.0000 
     18 CA        -39.6180   -2.6600   -1.8360 C.3       6 GLL5        0.0000 
     19 CA        -40.6580   -6.3850   -1.7680 C.3       4 GLP5        0.0000 
     20 N         -38.2315   -5.0790   -3.1725 N.am      1 SEC2        0.0000 
     21 N         -38.6260   -3.7470   -3.7620 N.am      5 SEL2        0.0000 
     22 N         -37.8370   -6.4110   -2.5830 N.am      3 SEP2        0.0000 
     23 CA        -39.0130   -0.4530    0.8950 C.3       2 GLC5        0.0000 
     24 CA        -38.9200   -2.1550   -0.2360 C.3       6 GLL5        0.0000 
     25 CA        -39.1060    1.2490    2.0260 C.3       4 GLP5        0.0000 
     26 CA        -39.9530   -3.8930    0.2105 C.3       2 GLC5        0.0000 
     27 CA        -35.8850   -1.8660   -1.6695 C.3       2 GLC5        0.0000 
     28 CA        -37.2650   -2.7550   -0.6440 C.3       6 GLL5        0.0000 
     29 CA        -34.5050   -0.9770   -2.6950 C.3       4 GLP5        0.0000 
     30 CA        -36.6420   -4.5365   -0.7655 C.3       2 GLC5        0.0000 
     31 CA        -36.0190   -6.3180   -0.8870 C.3       4 GLP5        0.0000 
     32 CA        -33.5000    1.0645    0.7490 C.3       2 GLC5        0.0000 
     33 CA        -35.3050    0.2170    0.5830 C.3       6 GLL5        0.0000 
     34 CA        -31.6950    1.9120    0.9150 C.3       4 GLP5        0.0000 
     35 CA        -34.9790    2.0585    1.3885 C.3       2 GLC5        0.0000 
     36 CA        -34.6530    3.9000    2.1940 C.3       4 GLP5        0.0000 
     37 CA        -37.0015    1.0715    0.6540 C.3       2 GLC5        0.0000 
     38 CA        -38.6980    1.9260    0.7250 C.3       4 GLP5        0.0000 
     39 CA        -34.9050   -0.3800   -1.0560 C.3       2 GLC5        0.0000 
     40 CA        -35.3520    1.8680    2.6465 C.3       2 GLC5        0.0000 
     41 CA        -36.0510   -0.1640    3.0990 C.3       6 GLL5        0.0000 
     42 CA        -43.0170   -0.0134   -2.2804 C.3       2 GLC5        0.0000 
     43 CA        -43.0790    1.7610   -2.7700 C.3       4 GLP5        0.0000 
     44 CA        -41.8035   -4.2070   -2.0330 C.3       2 GLC5        0.0000 
     45 CA        -42.0930   -2.0540   -1.5630 C.3       6 GLL5        0.0000 
     46 CA        -42.1190   -6.1350   -2.1480 C.3       4 GLP5        0.0000 
     47 CA        -39.8533   -1.7005   -3.5772 C.3       2 GLC5        0.0000 
     48 CA        -40.8830   -2.5040   -2.2730 C.3       6 GLL5        0.0000 
     49 CA        -39.4560   -0.8190   -5.1000 C.3       4 GLP5        0.0000 
     50 CA        -37.6638   -0.0652    1.8642 C.3       2 GLC5        0.0000 
     51 CA        -36.4630   -2.0300    1.5730 C.3       6 GLL5        0.0000 
     52 CA        -37.4555    0.5897    4.7533 C.3       2 GLC5        0.0000 
     53 CA        -38.5840    1.7160    5.8900 C.3       4 GLP5        0.0000 
     54 CA        -35.5685    0.8242    4.7572 C.3       2 GLC5        0.0000 
     55 CA        -36.6030   -0.9090    4.1340 C.3       6 GLL5        0.0000 
     56 CA        -34.8100    2.1850    5.8980 C.3       4 GLP5        0.0000 
     57 CA        -37.9023   -0.0604    2.8916 C.3       2 GLC5        0.0000 
     58 CA        -44.1078   -3.1461   -0.8847 C.3       2 GLC5        0.0000 
     59 CA        -45.0990   -4.5770   -0.4030 C.3       4 GLP5        0.0000 
@<TRIPOS>BOND
@<TRIPOS>SUBSTRUCTURE
     1 SEC2       20 GROUP        1 X    SEC  0     ROOT SEC X 2
     2 GLC5        1 GROUP        1 X    GLC  0     **** GLC X 6
     3 SEP2       22 GROUP        1 Y    SEP  0     ROOT SEP Y 9
     4 GLP5        3 GROUP        1 Y    GLP  0     **** GLP Y 13
     5 SEL2       21 GROUP        1 Z    SEL  0     ROOT SEL Z 16
     6 GLL5        2 GROUP        1 Z    GLL  0     **** GLL Z 20
@<TRIPOS>SET

