#    Name: 4enx_Z20_1_ligand
#    Modification time : Mon Mar 24 18:19:01 2014

@<TRIPOS>MOLECULE
4enx_Z20_1_ligand
   35    37     1     0     0
SMALL
NO_CHARGES


@<TRIPOS>ATOM
      1 O24       -44.4890   -1.2920    2.4760 O.2       1 Z20402      0.0000 
      2 N22       -43.4040   -1.4610    1.9490 N.pl3     1 Z20402      0.0000 
      3 O23       -42.3660   -1.5750    2.5730 O.2       1 Z20402      0.0000 
      4 C18       -43.3300   -1.5540    0.4400 C.ar      1 Z20402      0.0000 
      5 C17       -44.4660   -1.2190   -0.3210 C.ar      1 Z20402      0.0000 
      6 O25       -45.5700   -0.8250    0.3490 O.co2     1 Z20402      0.0000 
      7 C16       -44.4040   -1.3140   -1.7170 C.ar      1 Z20402      0.0000 
      8 C15       -43.2300   -1.7290   -2.3200 C.ar      1 Z20402      0.0000 
      9 C19       -42.1490   -1.9730   -0.1720 C.ar      1 Z20402      0.0000 
     10 C14       -42.0930   -2.0540   -1.5630 C.ar      1 Z20402      0.0000 
     11 C13       -40.8830   -2.5040   -2.2730 C.2       1 Z20402      0.0000 
     12 C11       -39.6180   -2.6600   -1.8360 C.2       1 Z20402      0.0000 
     13 C10       -38.5390   -3.2890   -2.6490 C.2       1 Z20402      0.0000 
     14 O21       -38.6260   -3.7470   -3.7620 O.2       1 Z20402      0.0000 
     15 N9        -37.2360   -3.3190   -1.9420 N.am      1 Z20402      0.0000 
     16 S12       -38.9200   -2.1550   -0.2360 S.3       1 Z20402      0.0000 
     17 C8        -37.2650   -2.7550   -0.6440 C.2       1 Z20402      0.0000 
     18 N7        -36.3460   -2.6050    0.2550 N.pl3     1 Z20402      0.0000 
     19 C2        -36.4630   -2.0300    1.5730 C.ar      1 Z20402      0.0000 
     20 C3        -35.9800   -0.7290    1.8320 C.ar      1 Z20402      0.0000 
     21 CL1       -35.3050    0.2170    0.5830 Cl        1 Z20402      0.0000 
     22 C4        -36.0510   -0.1640    3.0990 C.ar      1 Z20402      0.0000 
     23 C5        -36.6030   -0.9090    4.1340 C.ar      1 Z20402      0.0000 
     24 C6        -37.0700   -2.2030    3.8980 C.ar      1 Z20402      0.0000 
     25 C1        -36.9970   -2.7770    2.6290 C.ar      1 Z20402      0.0000 
     26 H         -45.2257   -1.0763   -2.2804 H         1 Z20402      0.0000 
     27 H         -43.1797   -1.8046   -3.3534 H         1 Z20402      0.0000 
     28 H         -41.3334   -2.2180    0.3929 H         1 Z20402      0.0000 
     29 H         -41.0902   -2.7404   -3.3269 H         1 Z20402      0.0000 
     30 H         -36.4510   -3.6996   -2.3616 H         1 Z20402      0.0000 
     31 H         -35.3246   -2.9429    0.0376 H         1 Z20402      0.0000 
     32 H         -35.7043    0.7807    3.2669 H         1 Z20402      0.0000 
     33 H         -36.6690   -0.5074    5.0796 H         1 Z20402      0.0000 
     34 H         -37.4778   -2.7460    4.6792 H         1 Z20402      0.0000 
     35 H         -37.3280   -3.7288    2.4705 H         1 Z20402      0.0000 
@<TRIPOS>BOND
     1    2    1 2    
     2    3    2 2    
     3    4    2 1    
     4    5    4 ar   
     5    9    4 ar   
     6    6    5 ar   
     7    7    5 ar   
     8    8    7 ar   
     9   26    7 1    
    10   10    8 ar   
    11   27    8 1    
    12   10    9 ar   
    13   28    9 1    
    14   11   10 1    
    15   12   11 2    
    16   29   11 1    
    17   13   12 1    
    18   16   12 1    
    19   14   13 2    
    20   15   13 am   
    21   17   15 2    
    22   30   15 1    
    23   17   16 1    
    24   18   17 1    
    25   19   18 1    
    26   31   18 1    
    27   20   19 ar   
    28   25   19 ar   
    29   21   20 1    
    30   22   20 ar   
    31   23   22 ar   
    32   32   22 1    
    33   24   23 ar   
    34   33   23 1    
    35   25   24 ar   
    36   34   24 1    
    37   35   25 1    
@<TRIPOS>SUBSTRUCTURE
     1 Z20402      1 GROUP   
@<TRIPOS>SET

