#    Name: 3vvy_ET_3_INTS_M
#    Modification time : Tue Mar 25 01:41:50 2014

@<TRIPOS>MOLECULE
3vvy_ET_3_INTS_M
   52     0     6     0     0
SMALL
NO_CHARGES


@<TRIPOS>ATOM
      1 CA         17.5065  -10.7270   30.6640 C.3       2 GLC5        0.0000 
      2 CA         16.4140  -11.7720   32.2630 C.3       6 GLL5        0.0000 
      3 CA         18.5990   -9.6820   29.0650 C.3       4 GLP5        0.0000 
      4 CA         17.4420  -13.2040   29.5435 C.3       2 GLC5        0.0000 
      5 CA         16.5460  -12.9160   31.4920 C.3       6 GLL5        0.0000 
      6 CA         18.3380  -13.4920   27.5950 C.3       4 GLP5        0.0000 
      7 CA         13.2935  -14.7590   35.7070 C.3       2 GLC5        0.0000 
      8 CA         12.6890  -14.9180   33.6200 C.3       6 GLL5        0.0000 
      9 CA         13.8980  -14.6000   37.7940 C.3       4 GLP5        0.0000 
     10 CA         15.9820  -12.4030   36.0050 C.3       2 GLC5        0.0000 
     11 CA         14.1660  -11.3630   36.3640 C.3       6 GLL5        0.0000 
     12 CA         17.7980  -13.4430   35.6460 C.3       4 GLP5        0.0000 
     13 CA         13.9215  -11.4900   38.5235 C.3       2 GLC5        0.0000 
     14 CA         14.0740  -10.1570   37.0380 C.3       6 GLL5        0.0000 
     15 CA         13.7690  -12.8230   40.0090 C.3       4 GLP5        0.0000 
     16 CA         12.6695  -14.1325   36.5795 C.3       2 GLC5        0.0000 
     17 CA         11.4410  -13.6650   35.3650 C.3       6 GLL5        0.0000 
     18 CA          9.6245  -13.4705   32.6495 C.3       2 GLC5        0.0000 
     19 CA         10.0960  -13.4100   34.6330 C.3       6 GLL5        0.0000 
     20 CA          9.1530  -13.5310   30.6660 C.3       4 GLP5        0.0000 
     21 CA          9.0690  -11.9825   33.7445 C.3       2 GLC5        0.0000 
     22 CA          8.0420  -10.5550   32.8560 C.3       4 GLP5        0.0000 
     23 O           9.7875  -17.9020   33.8520 O.2       1 ALC1        0.0000 
     24 O          11.0480  -18.1510   33.1020 O.2       5 ALL1        0.0000 
     25 O           8.5270  -17.6530   34.6020 O.2       3 ALP1        0.0000 
     26 CA         16.2205   -9.9638   33.7542 C.3       2 GLC5        0.0000 
     27 CA         15.4300  -11.6670   33.2500 C.3       6 GLL5        0.0000 
     28 CA         16.5190   -8.2080   34.7520 C.3       4 GLP5        0.0000 
     29 CA         18.4665  -12.3930   32.1967 C.3       2 GLC5        0.0000 
     30 CA         20.4530  -12.4420   32.5160 C.3       4 GLP5        0.0000 
     31 CA         16.5358  -12.8576   34.3606 C.3       2 GLC5        0.0000 
     32 CA         14.6250  -12.8250   33.3940 C.3       6 GLL5        0.0000 
     33 CA         16.7713  -14.6427   33.2007 C.3       2 GLC5        0.0000 
     34 CA         14.7320  -13.9540   32.6450 C.3       6 GLL5        0.0000 
     35 CA         18.1090  -15.5700   34.2870 C.3       4 GLP5        0.0000 
     36 CA         12.1110  -11.3965   37.0842 C.3       2 GLC5        0.0000 
     37 CA         13.3620  -11.5270   35.1870 C.3       6 GLL5        0.0000 
     38 CA         10.4580  -11.3480   38.3930 C.3       4 GLP5        0.0000 
     39 CA         15.3195   -9.4840   35.7265 C.3       2 GLC5        0.0000 
     40 CA         13.8459  -13.1794   36.6880 C.3       2 GLC5        0.0000 
     41 CA         13.3848   -8.8305   38.5265 C.3       2 GLC5        0.0000 
     42 CA         13.1300   -8.0100   40.2350 C.3       4 GLP5        0.0000 
     43 CA         12.0488  -10.4995   37.6055 C.3       2 GLC5        0.0000 
     44 CA         13.2050   -9.1450   36.5980 C.3       6 GLL5        0.0000 
     45 CA         14.6715   -8.7335   35.3890 C.3       2 GLC5        0.0000 
     46 CA         11.7770   -7.8455   36.5765 C.3       2 GLC5        0.0000 
     47 CA         10.7300   -6.4320   37.1270 C.3       4 GLP5        0.0000 
     48 CA         11.4645  -10.6588   36.7518 C.3       2 GLC5        0.0000 
     49 CA         12.4430   -9.3730   35.4540 C.3       6 GLL5        0.0000 
     50 CA         11.9005   -9.2242   33.5558 C.3       2 GLC5        0.0000 
     51 CA         11.3300   -8.4790   32.0010 C.3       4 GLP5        0.0000 
     52 CA         10.6133  -12.4428   36.6960 C.3       2 GLC5        0.0000 
@<TRIPOS>BOND
@<TRIPOS>SUBSTRUCTURE
     1 ALC1       23 GROUP        1 X    ALC  0     ROOT ALC X 1
     2 GLC5        1 GROUP        1 X    GLC  0     **** GLC X 6
     3 ALP1       25 GROUP        1 Y    ALP  0     ROOT ALP Y 8
     4 GLP5        3 GROUP        1 Y    GLP  0     **** GLP Y 13
     5 ALL1       24 GROUP        1 Z    ALL  0     ROOT ALL Z 15
     6 GLL5        2 GROUP        1 Z    GLL  0     **** GLL Z 20
@<TRIPOS>SET

