#    Name: 3vvy_ET_3_ligand
#    Modification time : Tue Mar 25 01:41:50 2014

@<TRIPOS>MOLECULE
3vvy_ET_3_ligand
   44    47     1     0     0
SMALL
NO_CHARGES


@<TRIPOS>ATOM
      1 C1         13.9460  -16.1980   31.9010 C.ar      1 ET31        0.0000 
      2 C2         13.0250  -17.2450   31.9780 C.ar      1 ET31        0.0000 
      3 C3         11.9700  -17.1310   32.9090 C.ar      1 ET31        0.0000 
      4 C4         11.7970  -16.0040   33.6930 C.ar      1 ET31        0.0000 
      5 N5         12.5200  -13.7500   34.3510 N.ar      1 ET31        0.0000 
      6 C6         13.4810  -12.7820   34.4130 C.ar      1 ET31        0.0000 
      7 C7         15.4300  -11.6670   33.2500 C.ar      1 ET31        0.0000 
      8 C8         16.4140  -11.7720   32.2630 C.ar      1 ET31        0.0000 
      9 C9         16.5460  -12.9160   31.4920 C.ar      1 ET31        0.0000 
     10 C10        15.7240  -14.0380   31.6760 C.ar      1 ET31        0.0000 
     11 C11        14.6250  -12.8250   33.3940 C.ar      1 ET31        0.0000 
     12 C12        14.7320  -13.9540   32.6450 C.ar      1 ET31        0.0000 
     13 C13        13.7420  -15.0620   32.7340 C.ar      1 ET31        0.0000 
     14 C14        12.6890  -14.9180   33.6200 C.ar      1 ET31        0.0000 
     15 C15        13.3620  -11.5270   35.1870 C.ar      1 ET31        0.0000 
     16 C16        14.1660  -11.3630   36.3640 C.ar      1 ET31        0.0000 
     17 C17        14.0740  -10.1570   37.0380 C.ar      1 ET31        0.0000 
     18 C18        13.2050   -9.1450   36.5980 C.ar      1 ET31        0.0000 
     19 C19        12.4430   -9.3730   35.4540 C.ar      1 ET31        0.0000 
     20 C20        12.4990  -10.5660   34.7670 C.ar      1 ET31        0.0000 
     21 C21        11.4410  -13.6650   35.3650 C.3       1 ET31        0.0000 
     22 C22        10.0960  -13.4100   34.6330 C.3       1 ET31        0.0000 
     23 N23        11.0480  -18.1510   33.1020 N.pl3     1 ET31        0.0000 
     24 N24        17.2320  -10.6580   32.0640 N.pl3     1 ET31        0.0000 
     25 H          14.7375  -16.2339   31.2767 H         1 ET31        0.0000 
     26 H          13.1051  -18.0610   31.3893 H         1 ET31        0.0000 
     27 H          10.9979  -15.9487   34.3501 H         1 ET31        0.0000 
     28 H          15.2994  -10.8648   33.8015 H         1 ET31        0.0000 
     29 H          17.2767  -12.9512   30.7502 H         1 ET31        0.0000 
     30 H          15.8536  -14.8713   31.1223 H         1 ET31        0.0000 
     31 H          14.7656  -12.1092   36.6683 H         1 ET31        0.0000 
     32 H          14.6511   -9.9901   37.8803 H         1 ET31        0.0000 
     33 H          13.1373   -8.2686   37.1059 H         1 ET31        0.0000 
     34 H          11.8135   -8.6139   35.1129 H         1 ET31        0.0000 
     35 H          11.8929  -10.7177   33.9498 H         1 ET31        0.0000 
     36 H          11.6148  -12.8436   36.0470 H         1 ET31        0.0000 
     37 H          11.3544  -14.5915   35.9164 H         1 ET31        0.0000 
     38 H          10.3721  -18.0024   33.8238 H         1 ET31        0.0000 
     39 H          11.1396  -18.9461   32.5025 H         1 ET31        0.0000 
     40 H          17.9253  -10.7434   31.3484 H         1 ET31        0.0000 
     41 H          17.0542   -9.8705   32.6541 H         1 ET31        0.0000 
     42 H          10.1132  -12.5573   34.1108 H         1 ET31        0.0000 
     43 H           9.8787  -14.1436   33.9892 H         1 ET31        0.0000 
     44 H           9.3308  -13.3460   35.2736 H         1 ET31        0.0000 
@<TRIPOS>BOND
     1    2    1 ar   
     2   13    1 ar   
     3   25    1 1    
     4    3    2 ar   
     5   26    2 1    
     6    4    3 ar   
     7   23    3 1    
     8   14    4 ar   
     9   27    4 1    
    10    6    5 ar   
    11   14    5 ar   
    12   21    5 1    
    13   11    6 ar   
    14   15    6 1    
    15    8    7 ar   
    16   11    7 ar   
    17   28    7 1    
    18    9    8 ar   
    19   24    8 1    
    20   10    9 ar   
    21   29    9 1    
    22   12   10 ar   
    23   30   10 1    
    24   12   11 ar   
    25   13   12 ar   
    26   14   13 ar   
    27   16   15 ar   
    28   20   15 ar   
    29   17   16 ar   
    30   31   16 1    
    31   18   17 ar   
    32   32   17 1    
    33   19   18 ar   
    34   33   18 1    
    35   20   19 ar   
    36   34   19 1    
    37   35   20 1    
    38   22   21 1    
    39   36   21 1    
    40   37   21 1    
    41   42   22 1    
    42   43   22 1    
    43   44   22 1    
    44   38   23 1    
    45   39   23 1    
    46   40   24 1    
    47   41   24 1    
@<TRIPOS>SUBSTRUCTURE
     1 ET31        1 GROUP   
@<TRIPOS>SET

