#    Name: 4iq7_1G9_1_INTS_M
#    Modification time : Tue Mar 25 04:14:11 2014

@<TRIPOS>MOLECULE
4iq7_1G9_1_INTS_M
   27     0     6     0     0
SMALL
NO_CHARGES


@<TRIPOS>ATOM
      1 N          10.0330   22.3805    0.3350 N.am      1 SEC2        0.0000 
      2 N           8.9500   21.7890   -0.5510 N.am      5 SEL2        0.0000 
      3 N          11.1160   22.9720    1.2210 N.am      3 SEP2        0.0000 
      4 CA          4.7440   19.3995    0.2450 C.3       2 GLC5        0.0000 
      5 CA          6.5090   19.1480   -0.4790 C.3       6 GLL5        0.0000 
      6 CA          2.9790   19.6510    0.9690 C.3       4 GLP5        0.0000 
      7 CA          6.8830   17.9620    1.3440 C.3       2 GLC5        0.0000 
      8 CA          7.2570   16.7760    3.1670 C.3       4 GLP5        0.0000 
      9 CA          3.9215   19.5290   -1.1625 C.3       2 GLC5        0.0000 
     10 CA          5.6160   19.1750   -1.7140 C.3       6 GLL5        0.0000 
     11 CA          2.2270   19.8830   -0.6110 C.3       4 GLP5        0.0000 
     12 CA          9.5605   20.6355    0.7415 C.3       2 GLC5        0.0000 
     13 CA          9.4790   19.5730   -1.1390 C.3       6 GLL5        0.0000 
     14 CA          9.6420   21.6980    2.6220 C.3       4 GLP5        0.0000 
     15 CA         11.5585   19.9960   -0.6570 C.3       2 GLC5        0.0000 
     16 CA         13.6380   20.4190   -0.1750 C.3       4 GLP5        0.0000 
     17 CA         11.6930   20.7780   -1.6620 C.3       2 GLC5        0.0000 
     18 CA          9.9150   19.8840   -2.3000 C.3       6 GLL5        0.0000 
     19 CA         13.4710   21.6720   -1.0240 C.3       4 GLP5        0.0000 
     20 N           6.6595   19.3765   -8.2920 N.am      1 SEC2        0.0000 
     21 N           6.3880   19.2440   -6.8180 N.am      5 SEL2        0.0000 
     22 N           6.9310   19.5090   -9.7660 N.am      3 SEP2        0.0000 
     23 CA         10.0330   21.0228   -4.4713 C.3       2 GLC5        0.0000 
     24 CA          8.9570   19.7810   -3.4570 C.3       6 GLL5        0.0000 
     25 CA         10.6300   22.2130   -6.0640 C.3       4 GLP5        0.0000 
     26 CA          9.0316   21.1826   -5.5929 C.3       2 GLC5        0.0000 
     27 CA          8.1320   20.8950   -3.9310 C.3       6 GLL5        0.0000 
@<TRIPOS>BOND
@<TRIPOS>SUBSTRUCTURE
     1 SEC2        1 GROUP        1 X    SEC  0     ROOT SEC X 2
     2 GLC5        4 GROUP        1 X    GLC  0     **** GLC X 6
     3 SEP2        3 GROUP        1 Y    SEP  0     ROOT SEP Y 9
     4 GLP5        6 GROUP        1 Y    GLP  0     **** GLP Y 13
     5 SEL2        2 GROUP        1 Z    SEL  0     ROOT SEL Z 16
     6 GLL5        5 GROUP        1 Z    GLL  0     **** GLL Z 20
@<TRIPOS>SET

