#    Name: 4iq7_1G9_1_ligand
#    Modification time : Tue Mar 25 04:14:11 2014

@<TRIPOS>MOLECULE
4iq7_1G9_1_ligand
   31    32     1     0     0
SMALL
NO_CHARGES


@<TRIPOS>ATOM
      1 OB          8.9500   21.7890   -0.5510 O.2       1 1G9406      0.0000 
      2 CB          8.5080   20.6960   -0.6660 C.2       1 1G9406      0.0000 
      3 NA          7.1550   20.4690   -0.3820 N.am      1 1G9406      0.0000 
      4 CAA         6.5090   19.1480   -0.4790 C.3       1 1G9406      0.0000 
      5 CBA         5.6160   19.1750   -1.7140 C.3       1 1G9406      0.0000 
      6 CAB         9.4790   19.5730   -1.1390 C.3       1 1G9406      0.0000 
      7 NB          8.8640   18.3090   -0.8050 N.am      1 1G9406      0.0000 
      8 CA          7.5980   18.0160   -0.5200 C.2       1 1G9406      0.0000 
      9 OA          7.4120   16.8110   -0.3080 O.2       1 1G9406      0.0000 
     10 CBB         9.9150   19.8840   -2.3000 C.3       1 1G9406      0.0000 
     11 CGB         8.9570   19.7810   -3.4570 C.ar      1 1G9406      0.0000 
     12 CD4         8.1320   20.8950   -3.9310 C.ar      1 1G9406      0.0000 
     13 CE4         7.2330   20.7580   -5.0800 C.ar      1 1G9406      0.0000 
     14 CZB         7.1840   19.4780   -5.7380 C.ar      1 1G9406      0.0000 
     15 OHB         6.3880   19.2440   -6.8180 O.3       1 1G9406      0.0000 
     16 CE3         7.9920   18.3830   -5.2530 C.ar      1 1G9406      0.0000 
     17 CD3         8.8810   18.5350   -4.1300 C.ar      1 1G9406      0.0000 
     18 H           6.5472   21.2588   -0.0834 H         1 1G9406      0.0000 
     19 H           5.8911   18.9869    0.3922 H         1 1G9406      0.0000 
     20 H          10.3279   19.7159   -0.3384 H         1 1G9406      0.0000 
     21 H           9.5927   17.4792   -0.7950 H         1 1G9406      0.0000 
     22 H          10.8364   19.2738   -2.6262 H         1 1G9406      0.0000 
     23 H          10.3382   20.9539   -2.3632 H         1 1G9406      0.0000 
     24 H           8.1847   21.7892   -3.4488 H         1 1G9406      0.0000 
     25 H           6.6845   21.5239   -5.3835 H         1 1G9406      0.0000 
     26 H           7.9297   17.4746   -5.7217 H         1 1G9406      0.0000 
     27 H           9.4457   17.7489   -3.8297 H         1 1G9406      0.0000 
     28 H           6.1399   19.3511   -2.5474 H         1 1G9406      0.0000 
     29 H           5.1384   18.3064   -1.8460 H         1 1G9406      0.0000 
     30 H           4.9169   19.8873   -1.6513 H         1 1G9406      0.0000 
     31 H           5.9446   18.3681   -6.6276 H         1 1G9406      0.0000 
@<TRIPOS>BOND
     1    2    1 2    
     2    3    2 am   
     3    6    2 1    
     4    4    3 1    
     5   18    3 1    
     6    5    4 1    
     7    8    4 1    
     8   19    4 1    
     9   28    5 1    
    10   29    5 1    
    11   30    5 1    
    12    7    6 1    
    13   10    6 1    
    14   20    6 1    
    15    8    7 am   
    16   21    7 1    
    17    9    8 2    
    18   11   10 1    
    19   22   10 1    
    20   23   10 1    
    21   12   11 ar   
    22   17   11 ar   
    23   13   12 ar   
    24   24   12 1    
    25   14   13 ar   
    26   25   13 1    
    27   15   14 1    
    28   16   14 ar   
    29   31   15 1    
    30   17   16 ar   
    31   26   16 1    
    32   27   17 1    
@<TRIPOS>SUBSTRUCTURE
     1 1G9406      1 GROUP   
@<TRIPOS>SET

