#    Name: 3fhr_P4O_1_INTS_M
#    Modification time : Tue Mar 25 04:08:37 2014

@<TRIPOS>MOLECULE
3fhr_P4O_1_INTS_M
   70     0     6     0     0
SMALL
NO_CHARGES


@<TRIPOS>ATOM
      1 CA         21.0645    8.9025   14.2345 C.3       2 GLC5        0.0000 
      2 CA         21.6220    8.0020   12.6900 C.3       6 GLL5        0.0000 
      3 CA         20.5070    9.8030   15.7790 C.3       4 GLP5        0.0000 
      4 CA         23.3375    6.8700   12.4230 C.3       2 GLC5        0.0000 
      5 CA         25.0530    5.7380   12.1560 C.3       4 GLP5        0.0000 
      6 CA         20.6245    5.4145    9.9805 C.3       2 GLC5        0.0000 
      7 CA         20.3610    6.0550   12.0270 C.3       6 GLL5        0.0000 
      8 CA         20.8880    4.7740    7.9340 C.3       4 GLP5        0.0000 
      9 N          23.7660    6.4060   14.0550 N.am      1 SEC2        0.0000 
     10 N          22.5770    6.1440   14.8430 N.am      5 SEL2        0.0000 
     11 N          24.9550    6.6680   13.2670 N.am      3 SEP2        0.0000 
     12 CA         23.6110    5.0605   17.9525 C.3       2 GLC5        0.0000 
     13 CA         22.8990    5.4430   15.9480 C.3       6 GLL5        0.0000 
     14 CA         24.3230    4.6780   19.9570 C.3       4 GLP5        0.0000 
     15 CA         24.4035    6.8065   15.4360 C.3       2 GLC5        0.0000 
     16 CA         25.9080    8.1700   14.9240 C.3       4 GLP5        0.0000 
     17 CA         22.7470    3.8040   18.2620 C.3       2 GLC5        0.0000 
     18 CA         22.0420    4.5030   16.4870 C.3       6 GLL5        0.0000 
     19 CA         23.4520    3.1050   20.0370 C.3       4 GLP5        0.0000 
     20 CA         19.5880    4.8675   17.5110 C.3       2 GLC5        0.0000 
     21 CA         19.8910    3.2820   16.4160 C.3       6 GLL5        0.0000 
     22 CA         19.2850    6.4530   18.6060 C.3       4 GLP5        0.0000 
     23 CA         20.9850    3.1145   19.2840 C.3       2 GLC5        0.0000 
     24 CA         19.9580    2.5870   17.6120 C.3       6 GLL5        0.0000 
     25 CA         22.0120    3.6420   20.9560 C.3       4 GLP5        0.0000 
     26 N          18.2020    0.3930   20.8650 N.am      1 SEC2        0.0000 
     27 N          18.8820    0.5350   19.5950 N.am      5 SEL2        0.0000 
     28 N          17.5220    0.2510   22.1350 N.am      3 SEP2        0.0000 
     29 CA         15.1995    0.3505   18.5750 C.3       2 GLC5        0.0000 
     30 CA         16.3950    0.3620   17.1120 C.3       6 GLL5        0.0000 
     31 CA         14.0040    0.3390   20.0380 C.3       4 GLP5        0.0000 
     32 CA         17.5845   -1.1125   18.1065 C.3       2 GLC5        0.0000 
     33 CA         18.7740   -2.5870   19.1010 C.3       4 GLP5        0.0000 
     34 CA         19.5700    1.8465   14.9010 C.3       2 GLC5        0.0000 
     35 CA         18.0330    2.1310   16.4410 C.3       6 GLL5        0.0000 
     36 CA         21.1070    1.5620   13.3610 C.3       4 GLP5        0.0000 
     37 CA         20.3307    9.9610   12.5577 C.3       2 GLC5        0.0000 
     38 CA         21.2730    8.5830   11.4580 C.3       6 GLL5        0.0000 
     39 CA         19.1760   10.6980   13.8330 C.3       4 GLP5        0.0000 
     40 CA         23.0419    9.6979   12.7727 C.3       2 GLC5        0.0000 
     41 CA         21.6980    9.8650   11.1070 C.3       6 GLL5        0.0000 
     42 CA         24.5110   10.3170   13.9550 C.3       4 GLP5        0.0000 
     43 CA         22.8579    9.1456    9.6144 C.3       2 GLC5        0.0000 
     44 CA         24.6850    8.3990    9.5010 C.3       4 GLP5        0.0000 
     45 CA         20.5873    6.4508    8.9320 C.3       2 GLC5        0.0000 
     46 CA         20.4780    7.8630   10.5490 C.3       6 GLL5        0.0000 
     47 CA         22.8239    8.2384   10.4062 C.3       2 GLC5        0.0000 
     48 CA         19.6113    7.5030   13.7665 C.3       2 GLC5        0.0000 
     49 CA         21.1140    6.7210   12.9770 C.3       6 GLL5        0.0000 
     50 CA         18.4850    8.6180   15.0310 C.3       4 GLP5        0.0000 
     51 CA         22.5497    5.3950   12.4860 C.3       2 GLC5        0.0000 
     52 CA         24.3620    4.4020   12.4700 C.3       4 GLP5        0.0000 
     53 CA         19.7272    7.0523   14.7450 C.3       2 GLC5        0.0000 
     54 CA         21.4120    5.9590   14.2130 C.3       6 GLL5        0.0000 
     55 CA         22.6657    4.9443   13.4645 C.3       2 GLC5        0.0000 
     56 CA         21.0382    3.5243   13.9100 C.3       2 GLC5        0.0000 
     57 CA         22.5538    6.5085   17.1352 C.3       2 GLC5        0.0000 
     58 CA         22.6370    8.0440   18.0530 C.3       4 GLP5        0.0000 
     59 CA         23.7413    4.2645   14.8747 C.3       2 GLC5        0.0000 
     60 CA         25.0120    3.5560   13.5320 C.3       4 GLP5        0.0000 
     61 CA         20.3231    5.5126   17.2423 C.3       2 GLC5        0.0000 
     62 CA         20.8858    2.6980   14.8247 C.3       2 GLC5        0.0000 
     63 CA         20.8340    4.2690   15.8350 C.3       6 GLL5        0.0000 
     64 CA         16.3130    3.5805   15.9742 C.3       2 GLC5        0.0000 
     65 CA         15.2630    5.3460   15.6660 C.3       4 GLP5        0.0000 
     66 CA         18.1807    3.4519   18.2251 C.3       2 GLC5        0.0000 
     67 CA         17.6530    4.7350   19.4190 C.3       4 GLP5        0.0000 
     68 CA         20.3215    0.9687   16.7255 C.3       2 GLC5        0.0000 
     69 CA         18.8100    1.8260   17.6310 C.3       6 GLL5        0.0000 
     70 CA         21.4700   -0.5190   16.4260 C.3       4 GLP5        0.0000 
@<TRIPOS>BOND
@<TRIPOS>SUBSTRUCTURE
     1 SEC2        9 GROUP        1 X    SEC  0     ROOT SEC X 2
     2 GLC5        1 GROUP        1 X    GLC  0     **** GLC X 6
     3 SEP2       11 GROUP        1 Y    SEP  0     ROOT SEP Y 9
     4 GLP5        3 GROUP        1 Y    GLP  0     **** GLP Y 13
     5 SEL2       10 GROUP        1 Z    SEL  0     ROOT SEL Z 16
     6 GLL5        2 GROUP        1 Z    GLL  0     **** GLL Z 20
@<TRIPOS>SET

