#    Name: 3fhr_P4O_1_ligand
#    Modification time : Tue Mar 25 04:08:37 2014

@<TRIPOS>MOLECULE
3fhr_P4O_1_ligand
   42    46     1     0     0
SMALL
NO_CHARGES


@<TRIPOS>ATOM
      1 C19        21.6220    8.0020   12.6900 C.ar      1 P4O1        0.0000 
      2 C20        21.2730    8.5830   11.4580 C.ar      1 P4O1        0.0000 
      3 C25        21.6980    9.8650   11.1070 C.ar      1 P4O1        0.0000 
      4 C24        21.3330   10.3900    9.8620 C.ar      1 P4O1        0.0000 
      5 C23        20.5460    9.6570    8.9710 C.ar      1 P4O1        0.0000 
      6 C22        20.0950    8.3920    9.3110 C.ar      1 P4O1        0.0000 
      7 C21        20.4780    7.8630   10.5490 C.ar      1 P4O1        0.0000 
      8 N16        20.0410    6.6290   10.8650 N.ar      1 P4O1        0.0000 
      9 C17        20.3610    6.0550   12.0270 C.ar      1 P4O1        0.0000 
     10 C18        21.1140    6.7210   12.9770 C.ar      1 P4O1        0.0000 
     11 C14        21.4120    5.9590   14.2130 C.ar      1 P4O1        0.0000 
     12 C13        20.5270    5.0140   14.7050 C.ar      1 P4O1        0.0000 
     13 N15        22.5770    6.1440   14.8430 N.ar      1 P4O1        0.0000 
     14 C10        22.8990    5.4430   15.9480 C.ar      1 P4O1        0.0000 
     15 C11        22.0420    4.5030   16.4870 C.ar      1 P4O1        0.0000 
     16 C12        20.8340    4.2690   15.8350 C.ar      1 P4O1        0.0000 
     17 C2         19.8910    3.2820   16.4160 C.2       1 P4O1        0.0000 
     18 C3         19.9580    2.5870   17.6120 C.2       1 P4O1        0.0000 
     19 C4         18.8100    1.8260   17.6310 C.2       1 P4O1        0.0000 
     20 C6         18.2400    0.8760   18.6250 C.2       1 P4O1        0.0000 
     21 O26        18.8820    0.5350   19.5950 O.2       1 P4O1        0.0000 
     22 N7         16.9860    0.4580   18.4510 N.am      1 P4O1        0.0000 
     23 C8         16.3950    0.3620   17.1120 C.3       1 P4O1        0.0000 
     24 C9         16.6930    1.4990   16.1240 C.3       1 P4O1        0.0000 
     25 C5         18.0330    2.1310   16.4410 C.2       1 P4O1        0.0000 
     26 N1         18.7320    3.0360   15.7240 N.pl3     1 P4O1        0.0000 
     27 H          22.2148    8.4850   13.3448 H         1 P4O1        0.0000 
     28 H          22.2689   10.4153   11.7499 H         1 P4O1        0.0000 
     29 H          21.6523   11.3375    9.5984 H         1 P4O1        0.0000 
     30 H          20.3019   10.0642    8.0558 H         1 P4O1        0.0000 
     31 H          19.5022    7.8575    8.6835 H         1 P4O1        0.0000 
     32 H          20.0447    5.0789   12.2441 H         1 P4O1        0.0000 
     33 H          19.6225    4.8601   14.2234 H         1 P4O1        0.0000 
     34 H          23.8207    5.6045   16.4218 H         1 P4O1        0.0000 
     35 H          22.2811    3.9950   17.3334 H         1 P4O1        0.0000 
     36 H          20.6273    2.6280   18.2529 H         1 P4O1        0.0000 
     37 H          16.3713    0.1830   19.2378 H         1 P4O1        0.0000 
     38 H          15.2773    0.2727   17.1914 H         1 P4O1        0.0000 
     39 H          16.7109   -0.5986   16.6211 H         1 P4O1        0.0000 
     40 H          15.9075    2.2464   16.1991 H         1 P4O1        0.0000 
     41 H          16.7070    1.0949   15.1152 H         1 P4O1        0.0000 
     42 H          18.4813    3.4343   14.8974 H         1 P4O1        0.0000 
@<TRIPOS>BOND
     1    2    1 ar   
     2   10    1 ar   
     3   27    1 1    
     4    3    2 ar   
     5    7    2 ar   
     6    4    3 ar   
     7   28    3 1    
     8    5    4 ar   
     9   29    4 1    
    10    6    5 ar   
    11   30    5 1    
    12    7    6 ar   
    13   31    6 1    
    14    8    7 ar   
    15    9    8 ar   
    16   10    9 ar   
    17   32    9 1    
    18   11   10 1    
    19   12   11 ar   
    20   13   11 ar   
    21   16   12 ar   
    22   33   12 1    
    23   14   13 ar   
    24   15   14 ar   
    25   34   14 1    
    26   16   15 ar   
    27   35   15 1    
    28   17   16 1    
    29   18   17 2    
    30   26   17 1    
    31   19   18 1    
    32   36   18 1    
    33   20   19 1    
    34   25   19 2    
    35   21   20 2    
    36   22   20 am   
    37   23   22 1    
    38   37   22 1    
    39   24   23 1    
    40   38   23 1    
    41   39   23 1    
    42   25   24 1    
    43   40   24 1    
    44   41   24 1    
    45   26   25 1    
    46   42   26 1    
@<TRIPOS>SUBSTRUCTURE
     1 P4O1        1 GROUP   
@<TRIPOS>SET

