#    Name: 2x9d_ITC_1_INTS_M
#    Modification time : Tue Mar 25 05:33:31 2014

@<TRIPOS>MOLECULE
2x9d_ITC_1_INTS_M
   57     0    12     0     0
SMALL
NO_CHARGES


@<TRIPOS>ATOM
      1 CA         19.3980   31.7300   34.3135 C.3       4 GLC5        0.0000 
      2 CA         19.5870   33.8060   34.6670 C.3      12 GLL5        0.0000 
      3 CA         19.2090   29.6540   33.9600 C.3       8 GLP5        0.0000 
      4 CA         18.4195   35.6180   34.7835 C.3       4 GLC5        0.0000 
      5 CA         17.2520   37.4300   34.9000 C.3       8 GLP5        0.0000 
      6 N          17.5220   32.8540   36.3920 N.am      2 SEC2        0.0000 
      7 N          17.7490   32.3640   34.9200 N.am     10 SEL2        0.0000 
      8 N          17.2950   33.3440   37.8640 N.am      6 SEP2        0.0000 
      9 N          19.5470   31.2450   35.9790 N.am      2 SEC2        0.0000 
     10 N          19.4660   32.6590   36.7020 N.am     10 SEL2        0.0000 
     11 N          19.6280   29.8310   35.2560 N.am      6 SEP2        0.0000 
     12 N          19.4705   31.5265   37.6345 N.am      2 SEC2        0.0000 
     13 N          19.4750   30.3940   38.5670 N.am      6 SEP2        0.0000 
     14 N          18.3805   33.0015   37.2830 N.am      2 SEC2        0.0000 
     15 O          21.6765   32.4220   38.2425 O.2       1 ALC1        0.0000 
     16 O          22.1250   33.2180   37.2800 O.2       9 ALL1        0.0000 
     17 O          21.2280   31.6260   39.2050 O.2       5 ALP1        0.0000 
     18 CA         24.1530   31.7615   35.4535 C.3       4 GLC5        0.0000 
     19 CA         23.1000   32.4290   36.5070 C.3      12 GLL5        0.0000 
     20 CA         25.2060   31.0940   34.4000 C.3       8 GLP5        0.0000 
     21 CA         22.6245   35.8660   39.0465 C.3       4 GLC5        0.0000 
     22 CA         22.7230   33.9360   38.3990 C.3      12 GLL5        0.0000 
     23 CA         22.5260   37.7960   39.6940 C.3       8 GLP5        0.0000 
     24 CA         24.5210   33.0395   39.3840 C.3       4 GLC5        0.0000 
     25 CA         26.3190   32.1430   40.3690 C.3       8 GLP5        0.0000 
     26 CA         24.2250   35.4130   35.7845 C.3       4 GLC5        0.0000 
     27 CA         22.1190   35.0990   35.5330 C.3      12 GLL5        0.0000 
     28 CA         26.3310   35.7270   36.0360 C.3       8 GLP5        0.0000 
     29 CA         22.1595   37.1850   37.7710 C.3       4 GLC5        0.0000 
     30 CA         21.7930   36.5740   35.8480 C.3      12 GLL5        0.0000 
     31 CA         24.4225   36.6460   35.4830 C.3       4 GLC5        0.0000 
     32 CA         22.5140   37.5650   34.9300 C.3      12 GLL5        0.0000 
     33 CA         22.4110   41.2345   37.8960 C.3       4 GLC5        0.0000 
     34 CA         22.4960   39.5140   36.6550 C.3      12 GLL5        0.0000 
     35 CA         22.3260   42.9550   39.1370 C.3       8 GLP5        0.0000 
     36 CA         22.5110   38.6550   38.1745 C.3       4 GLC5        0.0000 
     37 CA         26.0790   39.0495   36.8035 C.3       4 GLC5        0.0000 
     38 CA         25.5790   39.1210   34.9130 C.3      12 GLL5        0.0000 
     39 CA         26.5790   38.9780   38.6940 C.3       8 GLP5        0.0000 
     40 CA         25.9550   37.4240   35.4745 C.3       4 GLC5        0.0000 
     41 CA         27.5465   38.7750   34.8055 C.3       4 GLC5        0.0000 
     42 CA         29.5140   38.4290   34.6980 C.3       8 GLP5        0.0000 
     43 CA         22.9405   42.6065   30.6775 C.3       4 GLC5        0.0000 
     44 CA         23.9360   41.5060   32.1260 C.3      12 GLL5        0.0000 
     45 CA         21.9450   43.7070   29.2290 C.3       8 GLP5        0.0000 
     46 NZ         22.7210   43.3970   31.0985 N.4       3 LYC4        0.0000 
     47 NZ         21.6850   42.0150   31.6200 N.4      11 LYL4        0.0000 
     48 NZ         23.7570   44.7790   30.5770 N.4       7 LYP4        0.0000 
     49 CA         20.8430   40.0580   31.9860 C.3       4 GLC5        0.0000 
     50 CA         22.1270   40.5680   33.4150 C.3      12 GLL5        0.0000 
     51 CA         19.5590   39.5480   30.5570 C.3       8 GLP5        0.0000 
     52 CA         20.3850   37.9805   32.4930 C.3       4 GLC5        0.0000 
     53 CA         22.1590   37.1670   33.5170 C.3      12 GLL5        0.0000 
     54 CA         18.6110   38.7940   31.4690 C.3       8 GLP5        0.0000 
     55 N          23.7315   35.0105   30.9750 N.am      2 SEC2        0.0000 
     56 N          23.4020   35.5940   32.3380 N.am     10 SEL2        0.0000 
     57 N          24.0610   34.4270   29.6120 N.am      6 SEP2        0.0000 
@<TRIPOS>BOND
@<TRIPOS>SUBSTRUCTURE
     1 ALC1       15 GROUP        1 X    ALC  0     ROOT ALC X 1
     2 SEC2        6 GROUP        1 X    SEC  0     **** SEC X 2
     3 LYC4       46 GROUP        1 X    LYC  0     **** LYC X 4
     4 GLC5        1 GROUP        1 X    GLC  0     **** GLC X 6
     5 ALP1       17 GROUP        1 Y    ALP  0     ROOT ALP Y 8
     6 SEP2        8 GROUP        1 Y    SEP  0     **** SEP Y 9
     7 LYP4       48 GROUP        1 Y    LYP  0     **** LYP Y 11
     8 GLP5        3 GROUP        1 Y    GLP  0     **** GLP Y 13
     9 ALL1       16 GROUP        1 Z    ALL  0     ROOT ALL Z 15
    10 SEL2        7 GROUP        1 Z    SEL  0     **** SEL Z 16
    11 LYL4       47 GROUP        1 Z    LYL  0     **** LYL Z 18
    12 GLL5        2 GROUP        1 Z    GLL  0     **** GLL Z 20
@<TRIPOS>SET

