#    Name: 2x9d_ITC_1_ligand
#    Modification time : Tue Mar 25 05:33:31 2014

@<TRIPOS>MOLECULE
2x9d_ITC_1_ligand
   55    58     1     0     0
SMALL
NO_CHARGES


@<TRIPOS>ATOM
      1 C1         20.3340   34.7080   33.8070 C.2       1 ITC1209     0.0000 
      2 O1         19.7720   35.3120   32.8670 O.2       1 ITC1209     0.0000 
      3 C2         19.5870   33.8060   34.6670 C.2       1 ITC1209     0.0000 
      4 C2'        18.3180   33.1890   34.2120 C.2       1 ITC1209     0.0000 
      5 O2'        17.7490   32.3640   34.9200 O.2       1 ITC1209     0.0000 
      6 N2'        17.7210   33.6120   33.0950 N.am      1 ITC1209     0.0000 
      7 C3         20.0990   33.5240   35.9060 C.2       1 ITC1209     0.0000 
      8 O3         19.4660   32.6590   36.7020 O.co2     1 ITC1209     0.0000 
      9 C4         21.3190   34.1850   36.5040 C.3       1 ITC1209     0.0000 
     10 N4         22.1250   33.2180   37.2800 N.4       1 ITC1209     0.0000 
     11 C4'        23.1000   32.4290   36.5070 C.3       1 ITC1209     0.0000 
     12 C4D        22.7230   33.9360   38.3990 C.3       1 ITC1209     0.0000 
     13 C4A        22.1190   35.0990   35.5330 C.3       1 ITC1209     0.0000 
     14 C5         21.7930   36.5740   35.8480 C.3       1 ITC1209     0.0000 
     15 C5A        22.5140   37.5650   34.9300 C.3       1 ITC1209     0.0000 
     16 C6         22.2400   39.0600   35.2130 C.3       1 ITC1209     0.0000 
     17 O6         20.8680   39.3870   34.9430 O.3       1 ITC1209     0.0000 
     18 C6'        22.4960   39.5140   36.6550 C.3       1 ITC1209     0.0000 
     19 C6A        23.0000   39.8800   34.1990 C.ar      1 ITC1209     0.0000 
     20 C7         24.3800   39.9870   33.9520 C.ar      1 ITC1209     0.0000 
     21 CL7        25.5790   39.1210   34.9130 Cl        1 ITC1209     0.0000 
     22 C8         24.8520   40.8130   32.9240 C.ar      1 ITC1209     0.0000 
     23 C9         23.9360   41.5060   32.1260 C.ar      1 ITC1209     0.0000 
     24 C10        22.5650   41.3720   32.3710 C.ar      1 ITC1209     0.0000 
     25 O10        21.6850   42.0150   31.6200 O.co2     1 ITC1209     0.0000 
     26 C6B        22.1270   40.5680   33.4150 C.ar      1 ITC1209     0.0000 
     27 O11        19.7100   40.7800   33.2080 O.2       1 ITC1209     0.0000 
     28 C5B        22.1590   37.1670   33.5170 C.3       1 ITC1209     0.0000 
     29 C12        22.4850   35.8800   33.2320 C.2       1 ITC1209     0.0000 
     30 O12        23.4020   35.5940   32.3380 O.2       1 ITC1209     0.0000 
     31 C4B        21.8490   34.8010   34.0540 C.3       1 ITC1209     0.0000 
     32 O4B        22.4850   33.5620   33.7640 O.3       1 ITC1209     0.0000 
     33 C11        20.7430   40.2950   33.8070 C.2       1 ITC1209     0.0000 
     34 H          18.2002   34.3248   32.5828 H         1 ITC1209     0.0000 
     35 H          16.8484   33.1780   32.8710 H         1 ITC1209     0.0000 
     36 H          20.8861   34.9210   37.2934 H         1 ITC1209     0.0000 
     37 H          21.3843   32.4914   37.7372 H         1 ITC1209     0.0000 
     38 H          23.1788   34.9516   35.7338 H         1 ITC1209     0.0000 
     39 H          22.0704   36.7808   36.8898 H         1 ITC1209     0.0000 
     40 H          20.7090   36.7218   35.7570 H         1 ITC1209     0.0000 
     41 H          23.5976   37.3838   35.0488 H         1 ITC1209     0.0000 
     42 H          25.8549   40.9077   32.7596 H         1 ITC1209     0.0000 
     43 H          24.2663   42.1075   31.3674 H         1 ITC1209     0.0000 
     44 H          22.6651   37.9020   32.8396 H         1 ITC1209     0.0000 
     45 H          21.0654   37.3749   33.3900 H         1 ITC1209     0.0000 
     46 H          23.7726   33.0125   36.0518 H         1 ITC1209     0.0000 
     47 H          23.6086   31.7942   37.0886 H         1 ITC1209     0.0000 
     48 H          22.6562   31.8836   35.7960 H         1 ITC1209     0.0000 
     49 H          23.2813   33.3345   38.9704 H         1 ITC1209     0.0000 
     50 H          23.3159   34.6792   38.0891 H         1 ITC1209     0.0000 
     51 H          22.0288   34.3430   38.9927 H         1 ITC1209     0.0000 
     52 H          23.4470   39.3676   36.9272 H         1 ITC1209     0.0000 
     53 H          22.3026   40.4874   36.7778 H         1 ITC1209     0.0000 
     54 H          21.9244   39.0169   37.3079 H         1 ITC1209     0.0000 
     55 H          23.2061   33.7884   33.1092 H         1 ITC1209     0.0000 
@<TRIPOS>BOND
     1    2    1 2    
     2    3    1 1    
     3   31    1 1    
     4    4    3 1    
     5    7    3 2    
     6    5    4 2    
     7    6    4 am   
     8   34    6 1    
     9   35    6 1    
    10    8    7 ar   
    11    9    7 1    
    12   10    9 1    
    13   13    9 1    
    14   36    9 1    
    15   11   10 1    
    16   12   10 1    
    17   37   10 1    
    18   46   11 1    
    19   47   11 1    
    20   48   11 1    
    21   49   12 1    
    22   50   12 1    
    23   51   12 1    
    24   14   13 1    
    25   31   13 1    
    26   38   13 1    
    27   15   14 1    
    28   39   14 1    
    29   40   14 1    
    30   16   15 1    
    31   28   15 1    
    32   41   15 1    
    33   17   16 1    
    34   18   16 1    
    35   19   16 1    
    36   33   17 1    
    37   52   18 1    
    38   53   18 1    
    39   54   18 1    
    40   20   19 ar   
    41   26   19 ar   
    42   21   20 1    
    43   22   20 ar   
    44   23   22 ar   
    45   42   22 1    
    46   24   23 ar   
    47   43   23 1    
    48   25   24 ar   
    49   26   24 ar   
    50   33   26 1    
    51   33   27 2    
    52   29   28 1    
    53   44   28 1    
    54   45   28 1    
    55   30   29 2    
    56   31   29 1    
    57   32   31 1    
    58   55   32 1    
@<TRIPOS>SUBSTRUCTURE
     1 ITC1209     1 GROUP   
@<TRIPOS>SET

