#    Name: 3o2x_3O2_1_INTS_M
#    Modification time : Tue Mar 25 03:11:33 2014

@<TRIPOS>MOLECULE
3o2x_3O2_1_INTS_M
   77     0    12     0     0
SMALL
NO_CHARGES


@<TRIPOS>ATOM
      1 CA         42.7820   94.5430   84.1280 C.3       4 GLC5        0.0000 
      2 CA         41.1760   93.2830   84.8700 C.3      12 GLL5        0.0000 
      3 CA         44.3880   95.8030   83.3860 C.3       8 GLP5        0.0000 
      4 CA         42.5010   93.5390   86.2605 C.3       4 GLC5        0.0000 
      5 CA         43.8260   93.7950   87.6510 C.3       8 GLP5        0.0000 
      6 O          50.3035   80.1620   71.9700 O.2       1 ALC1        0.0000 
      7 O          49.7050   79.6770   73.1560 O.2       9 ALL1        0.0000 
      8 O          50.9020   80.6470   70.7840 O.2       5 ALP1        0.0000 
      9 N          47.7195   81.3165   69.3715 N.am      2 SEC2        0.0000 
     10 N          47.9280   81.0200   70.7430 N.am     10 SEL2        0.0000 
     11 N          47.5110   81.6130   68.0000 N.am      6 SEP2        0.0000 
     12 N          48.9510   81.7085   69.8640 N.am      2 SEC2        0.0000 
     13 N          49.9740   82.3970   68.9850 N.am      6 SEP2        0.0000 
     14 N          40.8295   86.3460   76.7340 N.am      2 SEC2        0.0000 
     15 N          41.9360   86.6880   77.9380 N.am     10 SEL2        0.0000 
     16 N          39.7230   86.0040   75.5300 N.am      6 SEP2        0.0000 
     17 Zn         48.8160   79.7010   75.4180 Zn        3 ZIC7        0.0000 
     18 Zn         48.0230   79.6120   74.6900 Zn       11 ZIL7        0.0000 
     19 Zn         49.6090   79.7900   76.1460 Zn        7 ZIP7        0.0000 
     20 Zn         50.0555   79.9310   75.2040 Zn        3 ZIC7        0.0000 
     21 Zn         50.5020   80.0720   74.2620 Zn       11 ZIL7        0.0000 
     22 O          51.7650   81.1080   74.1385 O.2       1 ALC1        0.0000 
     23 O          50.5020   80.0720   74.2620 O.2       9 ALL1        0.0000 
     24 O          53.0280   82.1440   74.0150 O.2       5 ALP1        0.0000 
     25 O          50.7260   81.3350   73.8575 O.2       1 ALC1        0.0000 
     26 O          50.9500   82.5980   73.4530 O.2       5 ALP1        0.0000 
     27 CA         47.6000   75.1955   69.9925 C.3       4 GLC5        0.0000 
     28 CA         47.4100   73.8100   71.7510 C.3      12 GLL5        0.0000 
     29 CA         47.7900   76.5810   68.2340 C.3       8 GLP5        0.0000 
     30 CA         47.3815   83.6410   76.0115 C.3       4 GLC5        0.0000 
     31 CA         45.9510   83.5780   74.6440 C.3      12 GLL5        0.0000 
     32 CA         48.8120   83.7040   77.3790 C.3       8 GLP5        0.0000 
     33 CA         47.2845   83.2265   71.0175 C.3       4 GLC5        0.0000 
     34 CA         47.4360   82.6010   73.0670 C.3      12 GLL5        0.0000 
     35 CA         47.1330   83.8520   68.9680 C.3       8 GLP5        0.0000 
     36 CA         43.1225   81.8180   74.9695 C.3       4 GLC5        0.0000 
     37 CA         44.9710   82.6560   74.3310 C.3      12 GLL5        0.0000 
     38 CA         41.2740   80.9800   75.6080 C.3       8 GLP5        0.0000 
     39 CA         43.3780   83.7995   73.6215 C.3       4 GLC5        0.0000 
     40 CA         41.7850   84.9430   72.9120 C.3       8 GLP5        0.0000 
     41 CA         46.9465   83.8675   77.0385 C.3       4 GLC5        0.0000 
     42 CA         45.0810   84.0310   76.6980 C.3      12 GLL5        0.0000 
     43 CA         44.3880   87.2585   77.1175 C.3       4 GLC5        0.0000 
     44 CA         44.6970   85.1900   77.5730 C.3      12 GLL5        0.0000 
     45 CA         44.0790   89.3270   76.6620 C.3       8 GLP5        0.0000 
     46 CA         46.8315   85.1900   77.5270 C.3       4 GLC5        0.0000 
     47 CA         48.9660   85.1900   77.4810 C.3       8 GLP5        0.0000 
     48 CA         45.8275   86.3755   78.8610 C.3       4 GLC5        0.0000 
     49 CA         46.9580   87.5610   80.1490 C.3       8 GLP5        0.0000 
     50 CA         44.6000   85.1395   80.2400 C.3       4 GLC5        0.0000 
     51 CA         43.4670   84.8640   78.3800 C.3      12 GLL5        0.0000 
     52 CA         45.7330   85.4150   82.1000 C.3       8 GLP5        0.0000 
     53 CA         44.3490   87.1325   81.9850 C.3       4 GLC5        0.0000 
     54 CA         42.9650   88.8500   81.8700 C.3      12 GLL5        0.0000 
     55 CA         43.3255   88.2090   83.8150 C.3       4 GLC5        0.0000 
     56 CA         43.6860   87.5680   85.7600 C.3       8 GLP5        0.0000 
     57 CA         43.9345   89.1505   84.2240 C.3       4 GLC5        0.0000 
     58 CA         42.9300   89.9190   82.7400 C.3      12 GLL5        0.0000 
     59 CA         44.9390   88.3820   85.7080 C.3       8 GLP5        0.0000 
     60 CA         45.6767   77.6800   75.0360 C.3       4 GLC5        0.0000 
     61 CA         46.2980   78.2500   72.9920 C.3      12 GLL5        0.0000 
     62 CA         44.8580   77.7920   76.8060 C.3       8 GLP5        0.0000 
     63 CA         48.1068   77.0318   69.9762 C.3       4 GLC5        0.0000 
     64 CA         48.6300   76.8160   72.0120 C.3      12 GLL5        0.0000 
     65 CA         45.4357   83.1455   71.5790 C.3       4 GLC5        0.0000 
     66 CA         46.4630   81.6820   72.7620 C.3      12 GLL5        0.0000 
     67 CA         45.0250   84.6040   70.0880 C.3       8 GLP5        0.0000 
     68 CA         48.1947   84.7665   72.7622 C.3       4 GLC5        0.0000 
     69 CA         49.0840   86.4540   71.9820 C.3       8 GLP5        0.0000 
     70 CA         48.3687   82.9360   75.0662 C.3       4 GLC5        0.0000 
     71 CA         47.1750   83.5570   74.0180 C.3      12 GLL5        0.0000 
     72 CA         49.4320   82.7930   76.5900 C.3       8 GLP5        0.0000 
     73 CA         44.7552   80.7080   75.4333 C.3       4 GLC5        0.0000 
     74 CA         44.4100   79.2420   77.0120 C.3       8 GLP5        0.0000 
     75 CA         43.6707   90.0930   79.4140 C.3       4 GLC5        0.0000 
     76 CA         42.3570   88.9490   80.6360 C.3      12 GLL5        0.0000 
     77 CA         45.3050   90.6530   78.3720 C.3       8 GLP5        0.0000 
@<TRIPOS>BOND
@<TRIPOS>SUBSTRUCTURE
     1 ALC1        6 GROUP        1 X    ALC  0     ROOT ALC X 1
     2 SEC2        9 GROUP        1 X    SEC  0     **** SEC X 2
     3 ZIC7       17 GROUP        1 X    ZIC  0     **** ZIC X 5
     4 GLC5        1 GROUP        1 X    GLC  0     **** GLC X 6
     5 ALP1        8 GROUP        1 Y    ALP  0     ROOT ALP Y 8
     6 SEP2       11 GROUP        1 Y    SEP  0     **** SEP Y 9
     7 ZIP7       19 GROUP        1 Y    ZIP  0     **** ZIP Y 12
     8 GLP5        3 GROUP        1 Y    GLP  0     **** GLP Y 13
     9 ALL1        7 GROUP        1 Z    ALL  0     ROOT ALL Z 15
    10 SEL2       10 GROUP        1 Z    SEL  0     **** SEL Z 16
    11 ZIL7       18 GROUP        1 Z    ZIL  0     **** ZIL Z 19
    12 GLL5        2 GROUP        1 Z    GLL  0     **** GLL Z 20
@<TRIPOS>SET

