#    Name: 3o2x_3O2_1_ligand
#    Modification time : Tue Mar 25 03:11:33 2014

@<TRIPOS>MOLECULE
3o2x_3O2_1_ligand
   75    78     1     0     0
SMALL
NO_CHARGES


@<TRIPOS>ATOM
      1 C1         47.4720   79.0340   72.4140 C.3       1 3O21801     0.0000 
      2 F1         41.1760   93.2830   84.8700 F         1 3O21801     0.0000 
      3 N1         47.4030   76.1270   72.4770 N.4       1 3O21801     0.0000 
      4 O1         47.7440   72.4860   72.1510 O.3       1 3O21801     0.0000 
      5 S1         46.8410   80.4630   71.5250 S.o2      1 3O21801     0.0000 
      6 C2         46.6930   76.8860   73.5400 C.3       1 3O21801     0.0000 
      7 F2         40.6750   91.1490   84.5980 F         1 3O21801     0.0000 
      8 N2         49.7050   79.6770   73.1560 N.am      1 3O21801     0.0000 
      9 O2         47.9280   81.0200   70.7430 O.2       1 3O21801     0.0000 
     10 C3         48.6300   76.8160   72.0120 C.3       1 3O21801     0.0000 
     11 F3         40.0330   92.6510   83.1120 F         1 3O21801     0.0000 
     12 N3         42.8570   86.1250   78.7270 N.pl3     1 3O21801     0.0000 
     13 O3         45.5680   80.1510   70.9040 O.2       1 3O21801     0.0000 
     14 C4         48.2170   78.1490   71.4250 C.3       1 3O21801     0.0000 
     15 N4         41.9360   86.6880   77.9380 N.2       1 3O21801     0.0000 
     16 O4         45.7600   84.5810   75.5810 O.3       1 3O21801     0.0000 
     17 C5         46.2980   78.2500   72.9920 C.3       1 3O21801     0.0000 
     18 N5         41.6340   87.8110   78.5710 N.2       1 3O21801     0.0000 
     19 O5         48.0230   79.6120   74.6900 O.2       1 3O21801     0.0000 
     20 C6         48.4020   79.4640   73.5360 C.2       1 3O21801     0.0000 
     21 N6         43.2020   86.7880   79.8350 N.2       1 3O21801     0.0000 
     22 O6         50.5020   80.0720   74.2620 O.3       1 3O21801     0.0000 
     23 C7         47.7040   74.7420   72.9080 C.3       1 3O21801     0.0000 
     24 O7         42.2760   92.1570   83.2570 O.3       1 3O21801     0.0000 
     25 C8         47.4100   73.8100   71.7510 C.3       1 3O21801     0.0000 
     26 C9         46.5280   71.7600   72.3180 C.3       1 3O21801     0.0000 
     27 C10        46.4630   81.6820   72.7620 C.ar      1 3O21801     0.0000 
     28 C11        45.9510   83.5780   74.6440 C.ar      1 3O21801     0.0000 
     29 C12        47.4360   82.6010   73.0670 C.ar      1 3O21801     0.0000 
     30 C13        45.2300   81.6920   73.3780 C.ar      1 3O21801     0.0000 
     31 C14        44.9710   82.6560   74.3310 C.ar      1 3O21801     0.0000 
     32 C15        47.1750   83.5570   74.0180 C.ar      1 3O21801     0.0000 
     33 C16        45.0810   84.0310   76.6980 C.3       1 3O21801     0.0000 
     34 C17        44.6970   85.1900   77.5730 C.3       1 3O21801     0.0000 
     35 C18        43.4670   84.8640   78.3800 C.3       1 3O21801     0.0000 
     36 C19        42.4030   87.8490   79.7060 C.2       1 3O21801     0.0000 
     37 C20        42.3570   88.9490   80.6360 C.ar      1 3O21801     0.0000 
     38 C21        42.2860   91.0830   82.3770 C.ar      1 3O21801     0.0000 
     39 C22        42.9650   88.8500   81.8700 C.ar      1 3O21801     0.0000 
     40 C23        41.7160   90.1170   80.2760 C.ar      1 3O21801     0.0000 
     41 C24        41.6820   91.1890   81.1410 C.ar      1 3O21801     0.0000 
     42 C25        42.9300   89.9190   82.7400 C.ar      1 3O21801     0.0000 
     43 C26        41.0360   92.2890   83.9500 C.3       1 3O21801     0.0000 
     44 H          46.7112   76.0548   71.6024 H         1 3O21801     0.0000 
     45 H          47.3404   77.0262   74.4006 H         1 3O21801     0.0000 
     46 H          45.7959   76.3566   73.8472 H         1 3O21801     0.0000 
     47 H          50.0562   79.5779   72.2622 H         1 3O21801     0.0000 
     48 H          49.1266   76.2302   71.2487 H         1 3O21801     0.0000 
     49 H          49.3052   76.9868   72.8410 H         1 3O21801     0.0000 
     50 H          49.1128   78.6832   71.0722 H         1 3O21801     0.0000 
     51 H          47.5753   77.9757   70.5472 H         1 3O21801     0.0000 
     52 H          45.5370   78.1161   72.2080 H         1 3O21801     0.0000 
     53 H          45.8353   78.8410   73.7972 H         1 3O21801     0.0000 
     54 H          47.0828   74.4651   73.7532 H         1 3O21801     0.0000 
     55 H          48.7498   74.6493   73.1812 H         1 3O21801     0.0000 
     56 H          46.3518   73.9040   71.4991 H         1 3O21801     0.0000 
     57 H          48.0005   74.1367   70.8927 H         1 3O21801     0.0000 
     58 H          48.3461   82.5744   72.5912 H         1 3O21801     0.0000 
     59 H          44.5188   80.9974   73.1336 H         1 3O21801     0.0000 
     60 H          44.0596   82.6881   74.8028 H         1 3O21801     0.0000 
     61 H          47.8932   84.2560   74.2618 H         1 3O21801     0.0000 
     62 H          45.7165   83.3614   77.2708 H         1 3O21801     0.0000 
     63 H          44.1768   83.5046   76.4054 H         1 3O21801     0.0000 
     64 H          44.5008   86.0682   76.9519 H         1 3O21801     0.0000 
     65 H          45.5225   85.4268   78.2499 H         1 3O21801     0.0000 
     66 H          42.8037   84.2567   77.7760 H         1 3O21801     0.0000 
     67 H          43.7649   84.3123   79.2635 H         1 3O21801     0.0000 
     68 H          43.4446   87.9784   82.1411 H         1 3O21801     0.0000 
     69 H          41.2583   90.1872   79.3504 H         1 3O21801     0.0000 
     70 H          41.2105   92.0614   80.8684 H         1 3O21801     0.0000 
     71 H          43.3860   89.8480   83.6634 H         1 3O21801     0.0000 
     72 H          46.6952   70.8156   72.6011 H         1 3O21801     0.0000 
     73 H          45.9403   72.1746   73.0128 H         1 3O21801     0.0000 
     74 H          45.9984   71.7226   71.4706 H         1 3O21801     0.0000 
     75 H          50.7601   81.0188   74.0699 H         1 3O21801     0.0000 
@<TRIPOS>BOND
     1    5    1 1    
     2   14    1 1    
     3   17    1 1    
     4   20    1 1    
     5   43    2 1    
     6    6    3 1    
     7   10    3 1    
     8   23    3 1    
     9   44    3 1    
    10   25    4 1    
    11   26    4 1    
    12    9    5 2    
    13   13    5 2    
    14   27    5 1    
    15   17    6 1    
    16   45    6 1    
    17   46    6 1    
    18   43    7 1    
    19   20    8 am   
    20   22    8 1    
    21   47    8 1    
    22   14   10 1    
    23   48   10 1    
    24   49   10 1    
    25   43   11 1    
    26   15   12 1    
    27   21   12 1    
    28   35   12 1    
    29   50   14 1    
    30   51   14 1    
    31   18   15 2    
    32   28   16 1    
    33   33   16 1    
    34   52   17 1    
    35   53   17 1    
    36   36   18 1    
    37   20   19 2    
    38   36   21 2    
    39   75   22 1    
    40   25   23 1    
    41   54   23 1    
    42   55   23 1    
    43   38   24 1    
    44   43   24 1    
    45   56   25 1    
    46   57   25 1    
    47   72   26 1    
    48   73   26 1    
    49   74   26 1    
    50   29   27 ar   
    51   30   27 ar   
    52   31   28 ar   
    53   32   28 ar   
    54   32   29 ar   
    55   58   29 1    
    56   31   30 ar   
    57   59   30 1    
    58   60   31 1    
    59   61   32 1    
    60   34   33 1    
    61   62   33 1    
    62   63   33 1    
    63   35   34 1    
    64   64   34 1    
    65   65   34 1    
    66   66   35 1    
    67   67   35 1    
    68   37   36 1    
    69   39   37 ar   
    70   40   37 ar   
    71   41   38 ar   
    72   42   38 ar   
    73   42   39 ar   
    74   68   39 1    
    75   41   40 ar   
    76   69   40 1    
    77   70   41 1    
    78   71   42 1    
@<TRIPOS>SUBSTRUCTURE
     1 3O21801     1 GROUP   
@<TRIPOS>SET

