#    Name: 1py5_PY1_1_INTS_M
#    Modification time : Mon Mar 24 22:25:53 2014

@<TRIPOS>MOLECULE
1py5_PY1_1_INTS_M
   71     0     9     0     0
SMALL
NO_CHARGES


@<TRIPOS>ATOM
      1 O           5.3345    8.7645    9.2710 O.2       1 ALC1        0.0000 
      2 O           4.7780    8.4320    7.8050 O.2       7 ALL1        0.0000 
      3 O           5.8910    9.0970   10.7370 O.2       4 ALP1        0.0000 
      4 O           5.2300    7.7255    8.8645 O.2       1 ALC1        0.0000 
      5 O           5.6820    7.0190    9.9240 O.2       4 ALP1        0.0000 
      6 CA          3.8925    5.9590    5.9720 C.3       3 GLC5        0.0000 
      7 CA          4.2760    7.6560    6.7640 C.3       9 GLL5        0.0000 
      8 CA          3.5090    4.2620    5.1800 C.3       6 GLP5        0.0000 
      9 CA          6.0490    6.5310    7.0135 C.3       3 GLC5        0.0000 
     10 CA          7.8220    5.4060    7.2630 C.3       6 GLP5        0.0000 
     11 CA          3.8920   11.2515    5.7645 C.3       3 GLC5        0.0000 
     12 CA          5.9580   10.6290    5.1760 C.3       9 GLL5        0.0000 
     13 CA          1.8260   11.8740    6.3530 C.3       6 GLP5        0.0000 
     14 CA          5.9545   12.0300    6.6730 C.3       3 GLC5        0.0000 
     15 CA          5.9510   13.4310    8.1700 C.3       6 GLP5        0.0000 
     16 CA          7.3815    9.2890    4.5760 C.3       3 GLC5        0.0000 
     17 CA          8.8050    7.9490    3.9760 C.3       6 GLP5        0.0000 
     18 CA          8.3835    9.9800    4.5055 C.3       3 GLC5        0.0000 
     19 CA          7.9620   12.0110    5.0350 C.3       9 GLL5        0.0000 
     20 CA          8.1705   13.7710    2.1635 C.3       3 GLC5        0.0000 
     21 CA          7.4620   12.6140    3.8550 C.3       9 GLL5        0.0000 
     22 CA          8.8790   14.9280    0.4720 C.3       6 GLP5        0.0000 
     23 CA          5.2910   13.6455    2.4315 C.3       3 GLC5        0.0000 
     24 CA          6.1610   12.1990    3.3270 C.3       9 GLL5        0.0000 
     25 CA          4.4210   15.0920    1.5360 C.3       6 GLP5        0.0000 
     26 CA          3.5135   11.5285    3.9270 C.3       3 GLC5        0.0000 
     27 CA          5.3760   11.1980    3.9700 C.3       9 GLL5        0.0000 
     28 CA          1.6510   11.8590    3.8840 C.3       6 GLP5        0.0000 
     29 CA          3.4585    8.8095    1.4805 C.3       3 GLC5        0.0000 
     30 CA          2.7400    7.0350    2.2850 C.3       9 GLL5        0.0000 
     31 CA          4.1770   10.5840    0.6760 C.3       6 GLP5        0.0000 
     32 N           3.5920    6.2200    0.1435 N.am      2 SEC2        0.0000 
     33 N           3.8770    7.0140    1.4480 N.am      8 SEL2        0.0000 
     34 N           3.3070    5.4260   -1.1610 N.am      5 SEP2        0.0000 
     35 CA          6.8725    6.9080    1.9115 C.3       3 GLC5        0.0000 
     36 CA          5.1370    7.3470    1.8470 C.3       9 GLL5        0.0000 
     37 CA          8.6080    6.4690    1.9760 C.3       6 GLP5        0.0000 
     38 CA          4.6830    7.3990   -0.1365 C.3       3 GLC5        0.0000 
     39 CA          4.2290    7.4510   -2.1200 C.3       6 GLP5        0.0000 
     40 CA          5.6650    5.6090    1.0945 C.3       3 GLC5        0.0000 
     41 CA          6.1930    3.8710    0.3420 C.3       6 GLP5        0.0000 
     42 CA          7.0855    7.8625    3.5820 C.3       3 GLC5        0.0000 
     43 CA          5.3660    7.7760    3.1880 C.3       9 GLL5        0.0000 
     44 CA          1.6535    9.6650    4.1980 C.3       3 GLC5        0.0000 
     45 CA          1.6560    7.4710    4.5120 C.3       9 GLL5        0.0000 
     46 CA          2.1635    5.3485    0.3145 C.3       3 GLC5        0.0000 
     47 CA          1.4470    6.6570    1.7660 C.3       9 GLL5        0.0000 
     48 CA          2.8800    4.0400   -1.1370 C.3       6 GLP5        0.0000 
     49 CA          5.1145    6.3520    4.5230 C.3       3 GLC5        0.0000 
     50 CA          4.2630    7.8460    4.1490 C.3       9 GLL5        0.0000 
     51 CA          5.7930    4.6170    4.1860 C.3       6 GLP5        0.0000 
     52 CA          6.5855   13.5232    5.2860 C.3       3 GLC5        0.0000 
     53 CA          5.4590   14.7340    6.1270 C.3       6 GLP5        0.0000 
     54 CA          9.1315   13.0953    5.0020 C.3       3 GLC5        0.0000 
     55 CA         10.5510   13.8780    5.5590 C.3       6 GLP5        0.0000 
     56 CA          8.2820   11.3492    2.8685 C.3       3 GLC5        0.0000 
     57 CA          8.8520   10.3860    1.2920 C.3       6 GLP5        0.0000 
     58 CA          4.9727   11.1412    2.1623 C.3       3 GLC5        0.0000 
     59 CA          5.6137   13.2163    4.8878 C.3       3 GLC5        0.0000 
     60 CA          7.3102   11.0422    2.4703 C.3       3 GLC5        0.0000 
     61 CA          3.1610    5.7592    4.0857 C.3       3 GLC5        0.0000 
     62 CA          2.8860    7.4780    3.6980 C.3       9 GLL5        0.0000 
     63 CA          4.5764    9.0815    1.7169 C.3       3 GLC5        0.0000 
     64 CA          5.5222    6.0892    3.3518 C.3       3 GLC5        0.0000 
     65 CA          2.2630    5.7675    4.7067 C.3       3 GLC5        0.0000 
     66 CA         -0.7086    7.6046    2.3161 C.3       3 GLC5        0.0000 
     67 CA          0.3780    7.0750    3.9550 C.3       9 GLL5        0.0000 
     68 CA         -2.3050    8.4450    2.1120 C.3       6 GLP5        0.0000 
     69 CA          0.2709    4.9781    2.9836 C.3       3 GLC5        0.0000 
     70 CA          0.2790    6.6680    2.5940 C.3       9 GLL5        0.0000 
     71 CA         -0.3460    3.1920    3.4470 C.3       6 GLP5        0.0000 
@<TRIPOS>BOND
@<TRIPOS>SUBSTRUCTURE
     1 ALC1        1 GROUP        1 X    ALC  0     ROOT ALC X 1
     2 SEC2       32 GROUP        1 X    SEC  0     **** SEC X 2
     3 GLC5        6 GROUP        1 X    GLC  0     **** GLC X 6
     4 ALP1        3 GROUP        1 Y    ALP  0     ROOT ALP Y 8
     5 SEP2       34 GROUP        1 Y    SEP  0     **** SEP Y 9
     6 GLP5        8 GROUP        1 Y    GLP  0     **** GLP Y 13
     7 ALL1        2 GROUP        1 Z    ALL  0     ROOT ALL Z 15
     8 SEL2       33 GROUP        1 Z    SEL  0     **** SEL Z 16
     9 GLL5        7 GROUP        1 Z    GLL  0     **** GLL Z 20
@<TRIPOS>SET

