#    Name: 1py5_PY1_1_ligand
#    Modification time : Mon Mar 24 22:25:53 2014

@<TRIPOS>MOLECULE
1py5_PY1_1_ligand
   33    36     1     0     0
SMALL
NO_CHARGES


@<TRIPOS>ATOM
      1 C1          4.6090    8.3280    5.5710 C.2       1 PY1700      0.0000 
      2 C2          5.3520    9.5570    6.0020 C.2       1 PY1700      0.0000 
      3 N3          5.4320    9.5820    7.3760 N.2       1 PY1700      0.0000 
      4 N4          4.7780    8.4320    7.8050 N.pl3     1 PY1700      0.0000 
      5 C5          4.2760    7.6560    6.7640 C.2       1 PY1700      0.0000 
      6 C8          4.2630    7.8460    4.1490 C.ar      1 PY1700      0.0000 
      7 C10         5.9580   10.6290    5.1760 C.ar      1 PY1700      0.0000 
      8 N12         7.2200   11.0770    5.6250 N.ar      1 PY1700      0.0000 
      9 C13         7.9620   12.0110    5.0350 C.ar      1 PY1700      0.0000 
     10 C14         7.4620   12.6140    3.8550 C.ar      1 PY1700      0.0000 
     11 C15         6.1610   12.1990    3.3270 C.ar      1 PY1700      0.0000 
     12 C16         5.3760   11.1980    3.9700 C.ar      1 PY1700      0.0000 
     13 C21         2.8860    7.4780    3.6980 C.ar      1 PY1700      0.0000 
     14 C22         2.7400    7.0350    2.2850 C.ar      1 PY1700      0.0000 
     15 N23         3.8770    7.0140    1.4480 N.ar      1 PY1700      0.0000 
     16 C24         5.1370    7.3470    1.8470 C.ar      1 PY1700      0.0000 
     17 C25         5.3660    7.7760    3.1880 C.ar      1 PY1700      0.0000 
     18 C28         1.6560    7.4710    4.5120 C.ar      1 PY1700      0.0000 
     19 C29         0.3780    7.0750    3.9550 C.ar      1 PY1700      0.0000 
     20 C30         0.2790    6.6680    2.5940 C.ar      1 PY1700      0.0000 
     21 C31         1.4470    6.6570    1.7660 C.ar      1 PY1700      0.0000 
     22 H           4.6792    8.1895    8.7532 H         1 PY1700      0.0000 
     23 H           3.8109    6.8508    6.8319 H         1 PY1700      0.0000 
     24 H           8.8710   12.3123    5.3912 H         1 PY1700      0.0000 
     25 H           7.9825   13.3265    3.3660 H         1 PY1700      0.0000 
     26 H           5.8209   12.6489    2.4736 H         1 PY1700      0.0000 
     27 H           4.5048   10.9040    3.6352 H         1 PY1700      0.0000 
     28 H           5.9370    7.2988    1.2065 H         1 PY1700      0.0000 
     29 H           6.2970    8.0390    3.4955 H         1 PY1700      0.0000 
     30 H           1.7175    7.7528    5.4868 H         1 PY1700      0.0000 
     31 H          -0.4466    7.0917    4.5487 H         1 PY1700      0.0000 
     32 H          -0.6164    6.3856    2.2083 H         1 PY1700      0.0000 
     33 H           1.3690    6.3763    0.7858 H         1 PY1700      0.0000 
@<TRIPOS>BOND
     1    2    1 1    
     2    5    1 2    
     3    6    1 1    
     4    3    2 2    
     5    7    2 1    
     6    4    3 1    
     7    5    4 1    
     8   22    4 1    
     9   23    5 1    
    10   13    6 ar   
    11   17    6 ar   
    12    8    7 ar   
    13   12    7 ar   
    14    9    8 ar   
    15   10    9 ar   
    16   24    9 1    
    17   11   10 ar   
    18   25   10 1    
    19   12   11 ar   
    20   26   11 1    
    21   27   12 1    
    22   14   13 ar   
    23   18   13 ar   
    24   15   14 ar   
    25   21   14 ar   
    26   16   15 ar   
    27   17   16 ar   
    28   28   16 1    
    29   29   17 1    
    30   19   18 ar   
    31   30   18 1    
    32   20   19 ar   
    33   31   19 1    
    34   21   20 ar   
    35   32   20 1    
    36   33   21 1    
@<TRIPOS>SUBSTRUCTURE
     1 PY1700      1 GROUP   
@<TRIPOS>SET

