#    Name: 3urh_FAD_2_INTS_M
#    Modification time : Mon Mar 24 23:21:54 2014

@<TRIPOS>MOLECULE
3urh_FAD_2_INTS_M
  144     0     9     0     0
SMALL
NO_CHARGES


@<TRIPOS>ATOM
      1 N          12.5505   63.8130   49.8800 N.am      2 SEC2        0.0000 
      2 N          13.0380   62.5050   49.7980 N.am      8 SEL2        0.0000 
      3 N          12.0630   65.1210   49.9620 N.am      5 SEP2        0.0000 
      4 N          12.8285   63.7190   52.5035 N.am      2 SEC2        0.0000 
      5 N          12.5200   62.4000   52.3170 N.am      8 SEL2        0.0000 
      6 N          13.1370   65.0380   52.6900 N.am      5 SEP2        0.0000 
      7 N          12.8880   61.8790   53.9430 N.am      2 SEC2        0.0000 
      8 N          13.2560   61.3580   55.5690 N.am      5 SEP2        0.0000 
      9 CA         11.1280   60.3165   52.7300 C.3       3 GLC5        0.0000 
     10 CA          9.8370   60.8860   51.4190 C.3       9 GLL5        0.0000 
     11 CA         12.4190   59.7470   54.0410 C.3       6 GLP5        0.0000 
     12 N           7.8620   65.2195   50.1025 N.am      2 SEC2        0.0000 
     13 N           7.8420   63.5540   50.5770 N.am      8 SEL2        0.0000 
     14 N           7.8820   66.8850   49.6280 N.am      5 SEP2        0.0000 
     15 O           6.8035   63.0350   49.9480 O.2       1 ALC1        0.0000 
     16 O           7.8420   63.5540   50.5770 O.2       7 ALL1        0.0000 
     17 O           5.7650   62.5160   49.3190 O.2       4 ALP1        0.0000 
     18 CA          6.0360   63.8485   54.5100 C.3       3 GLC5        0.0000 
     19 CA          7.3820   63.0720   52.9770 C.3       9 GLL5        0.0000 
     20 CA          4.6900   64.6250   56.0430 C.3       6 GLP5        0.0000 
     21 O           5.6960   64.1320   51.8005 O.2       1 ALC1        0.0000 
     22 O           6.5620   64.2530   52.9490 O.2       7 ALL1        0.0000 
     23 O           4.8300   64.0110   50.6520 O.2       4 ALP1        0.0000 
     24 CA          6.3560   60.3195   51.5755 C.3       3 GLC5        0.0000 
     25 CA          6.5550   61.7950   52.8310 C.3       9 GLL5        0.0000 
     26 CA          6.1570   58.8440   50.3200 C.3       6 GLP5        0.0000 
     27 CA          7.7325   60.0170   53.4775 C.3       3 GLC5        0.0000 
     28 CA          8.9100   58.2390   54.1240 C.3       6 GLP5        0.0000 
     29 CA          1.3425   59.9880   56.8905 C.3       3 GLC5        0.0000 
     30 CA          3.0630   59.4800   55.6730 C.3       9 GLL5        0.0000 
     31 CA         -0.3780   60.4960   58.1080 C.3       6 GLP5        0.0000 
     32 CA          1.2700   58.2685   55.3730 C.3       3 GLC5        0.0000 
     33 CA         -0.5230   57.0570   55.0730 C.3       6 GLP5        0.0000 
     34 O           1.8265   57.8635   56.9905 O.2       1 ALC1        0.0000 
     35 O           2.8420   58.9490   56.9140 O.2       7 ALL1        0.0000 
     36 O           0.8110   56.7780   57.0670 O.2       4 ALP1        0.0000 
     37 N           0.8545   58.9785   54.9330 N.am      2 SEC2        0.0000 
     38 N           2.1230   59.4670   54.6810 N.am      8 SEL2        0.0000 
     39 N          -0.4140   58.4900   55.1850 N.am      5 SEP2        0.0000 
     40 CA          2.8390   58.1195   53.4930 C.3       3 GLC5        0.0000 
     41 CA          2.3660   59.9680   53.4530 C.3       9 GLL5        0.0000 
     42 CA          3.3120   56.2710   53.5330 C.3       6 GLP5        0.0000 
     43 CA          0.8435   59.0285   52.4065 C.3       3 GLC5        0.0000 
     44 CA         -0.6790   58.0890   51.3600 C.3       6 GLP5        0.0000 
     45 CA          2.1825   60.7310   51.6725 C.3       3 GLC5        0.0000 
     46 CA          1.9990   61.4940   49.8920 C.3       6 GLP5        0.0000 
     47 CA          1.9150   62.0825   53.7280 C.3       3 GLC5        0.0000 
     48 CA          1.4640   64.1970   54.0030 C.3       6 GLP5        0.0000 
     49 CA          0.6040   60.3560   54.5815 C.3       3 GLC5        0.0000 
     50 CA         -1.1580   60.7440   55.7100 C.3       6 GLP5        0.0000 
     51 CA          0.9215   58.5125   54.2630 C.3       3 GLC5        0.0000 
     52 N           2.6415   61.8000   52.4605 N.am      2 SEC2        0.0000 
     53 N           3.5630   60.5550   53.1230 N.am      8 SEL2        0.0000 
     54 N           1.7200   63.0450   51.7980 N.am      5 SEP2        0.0000 
     55 CA          5.3795   59.7555   52.1695 C.3       3 GLC5        0.0000 
     56 CA          4.6020   60.6670   54.0190 C.3       9 GLL5        0.0000 
     57 N          20.6265   62.1275   48.2455 N.am      2 SEC2        0.0000 
     58 N          21.1340   63.6470   48.6090 N.am      8 SEL2        0.0000 
     59 N          20.1190   60.6080   47.8820 N.am      5 SEP2        0.0000 
     60 N          21.1245   61.4870   47.5205 N.am      2 SEC2        0.0000 
     61 N          22.1300   62.3660   47.1590 N.am      8 SEL2        0.0000 
     62 O          22.5230   64.1680   45.4800 O.2       1 ALC1        0.0000 
     63 O          22.6040   64.5720   46.9410 O.2       7 ALL1        0.0000 
     64 O          22.4420   63.7640   44.0190 O.2       4 ALP1        0.0000 
     65 N          23.0485   68.1550   47.2040 N.am      2 SEC2        0.0000 
     66 N          23.0910   66.7930   46.8180 N.am      8 SEL2        0.0000 
     67 N          23.0060   69.5170   47.5900 N.am      5 SEP2        0.0000 
     68 N          22.2180   68.4485   48.3040 N.am      2 SEC2        0.0000 
     69 N          21.4300   67.3800   49.0180 N.am      8 SEL2        0.0000 
     70 CA         20.6335   70.6465   49.1640 C.3       3 GLC5        0.0000 
     71 CA         20.4950   68.9680   50.4740 C.3       9 GLL5        0.0000 
     72 CA         20.7720   72.3250   47.8540 C.3       6 GLP5        0.0000 
     73 CA         21.5160   68.7975   52.2810 C.3       3 GLC5        0.0000 
     74 CA         22.5370   68.6270   54.0880 C.3       6 GLP5        0.0000 
     75 CA         19.0065   71.6195   53.5790 C.3       3 GLC5        0.0000 
     76 CA         19.5340   70.7400   51.9960 C.3       9 GLL5        0.0000 
     77 CA         18.4790   72.4990   55.1620 C.3       6 GLP5        0.0000 
     78 CA         18.2305   70.4705   54.2875 C.3       3 GLC5        0.0000 
     79 CA         17.9820   68.4420   53.4130 C.3       9 GLL5        0.0000 
     80 CA         18.3250   66.9850   54.6870 C.3       3 GLC5        0.0000 
     81 CA         18.6680   65.5280   55.9610 C.3       6 GLP5        0.0000 
     82 CA         18.8520   66.1635   53.8800 C.3       3 GLC5        0.0000 
     83 CA         19.0360   66.7990   51.7990 C.3       9 GLL5        0.0000 
     84 CA         19.4180   66.0425   48.6790 C.3       3 GLC5        0.0000 
     85 CA         19.8910   66.5240   50.7080 C.3       9 GLL5        0.0000 
     86 CA         18.9450   65.5610   46.6500 C.3       6 GLP5        0.0000 
     87 CA         16.7285   64.8940   51.0110 C.3       3 GLC5        0.0000 
     88 CA         18.2650   63.5860   50.0420 C.3       9 GLL5        0.0000 
     89 CA         15.1920   66.2020   51.9800 C.3       6 GLP5        0.0000 
     90 CA         17.1350   64.1165   48.4120 C.3       3 GLC5        0.0000 
     91 CA         16.0050   64.6470   46.7820 C.3       6 GLP5        0.0000 
     92 CA         18.6050   64.5735   48.3460 C.3       3 GLC5        0.0000 
     93 CA         18.5120   62.5985   48.0865 C.3       3 GLC5        0.0000 
     94 CA         18.7590   61.6110   46.1310 C.3       6 GLP5        0.0000 
     95 O          18.3280   60.3130   51.7960 O.2       1 ALC1        0.0000 
     96 O          18.6360   61.3590   50.9160 O.2       7 ALL1        0.0000 
     97 O          18.0200   59.2670   52.6760 O.2       4 ALP1        0.0000 
     98 O          17.8350   61.2220   52.2285 O.2       1 ALC1        0.0000 
     99 O          17.0340   61.0850   53.5410 O.2       4 ALP1        0.0000 
    100 CA         16.2730   63.2685   48.2715 C.3       3 GLC5        0.0000 
    101 CA         16.5410   61.8900   49.7610 C.3       9 GLL5        0.0000 
    102 CA         17.7945   61.1235   48.3360 C.3       3 GLC5        0.0000 
    103 CA         19.0480   60.3570   46.9110 C.3       6 GLP5        0.0000 
    104 CA         16.0150   59.7870   52.2500 C.3       3 GLC5        0.0000 
    105 CA         15.8250   60.6240   50.2460 C.3       9 GLL5        0.0000 
    106 CA         16.2050   58.9500   54.2540 C.3       6 GLP5        0.0000 
    107 CA         16.1750   58.7640   49.2530 C.3       3 GLC5        0.0000 
    108 CA         16.5250   56.9040   48.2600 C.3       6 GLP5        0.0000 
    109 N          13.1700   57.7590   47.9975 N.am      2 SEC2        0.0000 
    110 N          12.9810   57.8170   49.4710 N.am      8 SEL2        0.0000 
    111 N          13.3590   57.7010   46.5240 N.am      5 SEP2        0.0000 
    112 N          15.3790   57.6600   52.0495 N.am      2 SEC2        0.0000 
    113 N          14.6810   58.4210   51.1250 N.am      8 SEL2        0.0000 
    114 N          16.0770   56.8990   52.9740 N.am      5 SEP2        0.0000 
    115 CA          7.6357   60.0050   50.8635 C.3       3 GLC5        0.0000 
    116 CA          9.9622   61.1160   49.5485 C.3       3 GLC5        0.0000 
    117 CA          8.3920   61.4460   51.3950 C.3       9 GLL5        0.0000 
    118 CA         10.8100   61.0660   47.6900 C.3       6 GLP5        0.0000 
    119 CA          9.0122   59.7025   52.7655 C.3       3 GLC5        0.0000 
    120 CA          9.4079   63.2540   50.1553 C.3       3 GLC5        0.0000 
    121 CA         10.0900   64.4560   48.7250 C.3       6 GLP5        0.0000 
    122 CA          3.5170   58.0330   54.5290 C.3       3 GLC5        0.0000 
    123 CA          4.3810   60.1100   55.3770 C.3       9 GLL5        0.0000 
    124 CA          3.9088   62.2258   55.1735 C.3       3 GLC5        0.0000 
    125 CA          3.3260   64.0630   55.6490 C.3       6 GLP5        0.0000 
    126 CA          5.4465   58.8410   54.9160 C.3       3 GLC5        0.0000 
    127 CA          6.7310   57.4510   55.0600 C.3       6 GLP5        0.0000 
    128 CA         18.7632   68.7250   49.8413 C.3       3 GLC5        0.0000 
    129 CA         20.6260   67.6520   50.0390 C.3       9 GLL5        0.0000 
    130 CA         16.9660   69.1400   49.4260 C.3       6 GLP5        0.0000 
    131 CA         19.9378   68.3545   48.4098 C.3       3 GLC5        0.0000 
    132 CA         19.3150   68.3990   46.5630 C.3       6 GLP5        0.0000 
    133 CA         18.2788   69.5735   50.6000 C.3       3 GLC5        0.0000 
    134 CA         19.6490   69.2740   51.5520 C.3       9 GLL5        0.0000 
    135 CA         20.3923   69.0690   53.1860 C.3       3 GLC5        0.0000 
    136 CA         21.1930   68.1310   54.5980 C.3       6 GLP5        0.0000 
    137 CA         17.7010   68.7180   51.1220 C.3       3 GLC5        0.0000 
    138 CA         19.8145   68.2135   53.7080 C.3       3 GLC5        0.0000 
    139 CA         18.8900   68.1500   52.2230 C.3       9 GLL5        0.0000 
    140 CA         16.9640   66.8748   52.1442 C.3       3 GLC5        0.0000 
    141 CA         18.2148   67.9008   50.3397 C.3       3 GLC5        0.0000 
    142 CA         20.3283   67.3963   52.9257 C.3       3 GLC5        0.0000 
    143 CA         15.6225   61.0740   48.2387 C.3       3 GLC5        0.0000 
    144 CA         15.0620   60.8910   46.4740 C.3       6 GLP5        0.0000 
@<TRIPOS>BOND
@<TRIPOS>SUBSTRUCTURE
     1 ALC1       15 GROUP        1 X    ALC  0     ROOT ALC X 1
     2 SEC2        1 GROUP        1 X    SEC  0     **** SEC X 2
     3 GLC5        9 GROUP        1 X    GLC  0     **** GLC X 6
     4 ALP1       17 GROUP        1 Y    ALP  0     ROOT ALP Y 8
     5 SEP2        3 GROUP        1 Y    SEP  0     **** SEP Y 9
     6 GLP5       11 GROUP        1 Y    GLP  0     **** GLP Y 13
     7 ALL1       16 GROUP        1 Z    ALL  0     ROOT ALL Z 15
     8 SEL2        2 GROUP        1 Z    SEL  0     **** SEL Z 16
     9 GLL5       10 GROUP        1 Z    GLL  0     **** GLL Z 20
@<TRIPOS>SET

