#    Name: 3urh_FAD_2_ligand
#    Modification time : Mon Mar 24 23:21:55 2014

@<TRIPOS>MOLECULE
3urh_FAD_2_ligand
   84    89     1     0     0
SMALL
NO_CHARGES


@<TRIPOS>ATOM
      1 PA         12.3770   61.6980   50.9290 P.3       1 FAD500      0.0000 
      2 O1A        13.0380   62.5050   49.7980 O.co2     1 FAD500      0.0000 
      3 O2A        12.5200   62.4000   52.3170 O.co2     1 FAD500      0.0000 
      4 O5B        10.8150   61.4340   50.4950 O.3       1 FAD500      0.0000 
      5 C5B         9.8370   60.8860   51.4190 C.3       1 FAD500      0.0000 
      6 C4B         8.3920   61.4460   51.3950 C.3       1 FAD500      0.0000 
      7 O4B         7.4750   60.8060   52.3290 O.3       1 FAD500      0.0000 
      8 C3B         8.3370   62.9380   51.7640 C.3       1 FAD500      0.0000 
      9 O3B         7.8420   63.5540   50.5770 O.3       1 FAD500      0.0000 
     10 C2B         7.3820   63.0720   52.9770 C.3       1 FAD500      0.0000 
     11 O2B         6.5620   64.2530   52.9490 O.3       1 FAD500      0.0000 
     12 C1B         6.5550   61.7950   52.8310 C.3       1 FAD500      0.0000 
     13 N9A         5.8690   61.1890   54.0210 N.pl3     1 FAD500      0.0000 
     14 C8A         6.4150   60.9760   55.2410 C.2       1 FAD500      0.0000 
     15 N7A         5.5260   60.3380   56.0620 N.2       1 FAD500      0.0000 
     16 C5A         4.3810   60.1100   55.3770 C.ar      1 FAD500      0.0000 
     17 C6A         3.0630   59.4800   55.6730 C.ar      1 FAD500      0.0000 
     18 N6A         2.8420   58.9490   56.9140 N.pl3     1 FAD500      0.0000 
     19 N1A         2.1230   59.4670   54.6810 N.ar      1 FAD500      0.0000 
     20 C2A         2.3660   59.9680   53.4530 C.ar      1 FAD500      0.0000 
     21 N3A         3.5630   60.5550   53.1230 N.ar      1 FAD500      0.0000 
     22 C4A         4.6020   60.6670   54.0190 C.ar      1 FAD500      0.0000 
     23 N1         21.1340   63.6470   48.6090 N.2       1 FAD500      0.0000 
     24 C2         21.9780   63.5170   47.5790 C.2       1 FAD500      0.0000 
     25 O2         22.1300   62.3660   47.1590 O.2       1 FAD500      0.0000 
     26 N3         22.6040   64.5720   46.9410 N.am      1 FAD500      0.0000 
     27 C4         22.4900   65.8430   47.3650 C.2       1 FAD500      0.0000 
     28 O4         23.0910   66.7930   46.8180 O.2       1 FAD500      0.0000 
     29 C4X        21.6130   66.1110   48.5470 C.2       1 FAD500      0.0000 
     30 N5         21.4300   67.3800   49.0180 N.2       1 FAD500      0.0000 
     31 C5X        20.6260   67.6520   50.0390 C.ar      1 FAD500      0.0000 
     32 C6         20.4950   68.9680   50.4740 C.ar      1 FAD500      0.0000 
     33 C7         19.6490   69.2740   51.5520 C.ar      1 FAD500      0.0000 
     34 C7M        19.5340   70.7400   51.9960 C.3       1 FAD500      0.0000 
     35 C8         18.8900   68.1500   52.2230 C.ar      1 FAD500      0.0000 
     36 C8M        17.9820   68.4420   53.4130 C.3       1 FAD500      0.0000 
     37 C9         19.0360   66.7990   51.7990 C.ar      1 FAD500      0.0000 
     38 C9A        19.8910   66.5240   50.7080 C.ar      1 FAD500      0.0000 
     39 N10        20.0960   65.1930   50.2480 N.pl3     1 FAD500      0.0000 
     40 C10        20.9360   64.9240   49.1440 C.2       1 FAD500      0.0000 
     41 C1'        19.3860   64.0810   50.9200 C.3       1 FAD500      0.0000 
     42 C2'        18.2650   63.5860   50.0420 C.3       1 FAD500      0.0000 
     43 O2'        17.3480   64.6880   49.9400 O.3       1 FAD500      0.0000 
     44 C3'        17.6260   62.3730   50.7070 C.3       1 FAD500      0.0000 
     45 O3'        18.6360   61.3590   50.9160 O.3       1 FAD500      0.0000 
     46 C4'        16.5410   61.8900   49.7610 C.3       1 FAD500      0.0000 
     47 O4'        15.6030   62.9780   49.5000 O.3       1 FAD500      0.0000 
     48 C5'        15.8250   60.6240   50.2460 C.3       1 FAD500      0.0000 
     49 O5'        14.7670   60.1310   49.3610 O.3       1 FAD500      0.0000 
     50 P          13.7160   59.0950   50.1050 P.3       1 FAD500      0.0000 
     51 O1P        12.9810   57.8170   49.4710 O.co2     1 FAD500      0.0000 
     52 O2P        14.6810   58.4210   51.1250 O.co2     1 FAD500      0.0000 
     53 O3P        12.8710   60.1260   51.0450 O.3       1 FAD500      0.0000 
     54 H          10.2039   60.9871   52.4837 H         1 FAD500      0.0000 
     55 H           9.7510   59.7671   51.2809 H         1 FAD500      0.0000 
     56 H           7.9989   61.3627   50.3828 H         1 FAD500      0.0000 
     57 H           9.3039   63.2434   52.0250 H         1 FAD500      0.0000 
     58 H           7.9739   62.9684   53.8570 H         1 FAD500      0.0000 
     59 H           5.8095   61.9679   52.0362 H         1 FAD500      0.0000 
     60 H           7.3166   61.2380   55.5060 H         1 FAD500      0.0000 
     61 H           3.5767   59.0698   57.5815 H         1 FAD500      0.0000 
     62 H           1.9651   58.4865   57.0449 H         1 FAD500      0.0000 
     63 H           1.6176   59.9124   52.7126 H         1 FAD500      0.0000 
     64 H          23.1895   64.3549   46.0911 H         1 FAD500      0.0000 
     65 H          21.0162   69.7207   50.0087 H         1 FAD500      0.0000 
     66 H          18.5388   66.0588   52.2693 H         1 FAD500      0.0000 
     67 H          18.9714   64.4194   51.8719 H         1 FAD500      0.0000 
     68 H          20.0760   63.2577   51.1166 H         1 FAD500      0.0000 
     69 H          18.6654   63.3138   49.0995 H         1 FAD500      0.0000 
     70 H          17.1766   62.6901   51.6186 H         1 FAD500      0.0000 
     71 H          17.0430   61.6312   48.8026 H         1 FAD500      0.0000 
     72 H          15.4138   60.8362   51.2593 H         1 FAD500      0.0000 
     73 H          16.5983   59.8371   50.3999 H         1 FAD500      0.0000 
     74 H          20.4170   71.1115   52.2830 H         1 FAD500      0.0000 
     75 H          19.1950   71.3256   51.2597 H         1 FAD500      0.0000 
     76 H          18.9066   70.8463   52.7674 H         1 FAD500      0.0000 
     77 H          18.4873   68.8463   54.1754 H         1 FAD500      0.0000 
     78 H          17.2509   69.0811   53.1743 H         1 FAD500      0.0000 
     79 H          17.5444   67.6120   53.7588 H         1 FAD500      0.0000 
     80 H           7.0666   62.9884   50.2961 H         1 FAD500      0.0000 
     81 H           5.9941   64.1543   52.1319 H         1 FAD500      0.0000 
     82 H          16.4559   64.2677   49.7744 H         1 FAD500      0.0000 
     83 H          18.2140   60.6974   51.5359 H         1 FAD500      0.0000 
     84 H          14.6994   62.5893   49.6802 H         1 FAD500      0.0000 
@<TRIPOS>BOND
     1    2    1 ar   
     2    3    1 ar   
     3    4    1 1    
     4   53    1 1    
     5    5    4 1    
     6    6    5 1    
     7   54    5 1    
     8   55    5 1    
     9    7    6 1    
    10    8    6 1    
    11   56    6 1    
    12   12    7 1    
    13    9    8 1    
    14   10    8 1    
    15   57    8 1    
    16   80    9 1    
    17   11   10 1    
    18   12   10 1    
    19   58   10 1    
    20   81   11 1    
    21   13   12 1    
    22   59   12 1    
    23   14   13 1    
    24   22   13 1    
    25   15   14 2    
    26   60   14 1    
    27   16   15 1    
    28   17   16 ar   
    29   22   16 ar   
    30   18   17 1    
    31   19   17 ar   
    32   61   18 1    
    33   62   18 1    
    34   20   19 ar   
    35   21   20 ar   
    36   63   20 1    
    37   22   21 ar   
    38   24   23 1    
    39   40   23 2    
    40   25   24 2    
    41   26   24 am   
    42   27   26 am   
    43   64   26 1    
    44   28   27 2    
    45   29   27 1    
    46   30   29 2    
    47   40   29 1    
    48   31   30 1    
    49   32   31 ar   
    50   38   31 ar   
    51   33   32 ar   
    52   65   32 1    
    53   34   33 1    
    54   35   33 ar   
    55   74   34 1    
    56   75   34 1    
    57   76   34 1    
    58   36   35 1    
    59   37   35 ar   
    60   77   36 1    
    61   78   36 1    
    62   79   36 1    
    63   38   37 ar   
    64   66   37 1    
    65   39   38 1    
    66   40   39 1    
    67   41   39 1    
    68   42   41 1    
    69   67   41 1    
    70   68   41 1    
    71   43   42 1    
    72   44   42 1    
    73   69   42 1    
    74   82   43 1    
    75   45   44 1    
    76   46   44 1    
    77   70   44 1    
    78   83   45 1    
    79   47   46 1    
    80   48   46 1    
    81   71   46 1    
    82   84   47 1    
    83   49   48 1    
    84   72   48 1    
    85   73   48 1    
    86   50   49 1    
    87   51   50 ar   
    88   52   50 ar   
    89   53   50 1    
@<TRIPOS>SUBSTRUCTURE
     1 FAD500      1 GROUP   
@<TRIPOS>SET

