#    Name: 3tri_NAP_1_INTS_M
#    Modification time : Mon Mar 24 20:51:19 2014

@<TRIPOS>MOLECULE
3tri_NAP_1_INTS_M
  127     0    12     0     0
SMALL
NO_CHARGES


@<TRIPOS>ATOM
      1 NZ         46.8545   -2.3795   25.0165 N.4       3 LYC4        0.0000 
      2 NZ         46.8820   -2.8500   23.6710 N.4      11 LYL4        0.0000 
      3 NZ         46.8270   -1.9090   26.3620 N.4       7 LYP4        0.0000 
      4 N          46.8545   -2.3795   25.0165 N.am      2 SEC2        0.0000 
      5 N          46.8820   -2.8500   23.6710 N.am     10 SEL2        0.0000 
      6 N          46.8270   -1.9090   26.3620 N.am      6 SEP2        0.0000 
      7 N          44.9110   -3.5210   20.4450 N.am      2 SEC2        0.0000 
      8 N          45.7930   -3.4620   21.5760 N.am     10 SEL2        0.0000 
      9 N          44.0290   -3.5800   19.3140 N.am      6 SEP2        0.0000 
     10 CA         48.6235    1.0085   20.6530 C.3       4 GLC5        0.0000 
     11 CA         48.1230   -1.0740   20.6010 C.3      12 GLL5        0.0000 
     12 CA         49.1240    3.0910   20.7050 C.3       8 GLP5        0.0000 
     13 CA         49.7130   -0.3490   18.0450 C.3       4 GLC5        0.0000 
     14 CA         49.3520   -1.4180   19.7690 C.3      12 GLL5        0.0000 
     15 CA         50.0740    0.7200   16.3210 C.3       8 GLP5        0.0000 
     16 CA         49.7825   -4.5885   19.4140 C.3       4 GLC5        0.0000 
     17 CA         50.1080   -2.5920   20.3760 C.3      12 GLL5        0.0000 
     18 CA         49.4570   -6.5850   18.4520 C.3       8 GLP5        0.0000 
     19 N          49.6680   -4.8760   20.2260 N.am      2 SEC2        0.0000 
     20 N          49.9290   -3.7150   19.5500 N.am     10 SEL2        0.0000 
     21 N          49.4070   -6.0370   20.9020 N.am      6 SEP2        0.0000 
     22 O          50.4600   -3.3030   18.3865 O.2       1 ALC1        0.0000 
     23 O          49.9290   -3.7150   19.5500 O.2       9 ALL1        0.0000 
     24 O          50.9910   -2.8910   17.2230 O.2       5 ALP1        0.0000 
     25 CA         53.6305   -2.4550   19.9865 C.3       4 GLC5        0.0000 
     26 CA         51.5670   -2.1770   20.4210 C.3      12 GLL5        0.0000 
     27 CA         55.6940   -2.7330   19.5520 C.3       8 GLP5        0.0000 
     28 CA         50.8200   -0.1015   17.9430 C.3       4 GLC5        0.0000 
     29 CA         51.5660   -0.9230   19.5650 C.3      12 GLL5        0.0000 
     30 CA         51.3630    1.1080   19.3905 C.3       4 GLC5        0.0000 
     31 CA         51.1600    3.1390   19.2160 C.3       8 GLP5        0.0000 
     32 CA         54.6980    4.0565   18.9580 C.3       4 GLC5        0.0000 
     33 CA         55.2800    2.1910   19.0350 C.3      12 GLL5        0.0000 
     34 CA         54.1160    5.9220   18.8810 C.3       8 GLP5        0.0000 
     35 N          55.4545    3.1885   16.7545 N.am      2 SEC2        0.0000 
     36 N          55.2370    2.2420   17.6570 N.am     10 SEL2        0.0000 
     37 N          55.6720    4.1350   15.8520 N.am      6 SEP2        0.0000 
     38 CA         53.3100    3.2040   16.3205 C.3       4 GLC5        0.0000 
     39 CA         54.3000    1.5070   16.9650 C.3      12 GLL5        0.0000 
     40 CA         52.3200    4.9010   15.6760 C.3       8 GLP5        0.0000 
     41 CA         52.1870    1.1135   16.6430 C.3       4 GLC5        0.0000 
     42 CA         53.6895   -0.2040   15.9855 C.3       4 GLC5        0.0000 
     43 CA         53.0790   -1.9150   15.0060 C.3       8 GLP5        0.0000 
     44 CA         55.2590   -0.4280   17.0265 C.3       4 GLC5        0.0000 
     45 CA         56.2180   -2.3630   17.0880 C.3       8 GLP5        0.0000 
     46 CA         52.7300    2.3230   18.0905 C.3       4 GLC5        0.0000 
     47 N          54.1340   -0.6690   17.1490 N.am      2 SEC2        0.0000 
     48 N          53.4030    0.7180   17.6550 N.am     10 SEL2        0.0000 
     49 N          54.8650   -2.0560   16.6430 N.am      6 SEP2        0.0000 
     50 CA         51.7575    0.6910   17.6645 C.3       4 GLC5        0.0000 
     51 CA         53.4410    0.6620   19.0080 C.3      12 GLL5        0.0000 
     52 N          42.9770   -1.0750   19.8735 N.am      2 SEC2        0.0000 
     53 N          43.9350   -0.6790   20.6880 N.am     10 SEL2        0.0000 
     54 N          42.0190   -1.4710   19.0590 N.am      6 SEP2        0.0000 
     55 CA         47.0470    2.4670   21.1590 C.3       4 GLC5        0.0000 
     56 CA         44.9700    1.8430   21.6130 C.3      12 GLL5        0.0000 
     57 CA         43.5460    4.8105   20.6860 C.3       4 GLC5        0.0000 
     58 CA         44.4800    3.2440   21.9180 C.3      12 GLL5        0.0000 
     59 CA         42.6120    6.3770   19.4540 C.3       8 GLP5        0.0000 
     60 CA         46.7250    3.2830   23.9395 C.3       4 GLC5        0.0000 
     61 CA         44.7040    3.5360   23.3900 C.3      12 GLL5        0.0000 
     62 CA         48.7460    3.0300   24.4890 C.3       8 GLP5        0.0000 
     63 CA         45.9555    3.9915   24.9580 C.3       4 GLC5        0.0000 
     64 CA         47.2070    4.4470   26.5260 C.3       8 GLP5        0.0000 
     65 O          46.5155    4.5415   22.8705 O.2       1 ALC1        0.0000 
     66 O          45.3120    4.8000   23.5100 O.2       9 ALL1        0.0000 
     67 O          47.7190    4.2830   22.2310 O.2       5 ALP1        0.0000 
     68 CA         42.0935    4.9290   25.2715 C.3       4 GLC5        0.0000 
     69 CA         43.3130    3.5460   23.9900 C.3      12 GLL5        0.0000 
     70 CA         40.8740    6.3120   26.5530 C.3       8 GLP5        0.0000 
     71 N          43.2250    6.0750   25.2060 N.am      2 SEC2        0.0000 
     72 N          43.2130    4.5220   24.9970 N.am     10 SEL2        0.0000 
     73 N          43.2370    7.6280   25.4150 N.am      6 SEP2        0.0000 
     74 CA         41.4975    2.9455   21.0250 C.3       4 GLC5        0.0000 
     75 CA         42.4260    3.8780   22.8020 C.3      12 GLL5        0.0000 
     76 CA         40.5690    2.0130   19.2480 C.3       8 GLP5        0.0000 
     77 CA         42.5190    5.1275   21.1280 C.3       4 GLC5        0.0000 
     78 CA         40.7375    1.9770   21.1165 C.3       4 GLC5        0.0000 
     79 CA         40.9060    1.9410   22.9850 C.3      12 GLL5        0.0000 
     80 O          40.2155   -2.3885   23.0840 O.2       1 ALC1        0.0000 
     81 O          40.4600   -0.8880   22.9280 O.2       9 ALL1        0.0000 
     82 O          39.9710   -3.8890   23.2400 O.2       5 ALP1        0.0000 
     83 CA         36.6900    3.7630   24.0780 C.3       4 GLC5        0.0000 
     84 CA         38.7080    3.6160   23.1260 C.3      12 GLL5        0.0000 
     85 CA         34.6720    3.9100   25.0300 C.3       8 GLP5        0.0000 
     86 CA         40.2820    3.0720   21.1250 C.3       4 GLC5        0.0000 
     87 CA         39.9950    4.1310   23.0020 C.3      12 GLL5        0.0000 
     88 CA         40.4345    5.2215   24.7775 C.3       4 GLC5        0.0000 
     89 NZ         51.1845   -5.8320   20.3465 N.4       3 LYC4        0.0000 
     90 NZ         52.9620   -5.6270   19.7910 N.4      11 LYL4        0.0000 
     91 NZ         49.4070   -6.0370   20.9020 N.4       7 LYP4        0.0000 
     92 N          52.7375   -5.0785   18.3955 N.am      2 SEC2        0.0000 
     93 N          52.9620   -5.6270   19.7910 N.am     10 SEL2        0.0000 
     94 N          52.5130   -4.5300   17.0000 N.am      6 SEP2        0.0000 
     95 N          53.4365   -6.4030   19.0070 N.am      2 SEC2        0.0000 
     96 N          53.9110   -7.1790   18.2230 N.am      6 SEP2        0.0000 
     97 NZ         50.5420   -5.4185   21.3140 N.4       3 LYC4        0.0000 
     98 NZ         51.6770   -4.8000   21.7260 N.4      11 LYL4        0.0000 
     99 N          50.5420   -5.4185   21.3140 N.am      2 SEC2        0.0000 
    100 N          51.6770   -4.8000   21.7260 N.am     10 SEL2        0.0000 
    101 NZ         54.5840   -3.2960   22.3265 N.4       3 LYC4        0.0000 
    102 NZ         54.0430   -4.2220   21.5100 N.4      11 LYL4        0.0000 
    103 NZ         56.0140   -1.4900   22.6990 N.4       7 LYP4        0.0000 
    104 N          54.5840   -3.2960   22.3265 N.am      2 SEC2        0.0000 
    105 N          54.0430   -4.2220   21.5100 N.am     10 SEL2        0.0000 
    106 N          55.1250   -2.3700   23.1430 N.am      6 SEP2        0.0000 
    107 CA         47.8454   -2.6215   19.3547 C.3       4 GLC5        0.0000 
    108 CA         46.2680   -3.3240   18.4290 C.3       8 GLP5        0.0000 
    109 CA         55.5868    2.6652   21.1848 C.3       4 GLC5        0.0000 
    110 CA         54.3730    1.3960   19.7220 C.3      12 GLL5        0.0000 
    111 CA         56.3470    3.5370   22.9910 C.3       8 GLP5        0.0000 
    112 CA         55.2874   -0.3426   18.8621 C.3       4 GLC5        0.0000 
    113 CA         56.4410   -1.9130   18.5310 C.3       8 GLP5        0.0000 
    114 CA         52.6469    2.1834   19.2046 C.3       4 GLC5        0.0000 
    115 CA         43.1920    1.7448   20.5322 C.3       4 GLC5        0.0000 
    116 CA         41.6590    0.9460   19.2990 C.3       8 GLP5        0.0000 
    117 CA         45.5970    3.2083   19.9393 C.3       4 GLC5        0.0000 
    118 CA         46.4690    3.8730   18.1130 C.3       8 GLP5        0.0000 
    119 CA         43.8646    5.7332   23.3085 C.3       4 GLC5        0.0000 
    120 CA         44.5120    7.7570   23.3710 C.3       8 GLP5        0.0000 
    121 CA         38.8438    2.0076   21.4090 C.3       4 GLC5        0.0000 
    122 CA         39.6290    1.4030   23.1120 C.3      12 GLL5        0.0000 
    123 CA         38.7950    1.2960   19.6820 C.3       8 GLP5        0.0000 
    124 CA         38.7203    5.4752   23.5490 C.3       4 GLC5        0.0000 
    125 CA         38.0890    7.0770   24.0340 C.3       8 GLP5        0.0000 
    126 CA         38.7488    5.0482   21.4170 C.3       4 GLC5        0.0000 
    127 CA         38.1460    6.2230   19.7700 C.3       8 GLP5        0.0000 
@<TRIPOS>BOND
@<TRIPOS>SUBSTRUCTURE
     1 ALC1       22 GROUP        1 X    ALC  0     ROOT ALC X 1
     2 SEC2        4 GROUP        1 X    SEC  0     **** SEC X 2
     3 LYC4        1 GROUP        1 X    LYC  0     **** LYC X 4
     4 GLC5       10 GROUP        1 X    GLC  0     **** GLC X 6
     5 ALP1       24 GROUP        1 Y    ALP  0     ROOT ALP Y 8
     6 SEP2        6 GROUP        1 Y    SEP  0     **** SEP Y 9
     7 LYP4        3 GROUP        1 Y    LYP  0     **** LYP Y 11
     8 GLP5       12 GROUP        1 Y    GLP  0     **** GLP Y 13
     9 ALL1       23 GROUP        1 Z    ALL  0     ROOT ALL Z 15
    10 SEL2        5 GROUP        1 Z    SEL  0     **** SEL Z 16
    11 LYL4        2 GROUP        1 Z    LYL  0     **** LYL Z 18
    12 GLL5       11 GROUP        1 Z    GLL  0     **** GLL Z 20
@<TRIPOS>SET

