#    Name: 3tri_NAP_1_ligand
#    Modification time : Mon Mar 24 20:51:20 2014

@<TRIPOS>MOLECULE
3tri_NAP_1_ligand
   73    77     1     0     0
SMALL
NO_CHARGES


@<TRIPOS>ATOM
      1 PA         46.5810   -2.4290   22.2840 P.3       1 NAP281      0.0000 
      2 O1A        46.8820   -2.8500   23.6710 O.co2     1 NAP281      0.0000 
      3 O2A        45.7930   -3.4620   21.5760 O.co2     1 NAP281      0.0000 
      4 O5B        47.9680   -2.1210   21.5330 O.3       1 NAP281      0.0000 
      5 C5B        48.1230   -1.0740   20.6010 C.3       1 NAP281      0.0000 
      6 C4B        49.3520   -1.4180   19.7690 C.3       1 NAP281      0.0000 
      7 O4B        50.2750   -0.3500   19.6860 O.3       1 NAP281      0.0000 
      8 C3B        50.1080   -2.5920   20.3760 C.3       1 NAP281      0.0000 
      9 O3B        49.9290   -3.7150   19.5500 O.3       1 NAP281      0.0000 
     10 C2B        51.5670   -2.1770   20.4210 C.3       1 NAP281      0.0000 
     11 O2B        52.3950   -3.1710   19.8660 O.3       1 NAP281      0.0000 
     12 C1B        51.5660   -0.9230   19.5650 C.3       1 NAP281      0.0000 
     13 N9A        52.6770   -0.0190   19.9170 N.pl3     1 NAP281      0.0000 
     14 C8A        53.1430    0.2890   21.1680 C.2       1 NAP281      0.0000 
     15 N7A        54.1770    1.1520   21.0370 N.2       1 NAP281      0.0000 
     16 C5A        54.3730    1.3960   19.7220 C.ar      1 NAP281      0.0000 
     17 C6A        55.2800    2.1910   19.0350 C.ar      1 NAP281      0.0000 
     18 N6A        56.1860    2.9010   19.7000 N.pl3     1 NAP281      0.0000 
     19 N1A        55.2370    2.2420   17.6570 N.ar      1 NAP281      0.0000 
     20 C2A        54.3000    1.5070   16.9650 C.ar      1 NAP281      0.0000 
     21 N3A        53.4030    0.7180   17.6550 N.ar      1 NAP281      0.0000 
     22 C4A        53.4410    0.6620   19.0080 C.ar      1 NAP281      0.0000 
     23 O3         45.8340   -1.0100   22.2390 O.3       1 NAP281      0.0000 
     24 PN         44.2860   -0.5930   22.1200 P.3       1 NAP281      0.0000 
     25 O1N        43.4790   -1.3020   23.1360 O.co2     1 NAP281      0.0000 
     26 O2N        43.9350   -0.6790   20.6880 O.co2     1 NAP281      0.0000 
     27 O5D        44.4020    0.9490   22.5380 O.3       1 NAP281      0.0000 
     28 C5D        44.9700    1.8430   21.6130 C.3       1 NAP281      0.0000 
     29 C4D        44.4800    3.2440   21.9180 C.3       1 NAP281      0.0000 
     30 O4D        43.0880    3.3410   21.6730 O.3       1 NAP281      0.0000 
     31 C3D        44.7040    3.5360   23.3900 C.3       1 NAP281      0.0000 
     32 O3D        45.3120    4.8000   23.5100 O.3       1 NAP281      0.0000 
     33 C2D        43.3130    3.5460   23.9900 C.3       1 NAP281      0.0000 
     34 O2D        43.2130    4.5220   24.9970 O.3       1 NAP281      0.0000 
     35 C1D        42.4260    3.8780   22.8020 C.3       1 NAP281      0.0000 
     36 N1N        41.0760    3.2970   22.9370 N.pl3     1 NAP281      0.0000 
     37 C2N        40.9060    1.9410   22.9850 C.ar      1 NAP281      0.0000 
     38 C3N        39.6290    1.4030   23.1120 C.ar      1 NAP281      0.0000 
     39 C7N        39.4350   -0.0820   23.1970 C.2       1 NAP281      0.0000 
     40 O7N        38.1680   -0.5850   23.5550 O.2       1 NAP281      0.0000 
     41 N7N        40.4600   -0.8880   22.9280 N.am      1 NAP281      0.0000 
     42 C4N        38.5250    2.2420   23.1800 C.ar      1 NAP281      0.0000 
     43 C5N        38.7080    3.6160   23.1260 C.ar      1 NAP281      0.0000 
     44 C6N        39.9950    4.1310   23.0020 C.ar      1 NAP281      0.0000 
     45 P2B        52.7730   -4.4730   20.7400 P.3       1 NAP281      0.0000 
     46 O1X        52.9620   -5.6270   19.7910 O.co2     1 NAP281      0.0000 
     47 O2X        51.6770   -4.8000   21.7260 O.co2     1 NAP281      0.0000 
     48 O3X        54.0430   -4.2220   21.5100 O.co2     1 NAP281      0.0000 
     49 H          48.3014   -0.1158   21.0784 H         1 NAP281      0.0000 
     50 H          47.2769   -0.9895   19.9265 H         1 NAP281      0.0000 
     51 H          49.0263   -1.7269   18.7797 H         1 NAP281      0.0000 
     52 H          49.7583   -2.7345   21.3684 H         1 NAP281      0.0000 
     53 H          51.8044   -1.9024   21.4126 H         1 NAP281      0.0000 
     54 H          51.7106   -1.2764   18.5229 H         1 NAP281      0.0000 
     55 H          52.7891   -0.0545   21.9922 H         1 NAP281      0.0000 
     56 H          56.1519    2.8344   20.6972 H         1 NAP281      0.0000 
     57 H          56.8199    3.4376   19.1430 H         1 NAP281      0.0000 
     58 H          54.2683    1.5456   15.9356 H         1 NAP281      0.0000 
     59 H          44.6864    1.6064   20.5801 H         1 NAP281      0.0000 
     60 H          46.0657    1.8526   21.6650 H         1 NAP281      0.0000 
     61 H          45.0402    3.9465   21.3443 H         1 NAP281      0.0000 
     62 H          45.2587    2.7458   23.8094 H         1 NAP281      0.0000 
     63 H          43.0837    2.5603   24.3107 H         1 NAP281      0.0000 
     64 H          42.3662    4.9527   22.7295 H         1 NAP281      0.0000 
     65 H          41.7187    1.3069   22.9278 H         1 NAP281      0.0000 
     66 H          40.2858   -1.8681   23.0232 H         1 NAP281      0.0000 
     67 H          41.3117   -0.4406   22.6550 H         1 NAP281      0.0000 
     68 H          37.5822    1.8488   23.2694 H         1 NAP281      0.0000 
     69 H          37.9032    4.2486   23.1768 H         1 NAP281      0.0000 
     70 H          40.1235    5.1587   22.9594 H         1 NAP281      0.0000 
     71 H          49.8734   -3.3471   18.6217 H         1 NAP281      0.0000 
     72 H          46.2159    4.6926   23.0960 H         1 NAP281      0.0000 
     73 H          42.2442    4.7685   25.0231 H         1 NAP281      0.0000 
@<TRIPOS>BOND
     1    2    1 ar   
     2    3    1 ar   
     3    4    1 1    
     4   23    1 1    
     5    5    4 1    
     6    6    5 1    
     7   49    5 1    
     8   50    5 1    
     9    7    6 1    
    10    8    6 1    
    11   51    6 1    
    12   12    7 1    
    13    9    8 1    
    14   10    8 1    
    15   52    8 1    
    16   71    9 1    
    17   11   10 1    
    18   12   10 1    
    19   53   10 1    
    20   45   11 1    
    21   13   12 1    
    22   54   12 1    
    23   14   13 1    
    24   22   13 1    
    25   15   14 2    
    26   55   14 1    
    27   16   15 1    
    28   17   16 ar   
    29   22   16 ar   
    30   18   17 1    
    31   19   17 ar   
    32   56   18 1    
    33   57   18 1    
    34   20   19 ar   
    35   21   20 ar   
    36   58   20 1    
    37   22   21 ar   
    38   24   23 1    
    39   25   24 ar   
    40   26   24 ar   
    41   27   24 1    
    42   28   27 1    
    43   29   28 1    
    44   59   28 1    
    45   60   28 1    
    46   30   29 1    
    47   31   29 1    
    48   61   29 1    
    49   35   30 1    
    50   32   31 1    
    51   33   31 1    
    52   62   31 1    
    53   72   32 1    
    54   34   33 1    
    55   35   33 1    
    56   63   33 1    
    57   73   34 1    
    58   36   35 1    
    59   64   35 1    
    60   37   36 ar   
    61   44   36 ar   
    62   38   37 ar   
    63   65   37 1    
    64   39   38 1    
    65   42   38 ar   
    66   40   39 2    
    67   41   39 am   
    68   66   41 1    
    69   67   41 1    
    70   43   42 ar   
    71   68   42 1    
    72   44   43 ar   
    73   69   43 1    
    74   70   44 1    
    75   46   45 ar   
    76   47   45 ar   
    77   48   45 ar   
@<TRIPOS>SUBSTRUCTURE
     1 NAP281      1 GROUP   
@<TRIPOS>SET

