#    Name: 1CIM_1_CAVITY_N1_ALL.mol2
#    Modification time : Mon Mar 10 16:43:48 2014

@<TRIPOS>MOLECULE
1CIM_1_CAVITY_N1_ALL.mol2
   61     0     6     0     0
SMALL
NO_CHARGES


@<TRIPOS>ATOM
      1 CA         -1.5047    7.0010   14.1885 C.3       5 GLY6        0.0000 
      2 N          -0.2331    5.6128   13.2108 N.2       2 ALA2        0.0000 
      3 CZ         -3.7912    7.3063   15.3838 C.ar      4 PHE5        0.0000 
      4 CA         -2.5196    5.9181   14.4061 C.3       5 GLY6        0.0000 
      5 CZ         -3.6090    6.8508   13.9663 C.ar      4 PHE5        0.0000 
      6 CZ         -4.6984    7.7834   13.5265 C.ar      4 PHE5        0.0000 
      7 N          -1.2480    4.5299   13.4284 N.2       2 ALA2        0.0000 
      8 DU         -2.3374    5.4626   12.9886 H         6 CUB7        0.0000 
      9 DU         -3.4268    6.3952   12.5488 H         6 CUB7        0.0000 
     10 CZ         -4.5162    7.3279   12.1090 C.ar      4 PHE5        0.0000 
     11 CZ         -5.6055    8.2605   11.6692 C.ar      4 PHE5        0.0000 
     12 N          -1.0658    4.0744   12.0109 N.2       2 ALA2        0.0000 
     13 DU         -2.1552    5.0070   11.5711 H         6 CUB7        0.0000 
     14 DU         -3.2445    5.9397   11.1313 H         6 CUB7        0.0000 
     15 N          -0.8835    3.6188   10.5934 N.2       2 ALA2        0.0000 
     16 DU         -1.9729    4.5514   10.1536 H         6 CUB7        0.0000 
     17 DU         -3.0623    5.4841    9.7138 H         6 CUB7        0.0000 
     18 CA         -4.8061    6.2234   15.6013 C.3       5 GLY6        0.0000 
     19 OG         -2.4451    3.9026   15.0634 O.2       1 SER1        0.0000 
     20 CA         -3.5345    4.8352   14.6236 C.3       5 GLY6        0.0000 
     21 DU         -4.6239    5.7679   14.1838 H         6 CUB7        0.0000 
     22 CZ         -5.7133    6.7005   13.7441 C.ar      4 PHE5        0.0000 
     23 OG         -2.2629    3.4470   13.6459 O.2       1 SER1        0.0000 
     24 DU         -3.3523    4.3797   13.2061 H         6 CUB7        0.0000 
     25 O          -4.4417    5.3123   12.7664 O.2       2 ALA2        0.0000 
     26 O          -5.5311    6.2450   12.3266 O.2       2 ALA2        0.0000 
     27 OG         -2.0807    2.9915   12.2284 O.2       1 SER1        0.0000 
     28 DU         -3.1701    3.9241   11.7887 H         6 CUB7        0.0000 
     29 O          -4.2594    4.8568   11.3489 O.2       2 ALA2        0.0000 
     30 O          -5.3488    5.7894   10.9091 O.2       2 ALA2        0.0000 
     31 N          -2.9878    3.4686   10.3712 N.2       2 ALA2        0.0000 
     32 N          -4.0772    4.4012    9.9314 N.2       2 ALA2        0.0000 
     33 N          -5.1666    5.3339    9.4916 N.2       2 ALA2        0.0000 
     34 CA         -5.8210    5.1406   15.8189 C.3       5 GLY6        0.0000 
     35 CA         -6.9104    6.0732   15.3791 C.3       5 GLY6        0.0000 
     36 OG         -3.4600    2.8197   15.2810 O.2       1 SER1        0.0000 
     37 CA         -4.5494    3.7524   14.8412 C.3       5 GLY6        0.0000 
     38 O          -5.6388    4.6850   14.4014 O.2       2 ALA2        0.0000 
     39 O          -6.7282    5.6176   13.9616 O.2       2 ALA2        0.0000 
     40 OG         -3.2778    2.3641   13.8635 O.2       1 SER1        0.0000 
     41 O          -4.3672    3.2968   13.4237 O.2       2 ALA2        0.0000 
     42 O          -5.4566    4.2294   12.9839 O.2       2 ALA2        0.0000 
     43 OG         -3.0956    1.9086   12.4460 O.2       1 SER1        0.0000 
     44 N          -4.1850    2.8412   12.0062 N.2       2 ALA2        0.0000 
     45 O          -5.2743    3.7739   11.5664 O.2       2 ALA2        0.0000 
     46 N          -4.0027    2.3857   10.5887 N.2       2 ALA2        0.0000 
     47 N          -5.0921    3.3183   10.1489 N.2       2 ALA2        0.0000 
     48 CA         -4.6572    2.1924   16.9160 C.3       5 GLY6        0.0000 
     49 CA         -5.7465    3.1250   16.4762 C.3       5 GLY6        0.0000 
     50 CA         -6.8359    4.0577   16.0364 C.3       5 GLY6        0.0000 
     51 OG         -3.3855    0.8042   15.9383 O.2       1 SER1        0.0000 
     52 OG         -4.4749    1.7368   15.4985 O.2       1 SER1        0.0000 
     53 N          -5.5643    2.6695   15.0587 N.2       2 ALA2        0.0000 
     54 CA         -6.6537    3.6021   14.6189 C.3       5 GLY6        0.0000 
     55 OG         -4.2927    1.2813   14.0810 O.2       1 SER1        0.0000 
     56 N          -5.3821    2.2139   13.6412 N.2       2 ALA2        0.0000 
     57 N          -4.1105    0.8257   12.6635 N.2       2 ALA2        0.0000 
     58 N          -5.1999    1.7584   12.2238 N.2       2 ALA2        0.0000 
     59 OD1        -5.6721    1.1095   17.1335 O.3       3 ASP3        0.0000 
     60 CA         -6.7614    2.0421   16.6938 C.3       5 GLY6        0.0000 
     61 OD1        -5.4898    0.6539   15.7161 O.3       3 ASP3        0.0000 
@<TRIPOS>BOND
@<TRIPOS>SUBSTRUCTURE
     1 SER1       19 GROUP   
     2 ALA2        2 GROUP   
     3 ASP3       59 GROUP   
     4 PHE5        3 GROUP   
     5 GLY6        1 GROUP   
     6 CUB7        8 GROUP   
@<TRIPOS>SET

