#    Name: 1cim_PTS_1_INTS_M
#    Modification time : Mon Mar 24 20:44:04 2014

@<TRIPOS>MOLECULE
1cim_PTS_1_INTS_M
   38     0    12     0     0
SMALL
NO_CHARGES


@<TRIPOS>ATOM
      1 CA         -7.9780    3.5475   15.1920 C.3       4 GLC5        0.0000 
      2 CA         -6.1700    3.6520   15.4750 C.3      12 GLL5        0.0000 
      3 CA         -9.7860    3.4430   14.9090 C.3       8 GLP5        0.0000 
      4 CA         -3.2075    2.8860   17.0065 C.3       4 GLC5        0.0000 
      5 CA         -3.9990    2.2880   15.2110 C.3      12 GLL5        0.0000 
      6 CA         -2.4160    3.4840   18.8020 C.3       8 GLP5        0.0000 
      7 CA         -2.1855    1.1015   14.9580 C.3       4 GLC5        0.0000 
      8 CA         -0.3720   -0.0850   14.7050 C.3       8 GLP5        0.0000 
      9 CA         -0.5585    5.7470   14.7440 C.3       4 GLC5        0.0000 
     10 CA         -2.3160    5.4870   13.7360 C.3      12 GLL5        0.0000 
     11 CA          1.1990    6.0070   15.7520 C.3       8 GLP5        0.0000 
     12 Zn         -6.9935   -0.3760   15.9825 Zn        3 ZIC7        0.0000 
     13 Zn         -7.3130    0.7920   16.6570 Zn       11 ZIL7        0.0000 
     14 Zn         -6.6740   -1.5440   15.3080 Zn        7 ZIP7        0.0000 
     15 N          -4.0060    0.6580   18.5370 N.am      2 SEC2        0.0000 
     16 N          -5.3050    1.0540   18.0130 N.am     10 SEL2        0.0000 
     17 N          -2.7070    0.2620   19.0610 N.am      6 SEP2        0.0000 
     18 O          -4.4875   -1.3050   16.9840 O.2       1 ALC1        0.0000 
     19 O          -5.2850   -0.5820   16.0930 O.2       9 ALL1        0.0000 
     20 O          -3.6900   -2.0280   17.8750 O.2       5 ALP1        0.0000 
     21 Zn         -5.9795   -1.0630   15.7005 Zn        3 ZIC7        0.0000 
     22 Zn         -5.2850   -0.5820   16.0930 Zn       11 ZIL7        0.0000 
     23 O          -1.6405    2.2060   13.6035 O.2       1 ALC1        0.0000 
     24 O          -2.2350    3.2710   12.6770 O.2       9 ALL1        0.0000 
     25 O          -1.0460    1.1410   14.5300 O.2       5 ALP1        0.0000 
     26 CA         -4.3270    8.9995   13.4910 C.3       4 GLC5        0.0000 
     27 CA         -3.4120    7.5370   12.6810 C.3      12 GLL5        0.0000 
     28 CA         -5.2420   10.4620   14.3010 C.3       8 GLP5        0.0000 
     29 N          -6.9190    5.3760   12.5555 N.am      2 SEC2        0.0000 
     30 N          -6.0970    6.3500   13.4880 N.am     10 SEL2        0.0000 
     31 N          -7.7410    4.4020   11.6230 N.am      6 SEP2        0.0000 
     32 CA         -5.0425    3.9455   17.0068 C.3       4 GLC5        0.0000 
     33 CA         -4.3370    4.9640   18.4330 C.3       8 GLP5        0.0000 
     34 CA         -4.3215    4.4715   16.5375 C.3       4 GLC5        0.0000 
     35 CA         -4.8820    4.3900   14.6570 C.3      12 GLL5        0.0000 
     36 CA         -2.2090    5.2220   15.8100 C.3       4 GLC5        0.0000 
     37 CA         -2.4180    3.9510   13.9900 C.3      12 GLL5        0.0000 
     38 CA         -2.0510    5.7250   17.7570 C.3       8 GLP5        0.0000 
@<TRIPOS>BOND
@<TRIPOS>SUBSTRUCTURE
     1 ALC1       18 GROUP        1 X    ALC  0     ROOT ALC X 1
     2 SEC2       15 GROUP        1 X    SEC  0     **** SEC X 2
     3 ZIC7       12 GROUP        1 X    ZIC  0     **** ZIC X 5
     4 GLC5        1 GROUP        1 X    GLC  0     **** GLC X 6
     5 ALP1       20 GROUP        1 Y    ALP  0     ROOT ALP Y 8
     6 SEP2       17 GROUP        1 Y    SEP  0     **** SEP Y 9
     7 ZIP7       14 GROUP        1 Y    ZIP  0     **** ZIP Y 12
     8 GLP5        3 GROUP        1 Y    GLP  0     **** GLP Y 13
     9 ALL1       19 GROUP        1 Z    ALL  0     ROOT ALL Z 15
    10 SEL2       16 GROUP        1 Z    SEL  0     **** SEL Z 16
    11 ZIL7       13 GROUP        1 Z    ZIL  0     **** ZIL Z 19
    12 GLL5        2 GROUP        1 Z    GLL  0     **** GLL Z 20
@<TRIPOS>SET

