#    Name: 1cim_PTS_1_ligand
#    Modification time : Mon Mar 24 20:44:04 2014

@<TRIPOS>MOLECULE
1cim_PTS_1_ligand
   29    30     1     0     0
SMALL
NO_CHARGES


@<TRIPOS>ATOM
      1 S1         -6.1700    3.6520   15.4750 S.3       1 PTS264      0.0000 
      2 C2         -5.3260    2.2020   15.6860 C.2       1 PTS264      0.0000 
      3 C3         -3.9990    2.2880   15.2110 C.2       1 PTS264      0.0000 
      4 C4         -3.7300    3.5680   14.6270 C.2       1 PTS264      0.0000 
      5 C5         -2.4180    3.9510   13.9900 C.3       1 PTS264      0.0000 
      6 C6         -2.3160    5.4870   13.7360 C.3       1 PTS264      0.0000 
      7 C7         -3.5540    6.0630   13.0530 C.3       1 PTS264      0.0000 
      8 S8         -4.8950    6.0150   14.2140 S.o2      1 PTS264      0.0000 
      9 C9         -4.8820    4.3900   14.6570 C.2       1 PTS264      0.0000 
     10 S10        -5.8890    0.9210   16.7120 S.o2      1 PTS264      0.0000 
     11 O11        -7.3130    0.7920   16.6570 O.2       1 PTS264      0.0000 
     12 O12        -5.3050    1.0540   18.0130 O.2       1 PTS264      0.0000 
     13 N13        -5.2850   -0.5820   16.0930 N.pl3     1 PTS264      0.0000 
     14 N14        -2.2350    3.2710   12.6770 N.4       1 PTS264      0.0000 
     15 C15        -3.4120    7.5370   12.6810 C.3       1 PTS264      0.0000 
     16 O16        -6.0970    6.3500   13.4880 O.2       1 PTS264      0.0000 
     17 O17        -4.5140    6.8310   15.3300 O.2       1 PTS264      0.0000 
     18 H          -3.3507    1.5837   15.2672 H         1 PTS264      0.0000 
     19 H          -1.5998    3.6815   14.6442 H         1 PTS264      0.0000 
     20 H          -1.4339    5.6740   13.1148 H         1 PTS264      0.0000 
     21 H          -2.1637    5.9845   14.6994 H         1 PTS264      0.0000 
     22 H          -3.9016    5.4855   12.2633 H         1 PTS264      0.0000 
     23 H          -4.3931   -0.8735   16.4385 H         1 PTS264      0.0000 
     24 H          -3.1095    3.0927   12.2261 H         1 PTS264      0.0000 
     25 H          -1.6872    3.8214   12.0469 H         1 PTS264      0.0000 
     26 H          -1.7714    2.3905   12.7762 H         1 PTS264      0.0000 
     27 H          -3.2485    8.1088   13.4849 H         1 PTS264      0.0000 
     28 H          -2.6492    7.6896   12.0526 H         1 PTS264      0.0000 
     29 H          -4.2347    7.8881   12.2340 H         1 PTS264      0.0000 
@<TRIPOS>BOND
     1    2    1 1    
     2    9    1 1    
     3    3    2 2    
     4   10    2 1    
     5    4    3 1    
     6   18    3 1    
     7    5    4 1    
     8    9    4 2    
     9    6    5 1    
    10   14    5 1    
    11   19    5 1    
    12    7    6 1    
    13   20    6 1    
    14   21    6 1    
    15    8    7 1    
    16   15    7 1    
    17   22    7 1    
    18    9    8 1    
    19   16    8 2    
    20   17    8 2    
    21   11   10 2    
    22   12   10 2    
    23   13   10 1    
    24   23   13 1    
    25   24   14 1    
    26   25   14 1    
    27   26   14 1    
    28   27   15 1    
    29   28   15 1    
    30   29   15 1    
@<TRIPOS>SUBSTRUCTURE
     1 PTS264      1 GROUP   
@<TRIPOS>SET

