#    Name: 3prs_RIT_1_INTS_M
#    Modification time : Tue Mar 25 08:24:48 2014

@<TRIPOS>MOLECULE
3prs_RIT_1_INTS_M
  100     0     9     0     0
SMALL
NO_CHARGES


@<TRIPOS>ATOM
      1 CA          2.1575    7.0230   16.9725 C.3       3 GLC5        0.0000 
      2 CA          2.7890    8.6360   16.1290 C.3       9 GLL5        0.0000 
      3 CA          1.5260    5.4100   17.8160 C.3       6 GLP5        0.0000 
      4 CA          4.6550    5.5880   14.1120 C.3       3 GLC5        0.0000 
      5 CA          4.7180    7.5550   14.9430 C.3       9 GLL5        0.0000 
      6 CA          4.5920    3.6210   13.2810 C.3       6 GLP5        0.0000 
      7 CA          6.6505    7.8695   14.1860 C.3       3 GLC5        0.0000 
      8 CA          8.5830    8.1840   13.4290 C.3       6 GLP5        0.0000 
      9 CA          1.1375    6.3910   13.7015 C.3       3 GLC5        0.0000 
     10 CA          2.3350    8.2090   13.6320 C.3       9 GLL5        0.0000 
     11 CA         -0.0600    4.5730   13.7710 C.3       6 GLP5        0.0000 
     12 N          -0.7545    7.9710   11.8000 N.am      2 SEC2        0.0000 
     13 N           0.5950    7.5100   11.8610 N.am      8 SEL2        0.0000 
     14 N          -2.1040    8.4320   11.7390 N.am      5 SEP2        0.0000 
     15 O           3.6625    5.9250   10.8445 O.2       1 ALC1        0.0000 
     16 O           2.1650    6.1530   10.7920 O.2       7 ALL1        0.0000 
     17 O           5.1600    5.6970   10.8970 O.2       4 ALP1        0.0000 
     18 CA         -0.0160   11.6885    7.5540 C.3       3 GLC5        0.0000 
     19 CA          0.6660   10.5530    8.9710 C.3       9 GLL5        0.0000 
     20 CA         -0.6980   12.8240    6.1370 C.3       6 GLP5        0.0000 
     21 N           2.9435    3.0920    9.7875 N.am      2 SEC2        0.0000 
     22 N           2.6620    4.0940    8.8740 N.am      8 SEL2        0.0000 
     23 N           3.2250    2.0900   10.7010 N.am      5 SEP2        0.0000 
     24 O           2.7150    4.7665    7.4100 O.2       1 ALC1        0.0000 
     25 O           2.6620    4.0940    8.8740 O.2       7 ALL1        0.0000 
     26 O           2.7680    5.4390    5.9460 O.2       4 ALP1        0.0000 
     27 O           3.3245    3.9060    7.7720 O.2       1 ALC1        0.0000 
     28 O           3.9870    3.7180    6.6700 O.2       4 ALP1        0.0000 
     29 CA         -1.6035    4.0065   12.5390 C.3       3 GLC5        0.0000 
     30 CA         -1.8040    3.2440   10.9990 C.3       9 GLL5        0.0000 
     31 CA         -1.4030    4.7690   14.0790 C.3       6 GLP5        0.0000 
     32 CA         -3.3465   -2.8250    9.5375 C.3       3 GLC5        0.0000 
     33 CA         -2.8690   -0.6980    9.6000 C.3       9 GLL5        0.0000 
     34 CA         -3.8240   -4.9520    9.4750 C.3       6 GLP5        0.0000 
     35 CA         -1.0650   -1.3340   12.0570 C.3       3 GLC5        0.0000 
     36 CA         -1.7920   -0.5330   10.4420 C.3       9 GLL5        0.0000 
     37 CA         -0.3380   -2.1350   13.6720 C.3       6 GLP5        0.0000 
     38 CA          0.1015   -0.2345   11.6745 C.3       3 GLC5        0.0000 
     39 CA         -1.4570    0.7500   10.8730 C.3       9 GLL5        0.0000 
     40 CA          1.6600   -1.2190   12.4760 C.3       6 GLP5        0.0000 
     41 O          -0.9035    2.9355    7.9090 O.2       1 ALC1        0.0000 
     42 O          -1.5440    4.2650    8.7180 O.2       7 ALL1        0.0000 
     43 O          -0.2630    1.6060    7.1000 O.2       4 ALP1        0.0000 
     44 O          -5.0375    4.2660    8.5000 O.2       1 ALC1        0.0000 
     45 O          -4.2440    4.3260    7.0750 O.2       7 ALL1        0.0000 
     46 O          -5.8310    4.2060    9.9250 O.2       4 ALP1        0.0000 
     47 N          -3.7515    7.0220    9.9250 N.am      2 SEC2        0.0000 
     48 N          -2.9160    5.9490    9.3760 N.am      8 SEL2        0.0000 
     49 N          -4.5870    8.0950   10.4740 N.am      5 SEP2        0.0000 
     50 CA         -0.6350    8.3260    5.7100 C.3       3 GLC5        0.0000 
     51 CA         -2.1350    7.5120    6.6510 C.3       9 GLL5        0.0000 
     52 CA          0.8650    9.1400    4.7690 C.3       6 GLP5        0.0000 
     53 CA         -2.4010    5.8510    4.3690 C.3       3 GLC5        0.0000 
     54 CA         -4.0490    6.6610    5.2570 C.3       9 GLL5        0.0000 
     55 CA         -0.7530    5.0410    3.4810 C.3       6 GLP5        0.0000 
     56 CA         -4.0600    7.2070    3.4435 C.3       3 GLC5        0.0000 
     57 CA         -4.0710    7.7530    1.6300 C.3       6 GLP5        0.0000 
     58 CA         -4.7135    1.3605    3.2965 C.3       3 GLC5        0.0000 
     59 CA         -5.8520    1.7200    5.0290 C.3       9 GLL5        0.0000 
     60 CA         -3.5750    1.0010    1.5640 C.3       6 GLP5        0.0000 
     61 N          -2.6755    2.6710    3.9775 N.am      2 SEC2        0.0000 
     62 N          -3.6110    3.3330    5.1190 N.am      8 SEL2        0.0000 
     63 N          -1.7400    2.0090    2.8360 N.am      5 SEP2        0.0000 
     64 CA         -5.9415   -4.1010    6.0890 C.3       3 GLC5        0.0000 
     65 CA         -5.8390   -2.0450    6.3170 C.3       9 GLL5        0.0000 
     66 CA         -6.0440   -6.1570    5.8610 C.3       6 GLP5        0.0000 
     67 CA         -6.1220   -2.7055    4.4040 C.3       3 GLC5        0.0000 
     68 CA         -6.4050   -3.3660    2.4910 C.3       6 GLP5        0.0000 
     69 CA         -7.5625   -4.5640    5.4420 C.3       3 GLC5        0.0000 
     70 CA         -9.0810   -2.9710    5.0230 C.3       9 GLL5        0.0000 
     71 CA         -7.7430   -3.1685    3.7570 C.3       3 GLC5        0.0000 
     72 CA         -7.1615   -4.7325    6.6340 C.3       3 GLC5        0.0000 
     73 CA         -8.2790   -3.3080    7.4070 C.3       9 GLL5        0.0000 
     74 CA         -8.4300   -4.2305    9.1860 C.3       3 GLC5        0.0000 
     75 CA         -8.5810   -5.1530   10.9650 C.3       6 GLP5        0.0000 
     76 CA         -6.4100    4.6480    8.3540 C.3       3 GLC5        0.0000 
     77 CA         -6.5900    2.8060    7.1590 C.3       9 GLL5        0.0000 
     78 CA         -6.2300    6.4900    9.5490 C.3       6 GLP5        0.0000 
     79 CA          3.2995    6.2410   16.0830 C.3       3 GLC5        0.0000 
     80 CA          3.1400    8.1810   14.8630 C.3       9 GLL5        0.0000 
     81 CA          2.6700    4.6140   17.2630 C.3       6 GLP5        0.0000 
     82 CA         -0.1542    4.2498   11.8775 C.3       3 GLC5        0.0000 
     83 CA          0.4810    3.6890    9.8940 C.3       9 GLL5        0.0000 
     84 CA          1.4253    8.4473    6.7095 C.3       3 GLC5        0.0000 
     85 CA          1.9450    8.4830    8.8420 C.3       9 GLL5        0.0000 
     86 CA         -0.9165    9.6590    9.7918 C.3       3 GLC5        0.0000 
     87 CA          0.7520    9.1890    8.6020 C.3       9 GLL5        0.0000 
     88 CA         -2.5420    9.4470   10.7970 C.3       6 GLP5        0.0000 
     89 CA          0.7870    9.5055    6.7778 C.3       3 GLC5        0.0000 
     90 CA          2.6647   11.6618    7.7771 C.3       3 GLC5        0.0000 
     91 CA          3.2580   12.6460    6.0130 C.3       6 GLP5        0.0000 
     92 CA          3.9859    8.5119    7.7300 C.3       3 GLC5        0.0000 
     93 CA          3.0360    9.1290    9.4400 C.3       9 GLL5        0.0000 
     94 CA          5.4610    8.5820    6.4150 C.3       6 GLP5        0.0000 
     95 CA         -4.7252    6.2085    8.1975 C.3       3 GLC5        0.0000 
     96 CA         -3.3980    6.6570    6.6560 C.3       9 GLL5        0.0000 
     97 CA         -1.7154    5.8803    5.1147 C.3       3 GLC5        0.0000 
     98 CA         -4.0183   -2.7327    5.8183 C.3       3 GLC5        0.0000 
     99 CA         -5.1260   -0.5680    5.8420 C.3       9 GLL5        0.0000 
    100 CA         -2.5540   -4.1590    5.5570 C.3       6 GLP5        0.0000 
@<TRIPOS>BOND
@<TRIPOS>SUBSTRUCTURE
     1 ALC1       15 GROUP        1 X    ALC  0     ROOT ALC X 1
     2 SEC2       12 GROUP        1 X    SEC  0     **** SEC X 2
     3 GLC5        1 GROUP        1 X    GLC  0     **** GLC X 6
     4 ALP1       17 GROUP        1 Y    ALP  0     ROOT ALP Y 8
     5 SEP2       14 GROUP        1 Y    SEP  0     **** SEP Y 9
     6 GLP5        3 GROUP        1 Y    GLP  0     **** GLP Y 13
     7 ALL1       16 GROUP        1 Z    ALL  0     ROOT ALL Z 15
     8 SEL2       13 GROUP        1 Z    SEL  0     **** SEL Z 16
     9 GLL5        2 GROUP        1 Z    GLL  0     **** GLL Z 20
@<TRIPOS>SET

