#    Name: 3prs_RIT_1_ligand
#    Modification time : Tue Mar 25 08:24:48 2014

@<TRIPOS>MOLECULE
3prs_RIT_1_ligand
   98   101     1     0     0
SMALL
NO_CHARGES


@<TRIPOS>ATOM
      1 C1          2.7890    8.6360   16.1290 C.2       1 RIT1001     0.0000 
      2 C2          3.1400    8.1810   14.8630 C.2       1 RIT1001     0.0000 
      3 S3          4.7180    7.5550   14.9430 S.3       1 RIT1001     0.0000 
      4 C4          4.8470    7.9150   16.6130 C.2       1 RIT1001     0.0000 
      5 N5          3.7590    8.4800   17.1150 N.2       1 RIT1001     0.0000 
      6 C6          2.3350    8.2090   13.6320 C.3       1 RIT1001     0.0000 
      7 O7          2.6200    7.0870   12.7570 O.3       1 RIT1001     0.0000 
      8 C10         1.6770    6.9560   11.7860 C.2       1 RIT1001     0.0000 
      9 O24         0.5950    7.5100   11.8610 O.2       1 RIT1001     0.0000 
     10 N11         2.1650    6.1530   10.7920 N.am      1 RIT1001     0.0000 
     11 C12         1.3860    6.0740    9.5130 C.3       1 RIT1001     0.0000 
     12 C13         1.3350    4.6090    9.0200 C.3       1 RIT1001     0.0000 
     13 C14         0.4810    3.6890    9.8940 C.3       1 RIT1001     0.0000 
     14 C15        -0.9780    4.1640   10.0740 C.3       1 RIT1001     0.0000 
     15 C26         2.0260    7.0260    8.4580 C.3       1 RIT1001     0.0000 
     16 C28         1.9450    8.4830    8.8420 C.ar      1 RIT1001     0.0000 
     17 C31         0.7520    9.1890    8.6020 C.ar      1 RIT1001     0.0000 
     18 C32         0.6660   10.5530    8.9710 C.ar      1 RIT1001     0.0000 
     19 C33         1.7580   11.1910    9.5700 C.ar      1 RIT1001     0.0000 
     20 C34         2.9310   10.4830    9.8120 C.ar      1 RIT1001     0.0000 
     21 C35         3.0360    9.1290    9.4400 C.ar      1 RIT1001     0.0000 
     22 O41         2.6620    4.0940    8.8740 O.3       1 RIT1001     0.0000 
     23 C44        -1.8040    3.2440   10.9990 C.3       1 RIT1001     0.0000 
     24 C45        -2.1920    1.8750   10.4720 C.ar      1 RIT1001     0.0000 
     25 C48        -3.2680    1.6770    9.6160 C.ar      1 RIT1001     0.0000 
     26 C49        -3.6210    0.4050    9.1620 C.ar      1 RIT1001     0.0000 
     27 C50        -2.8690   -0.6980    9.6000 C.ar      1 RIT1001     0.0000 
     28 C51        -1.7920   -0.5330   10.4420 C.ar      1 RIT1001     0.0000 
     29 C52        -1.4570    0.7500   10.8730 C.ar      1 RIT1001     0.0000 
     30 N58        -1.5440    4.2650    8.7180 N.am      1 RIT1001     0.0000 
     31 N20        -4.2440    4.3260    7.0750 N.am      1 RIT1001     0.0000 
     32 C19        -3.0430    5.1970    7.0360 C.3       1 RIT1001     0.0000 
     33 C18        -2.5100    5.2120    8.4880 C.2       1 RIT1001     0.0000 
     34 O61        -2.9160    5.9490    9.3760 O.2       1 RIT1001     0.0000 
     35 C62        -3.3980    6.6570    6.6560 C.3       1 RIT1001     0.0000 
     36 C64        -2.1350    7.5120    6.6510 C.3       1 RIT1001     0.0000 
     37 C68        -4.0490    6.6610    5.2570 C.3       1 RIT1001     0.0000 
     38 C21        -4.4000    3.3980    6.0590 C.2       1 RIT1001     0.0000 
     39 N74        -5.5730    2.6430    6.1260 N.am      1 RIT1001     0.0000 
     40 C75        -5.8520    1.7200    5.0290 C.3       1 RIT1001     0.0000 
     41 O76        -3.6110    3.3330    5.1190 O.2       1 RIT1001     0.0000 
     42 C77        -6.1120    0.3210    5.4880 C.2       1 RIT1001     0.0000 
     43 C80        -5.1260   -0.5680    5.8420 C.2       1 RIT1001     0.0000 
     44 S81        -5.8390   -2.0450    6.3170 S.3       1 RIT1001     0.0000 
     45 C82        -7.3990   -1.4070    6.0240 C.2       1 RIT1001     0.0000 
     46 N83        -7.3940   -0.1880    5.5840 N.2       1 RIT1001     0.0000 
     47 C85        -8.5870   -2.3040    6.2900 C.3       1 RIT1001     0.0000 
     48 C86        -9.0810   -2.9710    5.0230 C.3       1 RIT1001     0.0000 
     49 C90        -8.2790   -3.3080    7.4070 C.3       1 RIT1001     0.0000 
     50 C95        -6.5900    2.8060    7.1590 C.3       1 RIT1001     0.0000 
     51 H           1.9002    9.0475   16.3191 H         1 RIT1001     0.0000 
     52 H           5.6928    7.6599   16.9685 H         1 RIT1001     0.0000 
     53 H           2.5202    9.1642   13.0966 H         1 RIT1001     0.0000 
     54 H           1.2574    8.2163   13.9008 H         1 RIT1001     0.0000 
     55 H           3.0042    5.6141   10.8557 H         1 RIT1001     0.0000 
     56 H           0.3739    6.4093    9.6937 H         1 RIT1001     0.0000 
     57 H           0.8518    4.6388    8.0159 H         1 RIT1001     0.0000 
     58 H           0.9459    3.6021   10.8884 H         1 RIT1001     0.0000 
     59 H           0.4687    2.6805    9.4521 H         1 RIT1001     0.0000 
     60 H          -0.9358    5.1587   10.5160 H         1 RIT1001     0.0000 
     61 H           1.5149    6.8624    7.4997 H         1 RIT1001     0.0000 
     62 H           3.0759    6.7309    8.3279 H         1 RIT1001     0.0000 
     63 H          -0.0433    8.7274    8.1677 H         1 RIT1001     0.0000 
     64 H          -0.2016   11.0685    8.7959 H         1 RIT1001     0.0000 
     65 H           1.6900   12.1821    9.8297 H         1 RIT1001     0.0000 
     66 H           3.7303   10.9447   10.2649 H         1 RIT1001     0.0000 
     67 H           3.9072    8.6206    9.6069 H         1 RIT1001     0.0000 
     68 H          -2.7322    3.7960   11.2929 H         1 RIT1001     0.0000 
     69 H          -1.2351    3.1171   11.9544 H         1 RIT1001     0.0000 
     70 H          -3.8272    2.4962    9.3034 H         1 RIT1001     0.0000 
     71 H          -4.4037    0.2753    8.5288 H         1 RIT1001     0.0000 
     72 H          -3.1385   -1.6443    9.2779 H         1 RIT1001     0.0000 
     73 H          -1.2392   -1.3373   10.7522 H         1 RIT1001     0.0000 
     74 H          -0.6454    0.8790   11.5054 H         1 RIT1001     0.0000 
     75 H          -1.2010    3.6361    8.0122 H         1 RIT1001     0.0000 
     76 H          -4.8901    4.4410    7.8272 H         1 RIT1001     0.0000 
     77 H          -2.3015    4.8215    6.4080 H         1 RIT1001     0.0000 
     78 H          -4.0932    7.0374    7.3657 H         1 RIT1001     0.0000 
     79 H          -5.0012    1.7079    4.3161 H         1 RIT1001     0.0000 
     80 H          -6.7302    2.0727    4.4488 H         1 RIT1001     0.0000 
     81 H          -4.2158   -0.5509    5.8799 H         1 RIT1001     0.0000 
     82 H          -9.4086   -1.6527    6.6646 H         1 RIT1001     0.0000 
     83 H          -1.6886    7.5204    7.5458 H         1 RIT1001     0.0000 
     84 H          -1.4624    7.1771    5.9911 H         1 RIT1001     0.0000 
     85 H          -2.3313    8.4631    6.4125 H         1 RIT1001     0.0000 
     86 H          -3.4368    6.2851    4.5614 H         1 RIT1001     0.0000 
     87 H          -4.8869    6.1156    5.2357 H         1 RIT1001     0.0000 
     88 H          -4.2934    7.5853    4.9637 H         1 RIT1001     0.0000 
     89 H          -8.3744   -3.5409    4.6036 H         1 RIT1001     0.0000 
     90 H          -9.8689   -3.5617    5.1972 H         1 RIT1001     0.0000 
     91 H          -9.3631   -2.3010    4.3363 H         1 RIT1001     0.0000 
     92 H          -7.5034   -3.8951    7.1752 H         1 RIT1001     0.0000 
     93 H          -8.0530   -2.8496    8.2665 H         1 RIT1001     0.0000 
     94 H          -9.0568   -3.9090    7.5910 H         1 RIT1001     0.0000 
     95 H          -6.2194    2.6450    8.0737 H         1 RIT1001     0.0000 
     96 H          -6.9765    3.7283    7.1574 H         1 RIT1001     0.0000 
     97 H          -7.3509    2.1692    7.0348 H         1 RIT1001     0.0000 
     98 H           2.8361    4.1030    7.8893 H         1 RIT1001     0.0000 
@<TRIPOS>BOND
     1    2    1 2    
     2    5    1 1    
     3   51    1 1    
     4    3    2 1    
     5    6    2 1    
     6    4    3 1    
     7    5    4 2    
     8   52    4 1    
     9    7    6 1    
    10   53    6 1    
    11   54    6 1    
    12    8    7 1    
    13    9    8 2    
    14   10    8 am   
    15   11   10 1    
    16   55   10 1    
    17   12   11 1    
    18   15   11 1    
    19   56   11 1    
    20   13   12 1    
    21   22   12 1    
    22   57   12 1    
    23   14   13 1    
    24   58   13 1    
    25   59   13 1    
    26   23   14 1    
    27   30   14 1    
    28   60   14 1    
    29   16   15 1    
    30   61   15 1    
    31   62   15 1    
    32   17   16 ar   
    33   21   16 ar   
    34   18   17 ar   
    35   63   17 1    
    36   19   18 ar   
    37   64   18 1    
    38   20   19 ar   
    39   65   19 1    
    40   21   20 ar   
    41   66   20 1    
    42   67   21 1    
    43   98   22 1    
    44   24   23 1    
    45   68   23 1    
    46   69   23 1    
    47   25   24 ar   
    48   29   24 ar   
    49   26   25 ar   
    50   70   25 1    
    51   27   26 ar   
    52   71   26 1    
    53   28   27 ar   
    54   72   27 1    
    55   29   28 ar   
    56   73   28 1    
    57   74   29 1    
    58   33   30 am   
    59   75   30 1    
    60   32   31 1    
    61   38   31 am   
    62   76   31 1    
    63   33   32 1    
    64   35   32 1    
    65   77   32 1    
    66   34   33 2    
    67   36   35 1    
    68   37   35 1    
    69   78   35 1    
    70   83   36 1    
    71   84   36 1    
    72   85   36 1    
    73   86   37 1    
    74   87   37 1    
    75   88   37 1    
    76   39   38 am   
    77   41   38 2    
    78   40   39 1    
    79   50   39 1    
    80   42   40 1    
    81   79   40 1    
    82   80   40 1    
    83   43   42 2    
    84   46   42 1    
    85   44   43 1    
    86   81   43 1    
    87   45   44 1    
    88   46   45 2    
    89   47   45 1    
    90   48   47 1    
    91   49   47 1    
    92   82   47 1    
    93   89   48 1    
    94   90   48 1    
    95   91   48 1    
    96   92   49 1    
    97   93   49 1    
    98   94   49 1    
    99   95   50 1    
   100   96   50 1    
   101   97   50 1    
@<TRIPOS>SUBSTRUCTURE
     1 RIT1001     1 GROUP   
@<TRIPOS>SET

