#    Name: 2BOK_1_CAVITY_N1_6.mol2
#    Modification time : Tue Mar 11 04:30:11 2014

@<TRIPOS>MOLECULE
2BOK_1_CAVITY_N1_6.mol2
   65     0     6     0     0
SMALL
NO_CHARGES


@<TRIPOS>ATOM
      1 O          -4.8776   16.4528   25.0595 O.2       2 ALA2        0.0000 
      2 DU         -5.5271   15.6204   26.1249 H         6 CUB7        0.0000 
      3 CA         -6.5245   13.7486   26.1663 C.3       5 GLY6        0.0000 
      4 CA         -4.2206   14.9298   26.3819 C.3       5 GLY6        0.0000 
      5 O          -3.9189   14.7229   24.2924 O.2       2 ALA2        0.0000 
      6 O          -4.5684   13.8905   25.3578 O.2       2 ALA2        0.0000 
      7 N          -5.2179   13.0581   26.4233 N.2       2 ALA2        0.0000 
      8 O          -3.6173   14.5160   22.2028 O.2       2 ALA2        0.0000 
      9 O          -4.2668   13.6836   23.2683 O.2       2 ALA2        0.0000 
     10 DU         -4.9163   12.8511   24.3337 H         6 CUB7        0.0000 
     11 N          -5.5658   12.0187   25.3992 N.2       2 ALA2        0.0000 
     12 DU         -3.9652   13.4767   21.1787 H         6 CUB7        0.0000 
     13 DU         -4.6147   12.6442   22.2442 H         6 CUB7        0.0000 
     14 N          -5.2642   11.8118   23.3096 N.2       2 ALA2        0.0000 
     15 DU         -4.9625   11.6049   21.2201 H         6 CUB7        0.0000 
     16 N          -5.6121   10.7725   22.2856 N.2       2 ALA2        0.0000 
     17 OG         -5.3104   10.5656   20.1960 O.2       1 SER1        0.0000 
     18 CA         -5.9599    9.7331   21.2615 C.3       5 GLY6        0.0000 
     19 CA         -2.6124   14.0324   24.5494 C.3       5 GLY6        0.0000 
     20 O          -3.2619   13.2000   25.6148 O.2       2 ALA2        0.0000 
     21 CA         -3.9114   12.3675   26.6803 C.3       5 GLY6        0.0000 
     22 O          -1.6612   14.6579   21.3944 O.2       2 ALA2        0.0000 
     23 O          -2.3107   13.8255   22.4598 O.2       2 ALA2        0.0000 
     24 O          -2.9602   12.9930   23.5253 O.2       2 ALA2        0.0000 
     25 DU         -3.6097   12.1606   24.5907 H         6 CUB7        0.0000 
     26 N          -4.2592   11.3282   25.6562 N.2       2 ALA2        0.0000 
     27 N          -2.0091   13.6186   20.3703 N.2       2 ALA2        0.0000 
     28 DU         -2.6586   12.7861   21.4357 H         6 CUB7        0.0000 
     29 DU         -3.3081   11.9537   22.5012 H         6 CUB7        0.0000 
     30 DU         -3.9576   11.1213   23.5666 H         6 CUB7        0.0000 
     31 O          -4.6071   10.2888   24.6321 O.2       2 ALA2        0.0000 
     32 O          -2.3570   12.5792   19.3462 O.2       2 ALA2        0.0000 
     33 OG         -3.0065   11.7468   20.4116 O.2       1 SER1        0.0000 
     34 DU         -3.6560   10.9144   21.4771 H         6 CUB7        0.0000 
     35 CA         -4.3055   10.0819   22.5426 C.3       5 GLY6        0.0000 
     36 CZ         -4.0038    9.8750   20.4530 C.ar      4 PHE5        0.0000 
     37 CA         -4.6534    9.0426   21.5185 C.3       5 GLY6        0.0000 
     38 O          -2.6048   11.6770   26.9373 O.2       2 ALA2        0.0000 
     39 CA         -3.2543   10.8446   28.0027 C.3       5 GLY6        0.0000 
     40 OG         -1.0041   13.1349   22.7168 O.2       1 SER1        0.0000 
     41 CA         -1.6537   12.3025   23.7823 C.3       5 GLY6        0.0000 
     42 O          -2.3032   11.4701   24.8477 O.2       2 ALA2        0.0000 
     43 O          -2.9527   10.6377   25.9132 O.2       2 ALA2        0.0000 
     44 O          -3.6022    9.8052   26.9786 O.2       2 ALA2        0.0000 
     45 OG         -0.7025   12.9280   20.6273 O.2       1 SER1        0.0000 
     46 OG         -1.3520   12.0956   21.6927 O.2       1 SER1        0.0000 
     47 OG         -2.0015   11.2632   22.7582 O.2       1 SER1        0.0000 
     48 N          -2.6510   10.4307   23.8236 N.2       2 ALA2        0.0000 
     49 O          -3.3006    9.5983   24.8891 O.2       2 ALA2        0.0000 
     50 N          -2.3494   10.2238   21.7341 N.2       2 ALA2        0.0000 
     51 N          -2.9989    9.3914   22.7995 N.2       2 ALA2        0.0000 
     52 N          -1.9478   10.1540   28.2597 N.2       2 ALA2        0.0000 
     53 N          -0.9966   10.7795   25.1047 N.2       2 ALA2        0.0000 
     54 N          -1.6461    9.9471   26.1702 N.2       2 ALA2        0.0000 
     55 N          -2.2956    9.1147   27.2356 N.2       2 ALA2        0.0000 
     56 N          -2.9451    8.2823   28.3011 N.2       2 ALA2        0.0000 
     57 CA         -1.3445    9.7402   24.0806 C.3       5 GLY6        0.0000 
     58 CA         -1.9940    8.9078   25.1461 C.3       5 GLY6        0.0000 
     59 N          -2.6435    8.0754   26.2115 N.2       2 ALA2        0.0000 
     60 CA         -0.3395    9.2566   26.4272 C.3       5 GLY6        0.0000 
     61 CA         -0.9891    8.4242   27.4926 C.3       5 GLY6        0.0000 
     62 NZ         -1.6386    7.5917   28.5581 N.2       3 LYS4        0.0000 
     63 CA         -0.6874    8.2172   25.4031 C.3       5 GLY6        0.0000 
     64 CA         -1.3369    7.3848   26.4685 C.3       5 GLY6        0.0000 
     65 N          -1.9864    6.5524   27.5340 N.2       2 ALA2        0.0000 
@<TRIPOS>BOND
@<TRIPOS>SUBSTRUCTURE
     1 SER1       17 GROUP   
     2 ALA2        1 GROUP   
     3 LYS4       62 GROUP   
     4 PHE5       36 GROUP   
     5 GLY6        3 GROUP   
     6 CUB7        2 GROUP   
@<TRIPOS>SET

