#    Name: 2bok_784_1_INTS_M
#    Modification time : Mon Mar 24 21:22:21 2014

@<TRIPOS>MOLECULE
2bok_784_1_INTS_M
   58     0     9     0     0
SMALL
NO_CHARGES


@<TRIPOS>ATOM
      1 CA         -5.4895    8.7900   18.8725 C.3       3 GLC5        0.0000 
      2 CA         -6.9610    9.0710   20.0690 C.3       9 GLL5        0.0000 
      3 CA         -4.0180    8.5090   17.6760 C.3       6 GLP5        0.0000 
      4 CA         -6.7885    7.0105   17.5240 C.3       3 GLC5        0.0000 
      5 CA         -8.5760    7.5310   18.1440 C.3       9 GLL5        0.0000 
      6 CA         -5.0010    6.4900   16.9040 C.3       6 GLP5        0.0000 
      7 CA        -11.2960    5.9170   20.8310 C.3       3 GLC5        0.0000 
      8 CA        -10.0290    6.8680   19.9030 C.3       9 GLL5        0.0000 
      9 CA        -12.5630    4.9660   21.7590 C.3       6 GLP5        0.0000 
     10 CA         -6.1120    5.8950   18.8870 C.3       3 GLC5        0.0000 
     11 CA         -7.7950    6.0180   19.8160 C.3       9 GLL5        0.0000 
     12 CA         -4.4290    5.7720   17.9580 C.3       6 GLP5        0.0000 
     13 CA         -7.1945    5.3100   21.3855 C.3       3 GLC5        0.0000 
     14 CA         -6.5940    4.6020   22.9550 C.3       6 GLP5        0.0000 
     15 CA         -3.5190    8.4750   22.6425 C.3       3 GLC5        0.0000 
     16 CA         -3.2540   10.2160   21.5820 C.3       9 GLL5        0.0000 
     17 CA         -3.7840    6.7340   23.7030 C.3       6 GLP5        0.0000 
     18 N          -5.2785    8.5045   24.0430 N.am      2 SEC2        0.0000 
     19 N          -5.1790    9.4220   22.7910 N.am      8 SEL2        0.0000 
     20 N          -5.3780    7.5870   25.2950 N.am      5 SEP2        0.0000 
     21 CA         -0.8115   13.9110   24.3195 C.3       3 GLC5        0.0000 
     22 CA         -1.3590   13.1400   22.7500 C.3       9 GLL5        0.0000 
     23 CA         -0.2640   14.6820   25.8890 C.3       6 GLP5        0.0000 
     24 CA         -3.6445   12.0210   27.8540 C.3       3 GLC5        0.0000 
     25 CA         -3.5220   10.5950   26.2500 C.3       9 GLL5        0.0000 
     26 CA         -3.7670   13.4470   29.4580 C.3       6 GLP5        0.0000 
     27 CA         -1.6455   11.0255   27.8545 C.3       3 GLC5        0.0000 
     28 CA         -2.7430    9.5130   26.6800 C.3       9 GLL5        0.0000 
     29 CA         -0.5480   12.5380   29.0290 C.3       6 GLP5        0.0000 
     30 O          -2.2970    7.6370   30.1380 O.2       1 ALC1        0.0000 
     31 O          -2.3120    7.9490   28.5070 O.2       7 ALL1        0.0000 
     32 O          -2.2820    7.3250   31.7690 O.2       4 ALP1        0.0000 
     33 O          -3.8920    9.0980   30.3465 O.2       1 ALC1        0.0000 
     34 O          -3.6760    9.6910   28.9020 O.2       7 ALL1        0.0000 
     35 O          -4.1080    8.5050   31.7910 O.2       4 ALP1        0.0000 
     36 O          -4.9825   10.3395   28.8040 O.2       1 ALC1        0.0000 
     37 O          -6.2890   10.9880   28.7060 O.2       4 ALP1        0.0000 
     38 CA         -6.1958    7.5758   21.4112 C.3       3 GLC5        0.0000 
     39 CA         -4.7890    6.4500   22.5670 C.3       6 GLP5        0.0000 
     40 CA         -1.7440   10.2812   19.7885 C.3       3 GLC5        0.0000 
     41 CA         -0.2330    9.8650   18.5830 C.3       6 GLP5        0.0000 
     42 CA         -3.3500    9.2643   19.8750 C.3       3 GLC5        0.0000 
     43 CA         -3.2560   11.1790   20.4060 C.3       9 GLL5        0.0000 
     44 CA         -3.4450    7.8310   18.7560 C.3       6 GLP5        0.0000 
     45 CA         -1.1945   11.3285   19.6055 C.3       3 GLC5        0.0000 
     46 CA         -2.7990   12.5270   20.9470 C.3       9 GLL5        0.0000 
     47 CA          0.2775   11.6385   22.5025 C.3       3 GLC5        0.0000 
     48 CA         -0.6510   13.5580   21.4600 C.3       9 GLL5        0.0000 
     49 CA          1.5600    9.9280   22.9000 C.3       6 GLP5        0.0000 
     50 CA         -2.9565    8.3240   23.9795 C.3       3 GLC5        0.0000 
     51 CA         -1.7380    9.3760   24.4740 C.3       9 GLL5        0.0000 
     52 CA         -4.6792    8.8055   26.4715 C.3       3 GLC5        0.0000 
     53 CA         -6.2260    7.5570   26.4780 C.3       6 GLP5        0.0000 
     54 CA         -3.0422    7.9715   24.9672 C.3       3 GLC5        0.0000 
     55 CA         -0.0420    8.3137   25.6298 C.3       3 GLC5        0.0000 
     56 CA         -1.8580    8.9050   25.7830 C.3       9 GLL5        0.0000 
     57 CA          1.7140    7.4870   26.1310 C.3       6 GLP5        0.0000 
     58 CA         -0.2647    9.9785   23.4014 C.3       3 GLC5        0.0000 
@<TRIPOS>BOND
@<TRIPOS>SUBSTRUCTURE
     1 ALC1       30 GROUP        1 X    ALC  0     ROOT ALC X 1
     2 SEC2       18 GROUP        1 X    SEC  0     **** SEC X 2
     3 GLC5        1 GROUP        1 X    GLC  0     **** GLC X 6
     4 ALP1       32 GROUP        1 Y    ALP  0     ROOT ALP Y 8
     5 SEP2       20 GROUP        1 Y    SEP  0     **** SEP Y 9
     6 GLP5        3 GROUP        1 Y    GLP  0     **** GLP Y 13
     7 ALL1       31 GROUP        1 Z    ALL  0     ROOT ALL Z 15
     8 SEL2       19 GROUP        1 Z    SEL  0     **** SEL Z 16
     9 GLL5        2 GROUP        1 Z    GLL  0     **** GLL Z 20
@<TRIPOS>SET

