#    Name: 2bok_784_1_ligand
#    Modification time : Mon Mar 24 21:22:21 2014

@<TRIPOS>MOLECULE
2bok_784_1_ligand
   62    65     1     0     0
SMALL
NO_CHARGES


@<TRIPOS>ATOM
      1 O18        -5.0950   11.6340   18.9560 O.2       1 7841244     0.0000 
      2 C11        -4.7060   11.2860   20.0560 C.2       1 7841244     0.0000 
      3 N12        -5.5700   10.9600   21.1340 N.am      1 7841244     0.0000 
      4 C19        -6.9190   10.4250   20.7890 C.3       1 7841244     0.0000 
      5 C21        -6.9610    9.0710   20.0690 C.3       1 7841244     0.0000 
      6 C23        -8.2440    8.3320   20.4420 C.3       1 7841244     0.0000 
      7 N29        -8.6360    7.1990   19.5760 N.4       1 7841244     0.0000 
      8 C32        -8.5760    7.5310   18.1440 C.3       1 7841244     0.0000 
      9 C31       -10.0290    6.8680   19.9030 C.3       1 7841244     0.0000 
     10 C30        -7.7950    6.0180   19.8160 C.3       1 7841244     0.0000 
     11 C5         -3.2560   11.1790   20.4060 C.3       1 7841244     0.0000 
     12 C2         -3.2540   10.2160   21.5820 C.3       1 7841244     0.0000 
     13 C6         -4.7240   10.1280   21.9190 C.2       1 7841244     0.0000 
     14 O13        -5.1790    9.4220   22.7910 O.2       1 7841244     0.0000 
     15 C7         -2.7990   12.5270   20.9470 C.3       1 7841244     0.0000 
     16 C14        -1.5130   13.0570   20.3090 C.3       1 7841244     0.0000 
     17 C15        -0.6510   13.5580   21.4600 C.3       1 7841244     0.0000 
     18 C8         -1.3590   13.1400   22.7500 C.3       1 7841244     0.0000 
     19 N3         -2.5680   12.3630   22.4020 N.3       1 7841244     0.0000 
     20 C1         -2.3620   10.9120   22.6250 C.3       1 7841244     0.0000 
     21 C4         -2.5200   10.4520   24.0380 C.ar      1 7841244     0.0000 
     22 C10        -3.4080   11.0590   24.9360 C.ar      1 7841244     0.0000 
     23 C17        -3.5220   10.5950   26.2500 C.ar      1 7841244     0.0000 
     24 C20        -2.7430    9.5130   26.6800 C.ar      1 7841244     0.0000 
     25 C22        -2.8860    9.0100   28.0880 C.ar      1 7841244     0.0000 
     26 N25        -2.3120    7.9490   28.5070 N.pl3     1 7841244     0.0000 
     27 N24        -3.6760    9.6910   28.9020 N.pl3     1 7841244     0.0000 
     28 C16        -1.8580    8.9050   25.7830 C.ar      1 7841244     0.0000 
     29 C9         -1.7380    9.3760   24.4740 C.ar      1 7841244     0.0000 
     30 H          -7.4634   11.1673   20.1543 H         1 7841244     0.0000 
     31 H          -7.5345   10.3377   21.7185 H         1 7841244     0.0000 
     32 H          -6.1037    8.4811   20.3690 H         1 7841244     0.0000 
     33 H          -6.9366    9.2355   18.9988 H         1 7841244     0.0000 
     34 H          -9.0740    9.0839   20.4773 H         1 7841244     0.0000 
     35 H          -8.1401    7.9789   21.5003 H         1 7841244     0.0000 
     36 H          -2.6881   10.8425   19.6452 H         1 7841244     0.0000 
     37 H          -2.8621    9.3149   21.2727 H         1 7841244     0.0000 
     38 H          -3.5877   13.2490   20.8022 H         1 7841244     0.0000 
     39 H          -1.7474   13.8669   19.6520 H         1 7841244     0.0000 
     40 H          -1.0122   12.2615   19.8002 H         1 7841244     0.0000 
     41 H          -0.5794   14.6265   21.4213 H         1 7841244     0.0000 
     42 H           0.3154   13.0971   21.4168 H         1 7841244     0.0000 
     43 H          -1.6249   14.0348   23.3051 H         1 7841244     0.0000 
     44 H          -0.6746   12.5396   23.3421 H         1 7841244     0.0000 
     45 H          -1.3089   10.6930   22.2910 H         1 7841244     0.0000 
     46 H          -3.9821   11.8551   24.6236 H         1 7841244     0.0000 
     47 H          -4.1749   11.0455   26.8993 H         1 7841244     0.0000 
     48 H          -1.7296    7.4739   27.8473 H         1 7841244     0.0000 
     49 H          -2.4988    7.6929   29.4554 H         1 7841244     0.0000 
     50 H          -3.7605    9.3353   29.8328 H         1 7841244     0.0000 
     51 H          -4.1169   10.4997   28.5127 H         1 7841244     0.0000 
     52 H          -1.2905    8.1029   26.0921 H         1 7841244     0.0000 
     53 H          -1.0741    8.9324   23.8276 H         1 7841244     0.0000 
     54 H          -7.6537    7.7957   17.8625 H         1 7841244     0.0000 
     55 H          -8.8463    6.7568   17.5716 H         1 7841244     0.0000 
     56 H          -9.1825    8.2919   17.9134 H         1 7841244     0.0000 
     57 H         -10.3695    6.1072   19.3505 H         1 7841244     0.0000 
     58 H         -10.1326    6.6033   20.8618 H         1 7841244     0.0000 
     59 H         -10.6417    7.6423   19.7449 H         1 7841244     0.0000 
     60 H          -6.8297    6.2066   19.6354 H         1 7841244     0.0000 
     61 H          -7.8598    5.7021   20.7626 H         1 7841244     0.0000 
     62 H          -8.0579    5.2500   19.2320 H         1 7841244     0.0000 
@<TRIPOS>BOND
     1    2    1 2    
     2    3    2 am   
     3   11    2 1    
     4    4    3 1    
     5   13    3 am   
     6    5    4 1    
     7   30    4 1    
     8   31    4 1    
     9    6    5 1    
    10   32    5 1    
    11   33    5 1    
    12    7    6 1    
    13   34    6 1    
    14   35    6 1    
    15    8    7 1    
    16    9    7 1    
    17   10    7 1    
    18   54    8 1    
    19   55    8 1    
    20   56    8 1    
    21   57    9 1    
    22   58    9 1    
    23   59    9 1    
    24   60   10 1    
    25   61   10 1    
    26   62   10 1    
    27   12   11 1    
    28   15   11 1    
    29   36   11 1    
    30   13   12 1    
    31   20   12 1    
    32   37   12 1    
    33   14   13 2    
    34   16   15 1    
    35   19   15 1    
    36   38   15 1    
    37   17   16 1    
    38   39   16 1    
    39   40   16 1    
    40   18   17 1    
    41   41   17 1    
    42   42   17 1    
    43   19   18 1    
    44   43   18 1    
    45   44   18 1    
    46   20   19 1    
    47   21   20 1    
    48   45   20 1    
    49   22   21 ar   
    50   29   21 ar   
    51   23   22 ar   
    52   46   22 1    
    53   24   23 ar   
    54   47   23 1    
    55   25   24 1    
    56   28   24 ar   
    57   26   25 ar   
    58   27   25 ar   
    59   48   26 1    
    60   49   26 1    
    61   50   27 1    
    62   51   27 1    
    63   29   28 ar   
    64   52   28 1    
    65   53   29 1    
@<TRIPOS>SUBSTRUCTURE
     1 7841244     1 GROUP   
@<TRIPOS>SET

