#    Name: 1g60_SAM_1_INTS_M
#    Modification time : Tue Mar 25 02:36:34 2014

@<TRIPOS>MOLECULE
1g60_SAM_1_INTS_M
   82     0    12     0     0
SMALL
NO_CHARGES


@<TRIPOS>ATOM
      1 OD1         2.8705   52.7010   -1.6055 O.co2     3 ASC3        0.0000 
      2 OD1         2.4000   53.4930   -2.6790 O.co2    11 ASL3        0.0000 
      3 OD1         3.3410   51.9090   -0.5320 O.co2     7 ASP3        0.0000 
      4 O           2.8705   52.7010   -1.6055 O.2       1 ALC1        0.0000 
      5 O           2.4000   53.4930   -2.6790 O.2       9 ALL1        0.0000 
      6 O           3.3410   51.9090   -0.5320 O.2       5 ALP1        0.0000 
      7 O           1.7325   52.3890   -3.5450 O.2       1 ALC1        0.0000 
      8 O           1.0650   51.2850   -4.4110 O.2       5 ALP1        0.0000 
      9 CA          2.1305   52.2475   -2.2505 C.3       4 GLC5        0.0000 
     10 CA          1.1990   54.2870   -2.3210 C.3      12 GLL5        0.0000 
     11 CA          3.0620   50.2080   -2.1800 C.3       8 GLP5        0.0000 
     12 N           4.0955   56.2710   -1.6025 N.am      2 SEC2        0.0000 
     13 N           2.8430   56.0110   -2.4780 N.am     10 SEL2        0.0000 
     14 N           5.3480   56.5310   -0.7270 N.am      6 SEP2        0.0000 
     15 N           3.0790   57.1050   -3.3300 N.am      2 SEC2        0.0000 
     16 N           3.3150   58.1990   -4.1820 N.am      6 SEP2        0.0000 
     17 N          -0.3925   57.1295   -2.1630 N.am      2 SEC2        0.0000 
     18 N           0.8880   56.5910   -1.6920 N.am     10 SEL2        0.0000 
     19 N          -1.6730   57.6680   -2.6340 N.am      6 SEP2        0.0000 
     20 N           0.8755   57.9130   -2.1875 N.am      2 SEC2        0.0000 
     21 N           0.8630   59.2350   -2.6830 N.am      6 SEP2        0.0000 
     22 CA          1.3500   51.4595   -1.6305 C.3       4 GLC5        0.0000 
     23 CA         -0.3620   52.7110   -1.0810 C.3      12 GLL5        0.0000 
     24 CA         -2.4290   50.9715    2.2165 C.3       4 GLC5        0.0000 
     25 CA         -2.2750   50.9140    0.1730 C.3      12 GLL5        0.0000 
     26 CA         -2.5830   51.0290    4.2600 C.3       8 GLP5        0.0000 
     27 CA         -4.0105   52.2630    2.4050 C.3       4 GLC5        0.0000 
     28 CA         -4.4030   52.6030    0.4730 C.3      12 GLL5        0.0000 
     29 CA         -3.6180   51.9230    4.3370 C.3       8 GLP5        0.0000 
     30 CA         -5.1475   54.5905    0.8810 C.3       4 GLC5        0.0000 
     31 CA         -5.8920   56.5780    1.2890 C.3       8 GLP5        0.0000 
     32 O          -6.0480   53.8815   -1.1090 O.2       1 ALC1        0.0000 
     33 O          -4.5540   53.8880   -0.1990 O.2       9 ALL1        0.0000 
     34 O          -7.5420   53.8750   -2.0190 O.2       5 ALP1        0.0000 
     35 O          -5.0225   53.6590   -1.4300 O.2       1 ALC1        0.0000 
     36 O          -5.4910   53.4300   -2.6610 O.2       5 ALP1        0.0000 
     37 CA         -5.3735   51.6765    2.4155 C.3       4 GLC5        0.0000 
     38 CA         -5.8370   51.9330    0.5510 C.3      12 GLL5        0.0000 
     39 CA         -4.9100   51.4200    4.2800 C.3       8 GLP5        0.0000 
     40 O          -7.2635   53.3585   -0.8020 O.2       1 ALC1        0.0000 
     41 O          -6.9850   52.8420    0.4150 O.2       9 ALL1        0.0000 
     42 O          -6.2380   53.1360   -1.1230 O.2       1 ALC1        0.0000 
     43 CA         -5.0775   49.3000   -1.5885 C.3       4 GLC5        0.0000 
     44 CA         -5.7910   50.9470   -0.6510 C.3      12 GLL5        0.0000 
     45 CA         -4.3640   47.6530   -2.5260 C.3       8 GLP5        0.0000 
     46 CA         -7.9575   51.0225   -0.6630 C.3       4 GLC5        0.0000 
     47 CA        -10.1240   51.0980   -0.6750 C.3       8 GLP5        0.0000 
     48 CA         -7.8925   45.5585   -2.9410 C.3       4 GLC5        0.0000 
     49 CA         -8.4120   46.9130   -1.7520 C.3      12 GLL5        0.0000 
     50 CA         -7.3730   44.2040   -4.1300 C.3       8 GLP5        0.0000 
     51 O         -10.3070   45.3380   -2.1325 O.2       1 ALC1        0.0000 
     52 O          -8.7900   45.6790   -1.3510 O.2       9 ALL1        0.0000 
     53 O         -11.8240   44.9970   -2.9140 O.2       5 ALP1        0.0000 
     54 N          -9.0145   46.8680   -4.2130 N.am      2 SEC2        0.0000 
     55 N          -8.6830   47.4210   -2.9830 N.am     10 SEL2        0.0000 
     56 N          -9.3460   46.3150   -5.4430 N.am      6 SEP2        0.0000 
     57 CA         -9.9475   48.0170   -4.2045 C.3       4 GLC5        0.0000 
     58 CA         -8.3140   48.6400   -3.3330 C.3      12 GLL5        0.0000 
     59 CA        -11.5810   47.3940   -5.0760 C.3       8 GLP5        0.0000 
     60 CA         -7.6870   46.9890   -4.4300 C.3       4 GLC5        0.0000 
     61 CA         -7.0600   45.3380   -5.5270 C.3       8 GLP5        0.0000 
     62 CA         -7.9940   50.6940   -4.1640 C.3       4 GLC5        0.0000 
     63 CA         -7.6740   52.7480   -4.9950 C.3       8 GLP5        0.0000 
     64 CA         -9.6555   49.7575   -2.6190 C.3       4 GLC5        0.0000 
     65 CA        -10.9970   50.8750   -1.9050 C.3       8 GLP5        0.0000 
     66 N          -8.5330   50.8150   -3.0735 N.am      2 SEC2        0.0000 
     67 N          -7.6160   49.6130   -2.6920 N.am     10 SEL2        0.0000 
     68 N          -9.4500   52.0170   -3.4550 N.am      6 SEP2        0.0000 
     69 CA         -8.7265   50.0785   -1.0510 C.3       4 GLC5        0.0000 
     70 CA         -7.3290   49.0590   -1.4270 C.3      12 GLL5        0.0000 
     71 CA         -1.2503   54.4469   -1.8802 C.3       4 GLC5        0.0000 
     72 CA          0.6190   53.8580   -0.9710 C.3      12 GLL5        0.0000 
     73 CA         -2.7740   55.5020   -2.3970 C.3       8 GLP5        0.0000 
     74 CA         -1.5270   51.3885    2.6520 C.3       4 GLC5        0.0000 
     75 CA         -1.0560   52.2150    0.5320 C.3      12 GLL5        0.0000 
     76 CA         -2.7945   50.3085   -1.6623 C.3       4 GLC5        0.0000 
     77 CA         -2.6590   49.3560   -3.2380 C.3       8 GLP5        0.0000 
     78 CA         -3.3840   53.8038   -1.1667 C.3       4 GLC5        0.0000 
     79 CA         -3.5850   51.6080   -0.3460 C.3      12 GLL5        0.0000 
     80 CA         -9.1800   48.6133   -0.3475 C.3       4 GLC5        0.0000 
     81 CA         -7.6600   47.8180   -0.8860 C.3      12 GLL5        0.0000 
     82 CA        -10.3240   49.8610    0.6240 C.3       8 GLP5        0.0000 
@<TRIPOS>BOND
@<TRIPOS>SUBSTRUCTURE
     1 ALC1        4 GROUP        1 X    ALC  0     ROOT ALC X 1
     2 SEC2       12 GROUP        1 X    SEC  0     **** SEC X 2
     3 ASC3        1 GROUP        1 X    ASC  0     **** ASC X 3
     4 GLC5        9 GROUP        1 X    GLC  0     **** GLC X 6
     5 ALP1        6 GROUP        1 Y    ALP  0     ROOT ALP Y 8
     6 SEP2       14 GROUP        1 Y    SEP  0     **** SEP Y 9
     7 ASP3        3 GROUP        1 Y    ASP  0     **** ASP Y 10
     8 GLP5       11 GROUP        1 Y    GLP  0     **** GLP Y 13
     9 ALL1        5 GROUP        1 Z    ALL  0     ROOT ALL Z 15
    10 SEL2       13 GROUP        1 Z    SEL  0     **** SEL Z 16
    11 ASL3        2 GROUP        1 Z    ASL  0     **** ASL Z 17
    12 GLL5       10 GROUP        1 Z    GLL  0     **** GLL Z 20
@<TRIPOS>SET

