#    Name: 1g60_SAM_1_ligand
#    Modification time : Tue Mar 25 02:36:34 2014

@<TRIPOS>MOLECULE
1g60_SAM_1_ligand
   50    52     1     0     0
SMALL
NO_CHARGES


@<TRIPOS>ATOM
      1 N           2.4000   53.4930   -2.6790 N.4       1 SAM500      0.0000 
      2 CA          1.1990   54.2870   -2.3210 C.3       1 SAM500      0.0000 
      3 C           1.6110   55.7640   -2.2550 C.2       1 SAM500      0.0000 
      4 O           2.8430   56.0110   -2.4780 O.co2     1 SAM500      0.0000 
      5 OXT         0.8880   56.5910   -1.6920 O.co2     1 SAM500      0.0000 
      6 CB          0.6190   53.8580   -0.9710 C.3       1 SAM500      0.0000 
      7 CG         -0.3620   52.7110   -1.0810 C.3       1 SAM500      0.0000 
      8 SD         -1.0560   52.2150    0.5320 S.3       1 SAM500      0.0000 
      9 CE          0.1140   51.2810    1.5560 C.3       1 SAM500      0.0000 
     10 C5'        -2.2750   50.9140    0.1730 C.3       1 SAM500      0.0000 
     11 C4'        -3.5850   51.6080   -0.3460 C.3       1 SAM500      0.0000 
     12 O4'        -4.4260   50.4700   -0.5600 O.3       1 SAM500      0.0000 
     13 C3'        -4.4030   52.6030    0.4730 C.3       1 SAM500      0.0000 
     14 O3'        -4.5540   53.8880   -0.1990 O.3       1 SAM500      0.0000 
     15 C2'        -5.8370   51.9330    0.5510 C.3       1 SAM500      0.0000 
     16 O2'        -6.9850   52.8420    0.4150 O.3       1 SAM500      0.0000 
     17 C1'        -5.7910   50.9470   -0.6510 C.3       1 SAM500      0.0000 
     18 N9         -6.6110   49.7380   -0.3830 N.pl3     1 SAM500      0.0000 
     19 C8         -6.5470   48.8150    0.6620 C.2       1 SAM500      0.0000 
     20 N7         -7.1420   47.6670    0.4420 N.2       1 SAM500      0.0000 
     21 C5         -7.6600   47.8180   -0.8860 C.ar      1 SAM500      0.0000 
     22 C6         -8.4120   46.9130   -1.7520 C.ar      1 SAM500      0.0000 
     23 N6         -8.7900   45.6790   -1.3510 N.pl3     1 SAM500      0.0000 
     24 N1         -8.6830   47.4210   -2.9830 N.ar      1 SAM500      0.0000 
     25 C2         -8.3140   48.6400   -3.3330 C.ar      1 SAM500      0.0000 
     26 N3         -7.6160   49.6130   -2.6920 N.ar      1 SAM500      0.0000 
     27 C4         -7.3290   49.0590   -1.4270 C.ar      1 SAM500      0.0000 
     28 H           0.4461   54.1850   -3.0774 H         1 SAM500      0.0000 
     29 H           0.1192   54.7234   -0.5106 H         1 SAM500      0.0000 
     30 H           1.4472   53.5680   -0.3072 H         1 SAM500      0.0000 
     31 H           0.0768   51.7916   -1.4244 H         1 SAM500      0.0000 
     32 H          -1.2496   52.9467   -1.6399 H         1 SAM500      0.0000 
     33 H          -2.4023   50.4478    1.1006 H         1 SAM500      0.0000 
     34 H          -1.7996   50.3419   -0.5624 H         1 SAM500      0.0000 
     35 H          -3.3612   52.0245   -1.3314 H         1 SAM500      0.0000 
     36 H          -4.0364   52.6671    1.4445 H         1 SAM500      0.0000 
     37 H          -5.8623   51.3382    1.4332 H         1 SAM500      0.0000 
     38 H          -5.9900   51.4134   -1.5161 H         1 SAM500      0.0000 
     39 H          -6.0630   49.0559    1.5172 H         1 SAM500      0.0000 
     40 H          -9.3513   45.1596   -1.9954 H         1 SAM500      0.0000 
     41 H          -8.4749   45.3948   -0.4455 H         1 SAM500      0.0000 
     42 H          -8.6394   48.9471   -4.3755 H         1 SAM500      0.0000 
     43 H           3.0364   54.0169   -3.2451 H         1 SAM500      0.0000 
     44 H           2.9047   53.1968   -1.8681 H         1 SAM500      0.0000 
     45 H           2.1609   52.6690   -3.1926 H         1 SAM500      0.0000 
     46 H           0.4103   50.4382    1.1066 H         1 SAM500      0.0000 
     47 H           0.9377   51.8114    1.7565 H         1 SAM500      0.0000 
     48 H          -0.2872   51.0196    2.4339 H         1 SAM500      0.0000 
     49 H          -4.9178   53.6657   -1.1036 H         1 SAM500      0.0000 
     50 H          -6.9847   53.1170   -0.5464 H         1 SAM500      0.0000 
@<TRIPOS>BOND
     1    2    1 1    
     2   43    1 1    
     3   44    1 1    
     4   45    1 1    
     5    3    2 1    
     6    6    2 1    
     7   28    2 1    
     8    4    3 ar   
     9    5    3 ar   
    10    7    6 1    
    11   29    6 1    
    12   30    6 1    
    13    8    7 1    
    14   31    7 1    
    15   32    7 1    
    16    9    8 1    
    17   10    8 1    
    18   46    9 1    
    19   47    9 1    
    20   48    9 1    
    21   11   10 1    
    22   33   10 1    
    23   34   10 1    
    24   12   11 1    
    25   13   11 1    
    26   35   11 1    
    27   17   12 1    
    28   14   13 1    
    29   15   13 1    
    30   36   13 1    
    31   49   14 1    
    32   16   15 1    
    33   17   15 1    
    34   37   15 1    
    35   50   16 1    
    36   18   17 1    
    37   38   17 1    
    38   19   18 1    
    39   27   18 1    
    40   20   19 2    
    41   39   19 1    
    42   21   20 1    
    43   22   21 ar   
    44   27   21 ar   
    45   23   22 1    
    46   24   22 ar   
    47   40   23 1    
    48   41   23 1    
    49   25   24 ar   
    50   26   25 ar   
    51   42   25 1    
    52   27   26 ar   
@<TRIPOS>SUBSTRUCTURE
     1 SAM500      1 GROUP   
@<TRIPOS>SET

