#    Name: 3sa5_A69_1_INTS_M
#    Modification time : Mon Apr  7 22:09:26 2014

@<TRIPOS>MOLECULE
3sa5_A69_1_INTS_M
  101     0     9     0     0
SMALL
NO_CHARGES


@<TRIPOS>ATOM
      1 CA         22.8565   26.1695   13.6135 C.3       3 GLC5        0.0000 
      2 CA         22.6430   27.5210   12.0430 C.3       9 GLL5        0.0000 
      3 CA         23.0700   24.8180   15.1840 C.3       6 GLP5        0.0000 
      4 CA         21.2440   28.3405    9.7400 C.3       3 GLC5        0.0000 
      5 CA         22.5340   26.8820   10.8070 C.3       9 GLL5        0.0000 
      6 CA         19.9540   29.7990    8.6730 C.3       6 GLP5        0.0000 
      7 CA         26.4460   24.7970   11.2345 C.3       3 GLC5        0.0000 
      8 CA         24.8060   26.0840   10.9930 C.3       9 GLL5        0.0000 
      9 CA         28.0860   23.5100   11.4760 C.3       6 GLP5        0.0000 
     10 O          22.4335   26.5135    8.4875 O.2       1 ALC1        0.0000 
     11 O          23.5310   25.5000    9.0840 O.2       7 ALL1        0.0000 
     12 O          21.3360   27.5270    7.8910 O.2       4 ALP1        0.0000 
     13 CA         20.9955   30.4460   18.7155 C.3       3 GLC5        0.0000 
     14 CA         21.2520   31.1600   16.8610 C.3       9 GLL5        0.0000 
     15 CA         20.7390   29.7320   20.5700 C.3       6 GLP5        0.0000 
     16 CA         17.5510   30.2340   17.7365 C.3       3 GLC5        0.0000 
     17 CA         18.9250   30.0100   16.1170 C.3       9 GLL5        0.0000 
     18 CA         16.1770   30.4580   19.3560 C.3       6 GLP5        0.0000 
     19 N          19.3945   27.5815   17.6410 N.am      2 SEC2        0.0000 
     20 N          19.9070   27.8110   16.4030 N.am      8 SEL2        0.0000 
     21 N          18.8820   27.3520   18.8790 N.am      5 SEP2        0.0000 
     22 N          20.7625   27.4885   17.4890 N.am      2 SEC2        0.0000 
     23 N          21.6180   27.1660   18.5750 N.am      5 SEP2        0.0000 
     24 O          18.7090   27.6590   16.7845 O.2       1 ALC1        0.0000 
     25 O          19.9070   27.8110   16.4030 O.2       7 ALL1        0.0000 
     26 O          17.5110   27.5070   17.1660 O.2       4 ALP1        0.0000 
     27 O          20.4455   26.2150   14.1110 O.2       1 ALC1        0.0000 
     28 O          20.5970   27.8000   13.4680 O.2       7 ALL1        0.0000 
     29 O          20.2940   24.6300   14.7540 O.2       4 ALP1        0.0000 
     30 CA         16.9330   29.8055   10.0065 C.3       3 GLC5        0.0000 
     31 CA         16.9840   27.8330   10.5800 C.3       9 GLL5        0.0000 
     32 CA         16.8820   31.7780    9.4330 C.3       6 GLP5        0.0000 
     33 CA         16.9110   30.3125   11.3355 C.3       3 GLC5        0.0000 
     34 CA         17.3330   28.2940   11.8400 C.3       9 GLL5        0.0000 
     35 CA         16.4890   32.3310   10.8310 C.3       6 GLP5        0.0000 
     36 CA         23.4160   32.8795   12.8955 C.3       3 GLC5        0.0000 
     37 CA         22.4940   33.6390   14.7910 C.3       9 GLL5        0.0000 
     38 CA         24.3380   32.1200   11.0000 C.3       6 GLP5        0.0000 
     39 CA         23.8160   34.6805   13.6560 C.3       3 GLC5        0.0000 
     40 CA         25.1380   35.7220   12.5210 C.3       6 GLP5        0.0000 
     41 CA         23.3250   35.9690   13.6885 C.3       3 GLC5        0.0000 
     42 CA         22.3560   35.0130   14.6940 C.3       9 GLL5        0.0000 
     43 CA         24.2940   36.9250   12.6830 C.3       6 GLP5        0.0000 
     44 CA         23.4705   36.6290   14.9180 C.3       3 GLC5        0.0000 
     45 CA         22.1550   35.7890   15.8310 C.3       9 GLL5        0.0000 
     46 CA         24.7860   37.4690   14.0050 C.3       6 GLP5        0.0000 
     47 CA         23.0075   32.8530   18.8720 C.3       3 GLC5        0.0000 
     48 CA         22.2210   33.8140   17.1780 C.3       9 GLL5        0.0000 
     49 CA         23.7940   31.8920   20.5660 C.3       6 GLP5        0.0000 
     50 N          14.5940   34.6480   19.8220 N.am      2 SEC2        0.0000 
     51 N          15.0760   35.3550   18.4900 N.am      8 SEL2        0.0000 
     52 N          14.1120   33.9410   21.1540 N.am      5 SEP2        0.0000 
     53 CA         15.3600   37.2410   15.8310 C.3       3 GLC5        0.0000 
     54 CA         16.8210   36.7500   17.1360 C.3       9 GLL5        0.0000 
     55 CA         13.8990   37.7320   14.5260 C.3       6 GLP5        0.0000 
     56 CA         16.4885   32.8805   18.8240 C.3       3 GLC5        0.0000 
     57 CA         15.6850   34.4450   17.6840 C.3       9 GLL5        0.0000 
     58 CA         17.2920   31.3160   19.9640 C.3       6 GLP5        0.0000 
     59 CA         13.9815   34.7855   18.8830 C.3       3 GLC5        0.0000 
     60 CA         12.2780   35.1260   20.0820 C.3       6 GLP5        0.0000 
     61 CA         15.1900   30.4660   16.9685 C.3       3 GLC5        0.0000 
     62 CA         16.2290   32.3480   16.6280 C.3       9 GLL5        0.0000 
     63 CA         14.1510   28.5840   17.3090 C.3       6 GLP5        0.0000 
     64 CA         14.0760   33.5030   19.2435 C.3       3 GLC5        0.0000 
     65 CA         15.4780   33.0850   17.5410 C.3       9 GLL5        0.0000 
     66 CA         12.6740   33.9210   20.9460 C.3       6 GLP5        0.0000 
     67 CA         26.5595   27.2933   11.8313 C.3       3 GLC5        0.0000 
     68 CA         28.2530   28.1780   12.0590 C.3       6 GLP5        0.0000 
     69 CA         24.5616   28.9500   11.6653 C.3       3 GLC5        0.0000 
     70 CA         24.9260   26.7330   12.2140 C.3       9 GLL5        0.0000 
     71 CA         25.0360   30.7900   11.0310 C.3       6 GLP5        0.0000 
     72 CA         24.2595   26.4385   14.0587 C.3       3 GLC5        0.0000 
     73 CA         23.8540   27.4530   12.7270 C.3       9 GLL5        0.0000 
     74 CA         24.1290   25.7840   15.6470 C.3       6 GLP5        0.0000 
     75 CA         25.7862   27.3323   10.0907 C.3       3 GLC5        0.0000 
     76 CA         27.0050   28.2390    8.7540 C.3       6 GLP5        0.0000 
     77 CA         17.3113   25.7673   14.3098 C.3       3 GLC5        0.0000 
     78 CA         18.2250   27.8710   14.1460 C.3       9 GLL5        0.0000 
     79 CA         16.5890   23.9000   15.1590 C.3       6 GLP5        0.0000 
     80 CA         17.2020   24.8672   13.4932 C.3       3 GLC5        0.0000 
     81 CA         17.9830   26.0640   12.4610 C.3       9 GLL5        0.0000 
     82 CA         15.8193   25.0295   10.4217 C.3       3 GLC5        0.0000 
     83 CA         17.6470   25.6050   11.1940 C.3       9 GLL5        0.0000 
     84 CA         14.2440   24.0110   10.1160 C.3       6 GLP5        0.0000 
     85 CA         15.8170   27.3115    8.9992 C.3       3 GLC5        0.0000 
     86 CA         17.1420   26.4910   10.2610 C.3       9 GLL5        0.0000 
     87 CA         14.5710   27.4610    7.5780 C.3       6 GLP5        0.0000 
     88 CA         18.5562   28.9312    9.9415 C.3       3 GLC5        0.0000 
     89 CA         16.1531   28.4746   13.4781 C.3       3 GLC5        0.0000 
     90 CA         14.6230   28.9850   14.3060 C.3       6 GLP5        0.0000 
     91 CA         24.0823   32.0289   15.3741 C.3       3 GLC5        0.0000 
     92 CA         25.6740   31.0840   15.2980 C.3       6 GLP5        0.0000 
     93 CA         21.1000   35.0468   13.6999 C.3       3 GLC5        0.0000 
     94 CA         19.9100   35.0360   12.1130 C.3       6 GLP5        0.0000 
     95 CA         23.8909   35.6169   17.5131 C.3       3 GLC5        0.0000 
     96 CA         25.6100   36.5830   18.2110 C.3       6 GLP5        0.0000 
     97 CA         15.6418   32.5318   14.3775 C.3       3 GLC5        0.0000 
     98 CA         14.5670   32.4110   12.5160 C.3       6 GLP5        0.0000 
     99 CA         13.9366   32.8968   16.4886 C.3       3 GLC5        0.0000 
    100 CA         11.9680   32.7370   15.8570 C.3       6 GLP5        0.0000 
    101 CA         16.1371   31.6634   18.1230 C.3       3 GLC5        0.0000 
@<TRIPOS>BOND
@<TRIPOS>SUBSTRUCTURE
     1 ALC1       10 GROUP        1 X    ALC  0     ROOT ALC X 1
     2 SEC2       19 GROUP        1 X    SEC  0     **** SEC X 2
     3 GLC5        1 GROUP        1 X    GLC  0     **** GLC X 6
     4 ALP1       12 GROUP        1 Y    ALP  0     ROOT ALP Y 8
     5 SEP2       21 GROUP        1 Y    SEP  0     **** SEP Y 9
     6 GLP5        3 GROUP        1 Y    GLP  0     **** GLP Y 13
     7 ALL1       11 GROUP        1 Z    ALL  0     ROOT ALL Z 15
     8 SEL2       20 GROUP        1 Z    SEL  0     **** SEL Z 16
     9 GLL5        2 GROUP        1 Z    GLL  0     **** GLL Z 20
@<TRIPOS>SET

