#    Name: 3sa5_A69_1_ligand
#    Modification time : Mon Apr  7 22:09:26 2014

@<TRIPOS>MOLECULE
3sa5_A69_1_ligand
   76    80     1     0     0
SMALL
NO_CHARGES


@<TRIPOS>ATOM
      1 C21        21.5090   28.3290   12.6510 C.2       1 A69200      0.0000 
      2 O22        21.4780   29.5180   12.4010 O.2       1 A69200      0.0000 
      3 C22        22.6430   27.5210   12.0430 C.ar      1 A69200      0.0000 
      4 C27        22.5340   26.8820   10.8070 C.ar      1 A69200      0.0000 
      5 C26        23.6120   26.1520   10.2890 C.ar      1 A69200      0.0000 
      6 C25        24.8060   26.0840   10.9930 C.ar      1 A69200      0.0000 
      7 C24        24.9260   26.7330   12.2140 C.ar      1 A69200      0.0000 
      8 C23        23.8540   27.4530   12.7270 C.ar      1 A69200      0.0000 
      9 O27        23.5310   25.5000    9.0840 O.3       1 A69200      0.0000 
     10 N11        19.3110   31.2930   15.5150 N.pl3     1 A69200      0.0000 
     11 C12        20.1030   32.0830   16.4640 C.3       1 A69200      0.0000 
     12 C13        21.2520   31.1600   16.8610 C.3       1 A69200      0.0000 
     13 C14        22.5430   31.5660   16.1790 C.3       1 A69200      0.0000 
     14 C16        18.9250   30.0100   16.1170 C.3       1 A69200      0.0000 
     15 C17        19.9090   28.9740   15.5630 C.3       1 A69200      0.0000 
     16 O18        19.9070   27.8110   16.4030 O.3       1 A69200      0.0000 
     17 C19        19.5610   28.6000   14.1200 C.3       1 A69200      0.0000 
     18 N20        20.5970   27.8000   13.4680 N.am      1 A69200      0.0000 
     19 C32        18.2250   27.8710   14.1460 C.3       1 A69200      0.0000 
     20 C33        17.9830   26.0640   12.4610 C.ar      1 A69200      0.0000 
     21 C34        17.6470   25.6050   11.1940 C.ar      1 A69200      0.0000 
     22 C35        17.1420   26.4910   10.2610 C.ar      1 A69200      0.0000 
     23 C36        16.9840   27.8330   10.5800 C.ar      1 A69200      0.0000 
     24 C37        17.3330   28.2940   11.8400 C.ar      1 A69200      0.0000 
     25 C38        17.8420   27.3980   12.7750 C.ar      1 A69200      0.0000 
     26 C40        22.4310   33.0510   16.0400 C.ar      1 A69200      0.0000 
     27 C41        22.4940   33.6390   14.7910 C.ar      1 A69200      0.0000 
     28 C42        22.3560   35.0130   14.6940 C.ar      1 A69200      0.0000 
     29 C43        22.1550   35.7890   15.8310 C.ar      1 A69200      0.0000 
     30 C44        22.0900   35.1860   17.0740 C.ar      1 A69200      0.0000 
     31 C45        22.2210   33.8140   17.1780 C.ar      1 A69200      0.0000 
     32 C1         15.5640   36.6080   18.3210 C.2       1 A69200      0.0000 
     33 N1         15.0760   35.3550   18.4900 N.2       1 A69200      0.0000 
     34 S1         16.8210   36.7500   17.1360 S.3       1 A69200      0.0000 
     35 C2         15.6850   34.4450   17.6840 C.ar      1 A69200      0.0000 
     36 C3         16.6420   35.0730   16.9080 C.ar      1 A69200      0.0000 
     37 C4         17.4030   34.3310   15.9910 C.ar      1 A69200      0.0000 
     38 C5         17.2040   32.9570   15.8500 C.ar      1 A69200      0.0000 
     39 C6         16.2290   32.3480   16.6280 C.ar      1 A69200      0.0000 
     40 C7         15.4780   33.0850   17.5410 C.ar      1 A69200      0.0000 
     41 S8         18.0600   32.0480   14.8160 S.o2      1 A69200      0.0000 
     42 O9         17.2130   31.0320   14.2630 O.2       1 A69200      0.0000 
     43 O10        18.6120   32.8670   13.7800 O.2       1 A69200      0.0000 
     44 H          21.6584   26.9458   10.2714 H         1 A69200      0.0000 
     45 H          25.6000   25.5541   10.6111 H         1 A69200      0.0000 
     46 H          25.8089   26.6814   12.7401 H         1 A69200      0.0000 
     47 H          23.9559   27.9467   13.6311 H         1 A69200      0.0000 
     48 H          19.5350   32.3240   17.3383 H         1 A69200      0.0000 
     49 H          20.5070   32.9581   15.9992 H         1 A69200      0.0000 
     50 H          20.9990   30.1351   16.5815 H         1 A69200      0.0000 
     51 H          21.3838   31.2004   17.9443 H         1 A69200      0.0000 
     52 H          22.6007   31.1056   15.2186 H         1 A69200      0.0000 
     53 H          23.3716   31.3119   16.8007 H         1 A69200      0.0000 
     54 H          17.9293   29.7277   15.8266 H         1 A69200      0.0000 
     55 H          19.0215   30.0375   17.1872 H         1 A69200      0.0000 
     56 H          20.8978   29.4348   15.5570 H         1 A69200      0.0000 
     57 H          19.4029   29.5362   13.5742 H         1 A69200      0.0000 
     58 H          20.5767   26.7765   13.6856 H         1 A69200      0.0000 
     59 H          17.4585   28.5488   14.5317 H         1 A69200      0.0000 
     60 H          18.3000   27.0172   14.8251 H         1 A69200      0.0000 
     61 H          18.3391   25.3996   13.1662 H         1 A69200      0.0000 
     62 H          17.7738   24.6148   10.9552 H         1 A69200      0.0000 
     63 H          16.8798   26.1554    9.3200 H         1 A69200      0.0000 
     64 H          16.6068   28.4864    9.8787 H         1 A69200      0.0000 
     65 H          17.2184   29.2820   12.0821 H         1 A69200      0.0000 
     66 H          22.6397   33.0710   13.9538 H         1 A69200      0.0000 
     67 H          22.4024   35.4705   13.7676 H         1 A69200      0.0000 
     68 H          22.0553   36.8090   15.7436 H         1 A69200      0.0000 
     69 H          21.9447   35.7569   17.9178 H         1 A69200      0.0000 
     70 H          22.1629   33.3574   18.0994 H         1 A69200      0.0000 
     71 H          15.3608   37.4487   18.7224 H         1 A69200      0.0000 
     72 H          18.1136   34.8082   15.4189 H         1 A69200      0.0000 
     73 H          16.0559   31.3325   16.5301 H         1 A69200      0.0000 
     74 H          14.7627   32.6084   18.1130 H         1 A69200      0.0000 
     75 H          22.8354   25.9983    8.5665 H         1 A69200      0.0000 
     76 H          18.9871   27.4292   16.3140 H         1 A69200      0.0000 
@<TRIPOS>BOND
     1    2    1 2    
     2    3    1 1    
     3   18    1 am   
     4    4    3 ar   
     5    8    3 ar   
     6    5    4 ar   
     7   44    4 1    
     8    6    5 ar   
     9    9    5 1    
    10    7    6 ar   
    11   45    6 1    
    12    8    7 ar   
    13   46    7 1    
    14   47    8 1    
    15   75    9 1    
    16   11   10 1    
    17   14   10 1    
    18   41   10 1    
    19   12   11 1    
    20   48   11 1    
    21   49   11 1    
    22   13   12 1    
    23   50   12 1    
    24   51   12 1    
    25   26   13 1    
    26   52   13 1    
    27   53   13 1    
    28   15   14 1    
    29   54   14 1    
    30   55   14 1    
    31   16   15 1    
    32   17   15 1    
    33   56   15 1    
    34   76   16 1    
    35   18   17 1    
    36   19   17 1    
    37   57   17 1    
    38   58   18 1    
    39   25   19 1    
    40   59   19 1    
    41   60   19 1    
    42   21   20 ar   
    43   25   20 ar   
    44   61   20 1    
    45   22   21 ar   
    46   62   21 1    
    47   23   22 ar   
    48   63   22 1    
    49   24   23 ar   
    50   64   23 1    
    51   25   24 ar   
    52   65   24 1    
    53   27   26 ar   
    54   31   26 ar   
    55   28   27 ar   
    56   66   27 1    
    57   29   28 ar   
    58   67   28 1    
    59   30   29 ar   
    60   68   29 1    
    61   31   30 ar   
    62   69   30 1    
    63   70   31 1    
    64   33   32 2    
    65   34   32 1    
    66   71   32 1    
    67   35   33 1    
    68   36   34 1    
    69   36   35 ar   
    70   40   35 ar   
    71   37   36 ar   
    72   38   37 ar   
    73   72   37 1    
    74   39   38 ar   
    75   41   38 1    
    76   40   39 ar   
    77   73   39 1    
    78   74   40 1    
    79   42   41 2    
    80   43   41 2    
@<TRIPOS>SUBSTRUCTURE
     1 A69200      1 GROUP   
@<TRIPOS>SET

