#    Name: 1txz_APR_1_INTS_M
#    Modification time : Tue Mar 25 05:46:17 2014

@<TRIPOS>MOLECULE
1txz_APR_1_INTS_M
   97     0     9     0     0
SMALL
NO_CHARGES


@<TRIPOS>ATOM
      1 N          47.3410    6.8290   24.8630 N.am      2 SEC2        0.0000 
      2 N          47.1600    5.6180   23.9550 N.am      8 SEL2        0.0000 
      3 N          47.5220    8.0400   25.7710 N.am      5 SEP2        0.0000 
      4 CA         49.9700    6.5140   24.3215 C.3       3 GLC5        0.0000 
      5 CA         48.4190    5.1530   23.5940 C.3       9 GLL5        0.0000 
      6 CA         51.5210    7.8750   25.0490 C.3       6 GLP5        0.0000 
      7 CA         50.2425    4.3290   23.7020 C.3       3 GLC5        0.0000 
      8 CA         52.0660    3.5050   23.8100 C.3       6 GLP5        0.0000 
      9 CA         47.9915    3.9860   24.9265 C.3       3 GLC5        0.0000 
     10 CA         47.5640    2.8190   26.2590 C.3       6 GLP5        0.0000 
     11 CA         47.8720    5.7035   25.4875 C.3       3 GLC5        0.0000 
     12 CA         47.3250    6.2540   27.3810 C.3       6 GLP5        0.0000 
     13 CA         47.9355    7.3365   23.7120 C.3       3 GLC5        0.0000 
     14 CA         47.4520    9.5200   23.8300 C.3       6 GLP5        0.0000 
     15 N          49.5040    3.2265   23.8095 N.am      2 SEC2        0.0000 
     16 N          48.6950    4.2160   22.7120 N.am      8 SEL2        0.0000 
     17 N          50.3130    2.2370   24.9070 N.am      5 SEP2        0.0000 
     18 CA         45.8420    4.8555   20.4575 C.3       3 GLC5        0.0000 
     19 CA         46.2260    4.0390   22.3730 C.3       9 GLL5        0.0000 
     20 CA         45.4580    5.6720   18.5420 C.3       6 GLP5        0.0000 
     21 CA         46.6755    5.6635   25.3635 C.3       3 GLC5        0.0000 
     22 CA         46.0260    5.0730   23.3460 C.3       9 GLL5        0.0000 
     23 CA         44.8450    6.7040   22.6170 C.3       3 GLC5        0.0000 
     24 CA         43.6640    8.3350   21.8880 C.3       6 GLP5        0.0000 
     25 O          44.6680    6.6485   24.6445 O.2       1 ALC1        0.0000 
     26 O          44.8150    5.5270   23.7030 O.2       7 ALL1        0.0000 
     27 O          44.5210    7.7700   25.5860 O.2       4 ALP1        0.0000 
     28 O          50.0770    0.2935   22.0205 O.2       1 ALC1        0.0000 
     29 O          48.8180   -0.2010   21.4200 O.2       7 ALL1        0.0000 
     30 O          51.3360    0.7880   22.6210 O.2       4 ALP1        0.0000 
     31 CA         50.9965   -0.7740   18.0440 C.3       3 GLC5        0.0000 
     32 CA         49.5720    0.4090   19.1240 C.3       9 GLL5        0.0000 
     33 CA         52.4210   -1.9570   16.9640 C.3       6 GLP5        0.0000 
     34 CA         48.6420   -0.9420   17.7070 C.3       3 GLC5        0.0000 
     35 CA         47.7120   -2.2930   16.2900 C.3       6 GLP5        0.0000 
     36 N          51.5475   -0.3070   18.3940 N.am      2 SEC2        0.0000 
     37 N          50.8880   -0.0380   19.4940 N.am      8 SEL2        0.0000 
     38 N          52.2070   -0.5760   17.2940 N.am      5 SEP2        0.0000 
     39 O          51.1120    0.3750   21.0575 O.2       1 ALC1        0.0000 
     40 O          50.8880   -0.0380   19.4940 O.2       7 ALL1        0.0000 
     41 O          51.5255    0.8790   20.1660 O.2       1 ALC1        0.0000 
     42 O          52.1630    1.7960   20.8380 O.2       4 ALP1        0.0000 
     43 CA         50.5915    3.7740   18.8080 C.3       3 GLC5        0.0000 
     44 CA         49.6670    1.8030   18.4770 C.3       9 GLL5        0.0000 
     45 CA         51.5160    5.7450   19.1390 C.3       6 GLP5        0.0000 
     46 CA         51.8010    2.0470   18.2095 C.3       3 GLC5        0.0000 
     47 CA         53.9350    2.2910   17.9420 C.3       6 GLP5        0.0000 
     48 CA         49.1040    3.4520   15.7340 C.3       3 GLC5        0.0000 
     49 CA         49.0530    1.9940   17.1010 C.3       9 GLL5        0.0000 
     50 CA         49.1550    4.9100   14.3670 C.3       6 GLP5        0.0000 
     51 N          45.5650    3.5630   17.2695 N.am      2 SEC2        0.0000 
     52 N          46.1910    2.7590   16.3940 N.am      8 SEL2        0.0000 
     53 N          44.9390    4.3670   18.1450 N.am      5 SEP2        0.0000 
     54 N          45.8665   -0.9135   15.2030 N.am      2 SEC2        0.0000 
     55 N          45.7790    0.4800   15.7820 N.am      8 SEL2        0.0000 
     56 N          45.9540   -2.3070   14.6240 N.am      5 SEP2        0.0000 
     57 N          48.6825    1.8690   11.0505 N.am      2 SEC2        0.0000 
     58 N          48.8390    1.3280   12.1470 N.am      8 SEL2        0.0000 
     59 N          48.5260    2.4100    9.9540 N.am      5 SEP2        0.0000 
     60 N          50.3580    1.0265   12.6210 N.am      2 SEC2        0.0000 
     61 N          51.8770    0.7250   13.0950 N.am      5 SEP2        0.0000 
     62 N          48.5965   -1.3390   14.7000 N.am      2 SEC2        0.0000 
     63 N          48.1280   -0.6050   13.5970 N.am      8 SEL2        0.0000 
     64 N          49.0650   -2.0730   15.8030 N.am      5 SEP2        0.0000 
     65 N          47.6005   -1.6925   12.8595 N.am      2 SEC2        0.0000 
     66 N          47.0730   -2.7800   12.1220 N.am      5 SEP2        0.0000 
     67 CA         47.9160    3.4205   12.5945 C.3       3 GLC5        0.0000 
     68 CA         46.2110    2.0780   12.2530 C.3       9 GLL5        0.0000 
     69 CA         49.6210    4.7630   12.9360 C.3       6 GLP5        0.0000 
     70 CA         45.9755    4.0725   11.3250 C.3       3 GLC5        0.0000 
     71 CA         45.7400    6.0670   10.3970 C.3       6 GLP5        0.0000 
     72 O          42.2580    3.1675   15.2290 O.2       1 ALC1        0.0000 
     73 O          42.5030    2.2310   14.3700 O.2       7 ALL1        0.0000 
     74 O          42.0130    4.1040   16.0880 O.2       4 ALP1        0.0000 
     75 CA         42.9285    0.6300   14.0760 C.3       3 GLC5        0.0000 
     76 CA         42.8950    2.1330   12.9740 C.3       9 GLL5        0.0000 
     77 CA         42.9620   -0.8730   15.1780 C.3       6 GLP5        0.0000 
     78 N          41.7115    4.7280   10.6640 N.am      2 SEC2        0.0000 
     79 N          42.3160    4.3830   12.0390 N.am      8 SEL2        0.0000 
     80 N          41.1070    5.0730    9.2890 N.am      5 SEP2        0.0000 
     81 O          43.0400    5.6570   12.3240 O.2       1 ALC1        0.0000 
     82 O          42.3160    4.3830   12.0390 O.2       7 ALL1        0.0000 
     83 O          43.7640    6.9310   12.6090 O.2       4 ALP1        0.0000 
     84 N          42.1245    3.8240    9.7040 N.am      2 SEC2        0.0000 
     85 N          43.1420    2.5750   10.1190 N.am      8 SEL2        0.0000 
     86 CA         43.2735    3.5395    9.3545 C.3       3 GLC5        0.0000 
     87 CA         44.0620    2.9430   11.1710 C.3       9 GLL5        0.0000 
     88 CA         42.4850    4.1360    7.5380 C.3       6 GLP5        0.0000 
     89 CA         44.4350   -0.0715   12.4445 C.3       3 GLC5        0.0000 
     90 CA         44.8290    1.7640   11.7420 C.3       9 GLL5        0.0000 
     91 CA         44.0410   -1.9070   13.1470 C.3       6 GLP5        0.0000 
     92 CA         47.0096    3.6445   24.5281 C.3       3 GLC5        0.0000 
     93 CA         47.5430    3.6950   22.1240 C.3       9 GLL5        0.0000 
     94 CA         44.7255    4.6300   11.0953 C.3       3 GLC5        0.0000 
     95 CA         43.3600    3.4430   12.4160 C.3       9 GLL5        0.0000 
     96 CA         44.5493    1.6172    9.7372 C.3       3 GLC5        0.0000 
     97 CA         44.6530    0.8810    8.0180 C.3       6 GLP5        0.0000 
@<TRIPOS>BOND
@<TRIPOS>SUBSTRUCTURE
     1 ALC1       25 GROUP        1 X    ALC  0     ROOT ALC X 1
     2 SEC2        1 GROUP        1 X    SEC  0     **** SEC X 2
     3 GLC5        4 GROUP        1 X    GLC  0     **** GLC X 6
     4 ALP1       27 GROUP        1 Y    ALP  0     ROOT ALP Y 8
     5 SEP2        3 GROUP        1 Y    SEP  0     **** SEP Y 9
     6 GLP5        6 GROUP        1 Y    GLP  0     **** GLP Y 13
     7 ALL1       26 GROUP        1 Z    ALL  0     ROOT ALL Z 15
     8 SEL2        2 GROUP        1 Z    SEL  0     **** SEL Z 16
     9 GLL5        5 GROUP        1 Z    GLL  0     **** GLL Z 20
@<TRIPOS>SET

