#    Name: 1txz_APR_1_ligand
#    Modification time : Tue Mar 25 05:46:17 2014

@<TRIPOS>MOLECULE
1txz_APR_1_ligand
   57    60     1     0     0
SMALL
NO_CHARGES


@<TRIPOS>ATOM
      1 N1         47.1600    5.6180   23.9550 N.ar      1 APR285      0.0000 
      2 C2         48.4190    5.1530   23.5940 C.ar      1 APR285      0.0000 
      3 N3         48.6950    4.2160   22.7120 N.ar      1 APR285      0.0000 
      4 C4         47.5430    3.6950   22.1240 C.ar      1 APR285      0.0000 
      5 C5         46.2260    4.0390   22.3730 C.ar      1 APR285      0.0000 
      6 C6         46.0260    5.0730   23.3460 C.ar      1 APR285      0.0000 
      7 N6         44.8150    5.5270   23.7030 N.pl3     1 APR285      0.0000 
      8 N7         45.3580    3.2860   21.5800 N.2       1 APR285      0.0000 
      9 C8         46.1530    2.4910   20.8650 C.2       1 APR285      0.0000 
     10 N9         47.4810    2.7030   21.1580 N.pl3     1 APR285      0.0000 
     11 C1'        48.7020    2.0840   20.6260 C.3       1 APR285      0.0000 
     12 C2'        48.5570    0.6370   20.2790 C.3       1 APR285      0.0000 
     13 O2'        48.8180   -0.2010   21.4200 O.3       1 APR285      0.0000 
     14 C3'        49.5720    0.4090   19.1240 C.3       1 APR285      0.0000 
     15 O3'        50.8880   -0.0380   19.4940 O.3       1 APR285      0.0000 
     16 O4'        49.0900    2.7360   19.4440 O.3       1 APR285      0.0000 
     17 C4'        49.6670    1.8030   18.4770 C.3       1 APR285      0.0000 
     18 C5'        49.0530    1.9940   17.1010 C.3       1 APR285      0.0000 
     19 O5'        48.0240    1.0390   16.7790 O.3       1 APR285      0.0000 
     20 PA         46.7980    1.5330   15.8540 P.3       1 APR285      0.0000 
     21 O1A        46.1910    2.7590   16.3940 O.co2     1 APR285      0.0000 
     22 O2A        45.7790    0.4800   15.7820 O.co2     1 APR285      0.0000 
     23 O3A        47.4860    1.8090   14.4820 O.3       1 APR285      0.0000 
     24 PB         48.2980    0.8630   13.4260 P.3       1 APR285      0.0000 
     25 O1B        48.8390    1.3280   12.1470 O.co2     1 APR285      0.0000 
     26 O2B        48.1280   -0.6050   13.5970 O.co2     1 APR285      0.0000 
     27 O5D        46.8280    0.8570   12.7640 O.3       1 APR285      0.0000 
     28 C5D        46.2110    2.0780   12.2530 C.3       1 APR285      0.0000 
     29 O4D        44.0300    1.3120   12.8620 O.3       1 APR285      0.0000 
     30 O1D        42.5030    2.2310   14.3700 O.3       1 APR285      0.0000 
     31 C1D        42.8950    2.1330   12.9740 C.3       1 APR285      0.0000 
     32 O2D        42.3160    4.3830   12.0390 O.3       1 APR285      0.0000 
     33 C2D        43.3600    3.4430   12.4160 C.3       1 APR285      0.0000 
     34 O3D        43.1420    2.5750   10.1190 O.3       1 APR285      0.0000 
     35 C3D        44.0620    2.9430   11.1710 C.3       1 APR285      0.0000 
     36 C4D        44.8290    1.7640   11.7420 C.3       1 APR285      0.0000 
     37 H          49.2486    5.6335   24.1127 H         1 APR285      0.0000 
     38 H          44.0322    5.0796   23.2704 H         1 APR285      0.0000 
     39 H          44.8035    6.2722   24.3697 H         1 APR285      0.0000 
     40 H          45.8514    1.8266   20.2032 H         1 APR285      0.0000 
     41 H          49.5047    2.1690   21.3661 H         1 APR285      0.0000 
     42 H          47.5756    0.4831   19.8689 H         1 APR285      0.0000 
     43 H          49.0947   -0.2251   18.3953 H         1 APR285      0.0000 
     44 H          50.7533    2.0426   18.4103 H         1 APR285      0.0000 
     45 H          49.8780    1.9532   16.3538 H         1 APR285      0.0000 
     46 H          48.6576    3.0340   17.0484 H         1 APR285      0.0000 
     47 H          46.8027    2.4968   11.4353 H         1 APR285      0.0000 
     48 H          46.1330    2.8305   13.0415 H         1 APR285      0.0000 
     49 H          42.1001    1.7665   12.3646 H         1 APR285      0.0000 
     50 H          44.1006    3.8527   13.0503 H         1 APR285      0.0000 
     51 H          44.7736    3.6835   10.8811 H         1 APR285      0.0000 
     52 H          44.8735    0.9861   11.0040 H         1 APR285      0.0000 
     53 H          49.6849    0.1309   21.7919 H         1 APR285      0.0000 
     54 H          51.0928    0.4397   20.3483 H         1 APR285      0.0000 
     55 H          42.4719    3.2120   14.5617 H         1 APR285      0.0000 
     56 H          42.7878    5.2551   11.9087 H         1 APR285      0.0000 
     57 H          42.2561    2.9338   10.4129 H         1 APR285      0.0000 
@<TRIPOS>BOND
     1    2    1 ar   
     2    6    1 ar   
     3    3    2 ar   
     4   37    2 1    
     5    4    3 ar   
     6    5    4 ar   
     7   10    4 1    
     8    6    5 ar   
     9    8    5 1    
    10    7    6 1    
    11   38    7 1    
    12   39    7 1    
    13    9    8 2    
    14   10    9 1    
    15   40    9 1    
    16   11   10 1    
    17   12   11 1    
    18   16   11 1    
    19   41   11 1    
    20   13   12 1    
    21   14   12 1    
    22   42   12 1    
    23   53   13 1    
    24   15   14 1    
    25   17   14 1    
    26   43   14 1    
    27   54   15 1    
    28   17   16 1    
    29   18   17 1    
    30   44   17 1    
    31   19   18 1    
    32   45   18 1    
    33   46   18 1    
    34   20   19 1    
    35   21   20 ar   
    36   22   20 ar   
    37   23   20 1    
    38   24   23 1    
    39   25   24 ar   
    40   26   24 ar   
    41   27   24 1    
    42   28   27 1    
    43   36   28 1    
    44   47   28 1    
    45   48   28 1    
    46   31   29 1    
    47   36   29 1    
    48   31   30 1    
    49   55   30 1    
    50   33   31 1    
    51   49   31 1    
    52   33   32 1    
    53   56   32 1    
    54   35   33 1    
    55   50   33 1    
    56   35   34 1    
    57   57   34 1    
    58   36   35 1    
    59   51   35 1    
    60   52   36 1    
@<TRIPOS>SUBSTRUCTURE
     1 APR285      1 GROUP   
@<TRIPOS>SET

