#    Name: 2QG6_1_CAVITY_N1_ALL.mol2
#    Modification time : Tue Mar 11 07:47:51 2014

@<TRIPOS>MOLECULE
2QG6_1_CAVITY_N1_ALL.mol2
  101     0     7     0     0
SMALL
NO_CHARGES


@<TRIPOS>ATOM
      1 N          -0.1006   57.5187   35.0083 N.2       2 ALA2        0.0000 
      2 O          -0.7006   57.1902   36.3432 O.2       2 ALA2        0.0000 
      3 CZ          5.8920   59.2857   33.0803 C.ar      5 PHE5        0.0000 
      4 N           4.7492   58.5951   32.3967 N.2       2 ALA2        0.0000 
      5 CZ          4.1492   58.2666   33.7316 C.ar      5 PHE5        0.0000 
      6 N           2.4064   57.2474   34.3829 N.2       2 ALA2        0.0000 
      7 OG          1.8064   56.9189   35.7178 O.2       1 SER1        0.0000 
      8 N           0.6637   56.2283   35.0342 N.2       2 ALA2        0.0000 
      9 N           0.0637   55.8998   36.3691 N.2       2 ALA2        0.0000 
     10 N           0.1210   55.8663   33.0157 N.2       2 ALA2        0.0000 
     11 CZ          6.6563   57.9953   33.1062 C.ar      5 PHE5        0.0000 
     12 CZ          6.1136   57.6333   31.0877 C.ar      5 PHE5        0.0000 
     13 CZ          5.5135   57.3047   32.4226 C.ar      5 PHE5        0.0000 
     14 CZ          4.9135   56.9762   33.7575 C.ar      5 PHE5        0.0000 
     15 N           4.3708   56.6142   31.7390 N.2       2 ALA2        0.0000 
     16 N           3.7708   56.2856   33.0739 N.2       2 ALA2        0.0000 
     17 CZ          3.1707   55.9570   34.4088 C.ar      5 PHE5        0.0000 
     18 N           3.2281   55.9236   31.0554 N.2       2 ALA2        0.0000 
     19 N           2.6281   55.5950   32.3903 N.2       2 ALA2        0.0000 
     20 N           2.0280   55.2665   33.7252 N.2       2 ALA2        0.0000 
     21 CA          1.4280   54.9379   35.0601 C.3       6 GLY6        0.0000 
     22 O           2.6854   55.5616   29.0369 O.2       2 ALA2        0.0000 
     23 N           2.0854   55.2330   30.3718 N.2       2 ALA2        0.0000 
     24 N           1.4854   54.9045   31.7067 N.2       2 ALA2        0.0000 
     25 O           8.0206   57.0334   31.7973 O.2       2 ALA2        0.0000 
     26 CA          7.4206   56.7049   33.1322 C.3       6 GLY6        0.0000 
     27 CZ          6.8779   56.3429   31.1137 C.ar      5 PHE5        0.0000 
     28 CZ          6.2778   56.0143   32.4486 C.ar      5 PHE5        0.0000 
     29 CZ          5.6778   55.6857   33.7835 C.ar      5 PHE5        0.0000 
     30 CZ          5.1351   55.3237   31.7650 C.ar      5 PHE5        0.0000 
     31 CZ          4.5351   54.9952   33.0999 C.ar      5 PHE5        0.0000 
     32 CZ          3.9350   54.6666   34.4348 C.ar      5 PHE5        0.0000 
     33 CZ          4.5925   54.9618   29.7464 C.ar      5 PHE5        0.0000 
     34 CZ          3.9924   54.6332   31.0813 C.ar      5 PHE5        0.0000 
     35 CZ          3.3924   54.3046   32.4163 C.ar      5 PHE5        0.0000 
     36 CA          2.7923   53.9761   33.7512 C.3       6 GLY6        0.0000 
     37 CZ          3.4497   54.2712   29.0628 C.ar      5 PHE5        0.0000 
     38 DU          2.8497   53.9426   30.3977 H         7 CUB7        0.0000 
     39 DU          2.2497   53.6141   31.7326 H         7 CUB7        0.0000 
     40 N           1.6496   53.2855   33.0675 N.2       2 ALA2        0.0000 
     41 CA          1.0496   52.9569   34.4025 C.3       6 GLY6        0.0000 
     42 O           2.9071   53.9092   27.0443 O.2       2 ALA2        0.0000 
     43 O          10.5277   56.7621   31.1719 O.2       2 ALA2        0.0000 
     44 NZ          9.9276   56.4336   32.5068 N.2       4 LYS4        0.0000 
     45 O           9.3849   56.0716   30.4883 O.2       2 ALA2        0.0000 
     46 CZ          8.7849   55.7430   31.8232 C.ar      5 PHE5        0.0000 
     47 CZ          7.6422   55.0525   31.1396 C.ar      5 PHE5        0.0000 
     48 CZ          6.4995   54.3619   30.4560 C.ar      5 PHE5        0.0000 
     49 CZ          5.8994   54.0333   31.7909 C.ar      5 PHE5        0.0000 
     50 CZ          5.3568   53.6713   29.7724 C.ar      5 PHE5        0.0000 
     51 CZ          4.7567   53.3428   31.1073 C.ar      5 PHE5        0.0000 
     52 CZ          4.1567   53.0142   32.4422 C.ar      5 PHE5        0.0000 
     53 O           4.2140   52.9808   29.0887 O.2       2 ALA2        0.0000 
     54 CA          3.6140   52.6522   30.4237 C.3       6 GLY6        0.0000 
     55 N           3.0140   52.3236   31.7586 N.2       2 ALA2        0.0000 
     56 NZ         11.2920   55.4717   31.1978 N.2       4 LYS4        0.0000 
     57 CZ         10.6919   55.1432   32.5328 C.ar      5 PHE5        0.0000 
     58 O          10.1492   54.7812   30.5142 O.2       2 ALA2        0.0000 
     59 CZ          9.5492   54.4526   31.8491 C.ar      5 PHE5        0.0000 
     60 CZ          9.0065   54.0906   29.8306 C.ar      5 PHE5        0.0000 
     61 CZ          8.4065   53.7620   31.1655 C.ar      5 PHE5        0.0000 
     62 CZ          7.8638   53.4000   29.1470 C.ar      5 PHE5        0.0000 
     63 NZ          7.2638   53.0715   30.4819 N.2       4 LYS4        0.0000 
     64 CZ         10.9135   53.4907   30.5402 C.ar      5 PHE5        0.0000 
     65 CZ         10.3135   53.1622   31.8751 C.ar      5 PHE5        0.0000 
     66 OG         10.3709   53.1288   28.5216 O.2       1 SER1        0.0000 
     67 NZ          9.7708   52.8002   29.8566 N.2       4 LYS4        0.0000 
     68 NZ          9.1708   52.4716   31.1915 N.2       4 LYS4        0.0000 
     69 O           9.2281   52.4382   27.8380 O.2       2 ALA2        0.0000 
     70 NZ          8.6281   52.1096   29.1729 N.2       4 LYS4        0.0000 
     71 O           7.6001   51.3522   21.7824 O.2       2 ALA2        0.0000 
     72 O           7.0001   51.0236   23.1173 O.2       2 ALA2        0.0000 
     73 OD1        11.1352   51.8383   28.5476 O.3       3 ASP3        0.0000 
     74 CA         10.5351   51.5098   29.8825 C.3       6 GLY6        0.0000 
     75 NZ          9.9351   51.1812   31.2174 N.2       4 LYS4        0.0000 
     76 OD1         9.9924   51.1478   27.8640 O.3       3 ASP3        0.0000 
     77 NZ          9.3924   50.8192   29.1989 N.2       4 LYS4        0.0000 
     78 O           8.8497   50.4572   27.1803 O.2       2 ALA2        0.0000 
     79 O          10.1072   51.0809   21.1571 O.2       2 ALA2        0.0000 
     80 O           9.5071   50.7524   22.4920 O.2       2 ALA2        0.0000 
     81 O           8.9071   50.4238   23.8269 O.2       2 ALA2        0.0000 
     82 O           8.3071   50.0952   25.1618 O.2       2 ALA2        0.0000 
     83 O           7.7070   49.7667   26.4967 O.2       2 ALA2        0.0000 
     84 O           8.9645   50.3904   20.4735 O.2       2 ALA2        0.0000 
     85 O           8.3644   50.0618   21.8084 O.2       2 ALA2        0.0000 
     86 O           7.7644   49.7332   23.1433 O.2       2 ALA2        0.0000 
     87 OG          7.1643   49.4047   24.4782 O.2       1 SER1        0.0000 
     88 OG          6.5643   49.0761   25.8131 O.2       1 SER1        0.0000 
     89 CA         10.1567   49.5288   29.2248 C.3       6 GLY6        0.0000 
     90 OD1        10.2141   49.4954   25.8714 O.3       3 ASP3        0.0000 
     91 OD1         9.6140   49.1668   27.2063 O.3       3 ASP3        0.0000 
     92 O          10.8715   49.7905   21.1830 O.2       2 ALA2        0.0000 
     93 O          10.2714   49.4619   22.5179 O.2       2 ALA2        0.0000 
     94 O           9.6714   49.1334   23.8528 O.2       2 ALA2        0.0000 
     95 OG          9.0714   48.8048   25.1878 O.2       1 SER1        0.0000 
     96 CA         10.3288   49.4285   19.1645 C.3       6 GLY6        0.0000 
     97 CA          9.7288   49.0999   20.4994 C.3       6 GLY6        0.0000 
     98 CA          9.1287   48.7714   21.8343 C.3       6 GLY6        0.0000 
     99 CA          8.5287   48.4428   23.1692 C.3       6 GLY6        0.0000 
    100 OG          7.9286   48.1143   24.5041 O.2       1 SER1        0.0000 
    101 OG          7.3860   47.7523   22.4856 O.2       1 SER1        0.0000 
@<TRIPOS>BOND
@<TRIPOS>SUBSTRUCTURE
     1 SER1        7 GROUP   
     2 ALA2        1 GROUP   
     3 ASP3       73 GROUP   
     4 LYS4       44 GROUP   
     5 PHE5        3 GROUP   
     6 GLY6       21 GROUP   
     7 CUB7       38 GROUP   
@<TRIPOS>SET

