#    Name: 2qg6_NMN_1_INTS_M
#    Modification time : Mon Mar 24 22:07:27 2014

@<TRIPOS>MOLECULE
2qg6_NMN_1_INTS_M
   71     0    12     0     0
SMALL
NO_CHARGES


@<TRIPOS>ATOM
      1 NZ          8.5460   53.2250   26.4540 N.4       3 LYC4        0.0000 
      2 NZ         10.1130   53.2980   27.5990 N.4      11 LYL4        0.0000 
      3 NZ          6.9790   53.1520   25.3090 N.4       7 LYP4        0.0000 
      4 N          11.1075   54.1695   27.5560 N.am      2 SEC2        0.0000 
      5 N          10.1130   53.2980   27.5990 N.am     10 SEL2        0.0000 
      6 N          12.1020   55.0410   27.5130 N.am      6 SEP2        0.0000 
      7 N          11.2535   53.0355   26.6560 N.am      2 SEC2        0.0000 
      8 N          12.3940   52.7730   25.7130 N.am      6 SEP2        0.0000 
      9 N           9.5945   54.4130   27.0790 N.am      2 SEC2        0.0000 
     10 N           9.0760   55.5280   26.5590 N.am      6 SEP2        0.0000 
     11 NZ         11.8570   50.3455   28.2210 N.4       3 LYC4        0.0000 
     12 NZ         10.9800   51.2210   28.8280 N.4      11 LYL4        0.0000 
     13 NZ         12.7340   49.4700   27.6140 N.4       7 LYP4        0.0000 
     14 N          11.8570   50.3455   28.2210 N.am      2 SEC2        0.0000 
     15 N          10.9800   51.2210   28.8280 N.am     10 SEL2        0.0000 
     16 N          12.7340   49.4700   27.6140 N.am      6 SEP2        0.0000 
     17 NZ          8.4765   51.9590   26.4365 N.4       3 LYC4        0.0000 
     18 NZ          8.7410   51.1620   27.8450 N.4      11 LYL4        0.0000 
     19 N           7.7630   50.6060   28.7650 N.am      2 SEC2        0.0000 
     20 N           8.7410   51.1620   27.8450 N.am     10 SEL2        0.0000 
     21 N           6.7850   50.0500   29.6850 N.am      6 SEP2        0.0000 
     22 N           8.4765   51.9590   26.4365 N.am      2 SEC2        0.0000 
     23 N           8.2120   52.7560   25.0280 N.am      6 SEP2        0.0000 
     24 N           7.5015   51.8280   27.0270 N.am      2 SEC2        0.0000 
     25 N           6.2620   52.4940   26.2090 N.am      6 SEP2        0.0000 
     26 N           7.9280   51.2775   29.7950 N.am      2 SEC2        0.0000 
     27 N           9.0710   52.5050   29.9050 N.am     10 SEL2        0.0000 
     28 N           7.6230   52.7170   30.0795 N.am      2 SEC2        0.0000 
     29 N           6.1750   52.9290   30.2540 N.am      6 SEP2        0.0000 
     30 CA          8.9315   53.4310   32.7005 C.3       4 GLC5        0.0000 
     31 CA          9.9090   53.2830   30.7470 C.3      12 GLL5        0.0000 
     32 CA          7.9540   53.5790   34.6540 C.3       8 GLP5        0.0000 
     33 CA         11.3225   52.4610   31.7005 C.3       4 GLC5        0.0000 
     34 CA         12.7360   51.6390   32.6540 C.3       8 GLP5        0.0000 
     35 CA          8.3670   55.2320   29.2335 C.3       4 GLC5        0.0000 
     36 CA          9.6230   54.6910   30.5840 C.3      12 GLL5        0.0000 
     37 CA          7.1110   55.7730   27.8830 C.3       8 GLP5        0.0000 
     38 N           7.1565   53.9885   30.4640 N.am      2 SEC2        0.0000 
     39 N           8.1380   55.0480   30.6740 N.am     10 SEL2        0.0000 
     40 CA         11.5280   54.5970   32.7920 C.3       4 GLC5        0.0000 
     41 CA         10.3350   55.5020   31.6400 C.3      12 GLL5        0.0000 
     42 CA         12.7210   53.6920   33.9440 C.3       8 GLP5        0.0000 
     43 N          11.3550   56.7450   29.8640 N.am      2 SEC2        0.0000 
     44 N          11.5670   56.0480   31.1170 N.am     10 SEL2        0.0000 
     45 N          11.1430   57.4420   28.6110 N.am      6 SEP2        0.0000 
     46 O          11.6820   57.1025   32.4470 O.2       1 ALC1        0.0000 
     47 O          11.5670   56.0480   31.1170 O.2       9 ALL1        0.0000 
     48 O          11.7970   58.1570   33.7770 O.2       5 ALP1        0.0000 
     49 O          12.4460   56.5395   31.9000 O.2       1 ALC1        0.0000 
     50 O          13.3250   57.0310   32.6830 O.2       5 ALP1        0.0000 
     51 CA          8.9735   57.5195   33.8625 C.3       4 GLC5        0.0000 
     52 CA          9.3210   56.5790   32.0870 C.3      12 GLL5        0.0000 
     53 CA          8.6260   58.4600   35.6380 C.3       8 GLP5        0.0000 
     54 N           9.8815   58.5370   30.7085 N.am      2 SEC2        0.0000 
     55 N           9.9090   57.8990   32.0370 N.am     10 SEL2        0.0000 
     56 N           9.8540   59.1750   29.3800 N.am      6 SEP2        0.0000 
     57 O          10.8530   58.0280   32.9070 O.2       1 ALC1        0.0000 
     58 O           9.9090   57.8990   32.0370 O.2       9 ALL1        0.0000 
     59 CA          7.6165   56.0750   29.5155 C.3       4 GLC5        0.0000 
     60 CA          8.1220   56.3770   31.1480 C.3      12 GLL5        0.0000 
     61 O           5.0480   53.2650   31.3405 O.2       1 ALC1        0.0000 
     62 O           3.9210   53.6010   32.4270 O.2       9 ALL1        0.0000 
     63 O           6.1750   52.9290   30.2540 O.2       5 ALP1        0.0000 
     64 CA          7.5075   58.3225   33.8740 C.3       4 GLC5        0.0000 
     65 CA          6.3890   58.1850   32.1100 C.3      12 GLL5        0.0000 
     66 CA          8.4645   54.8939   33.0799 C.3       4 GLC5        0.0000 
     67 CA          3.2643   59.1980   33.0925 C.3       4 GLC5        0.0000 
     68 CA          5.0630   58.3340   32.6630 C.3      12 GLL5        0.0000 
     69 CA          1.9450   60.6020   33.4080 C.3       8 GLP5        0.0000 
     70 CA          5.1905   58.4592   30.3337 C.3       4 GLC5        0.0000 
     71 CA          4.6550   58.6590   28.2810 C.3       8 GLP5        0.0000 
@<TRIPOS>BOND
@<TRIPOS>SUBSTRUCTURE
     1 ALC1       46 GROUP        1 X    ALC  0     ROOT ALC X 1
     2 SEC2        4 GROUP        1 X    SEC  0     **** SEC X 2
     3 LYC4        1 GROUP        1 X    LYC  0     **** LYC X 4
     4 GLC5       30 GROUP        1 X    GLC  0     **** GLC X 6
     5 ALP1       48 GROUP        1 Y    ALP  0     ROOT ALP Y 8
     6 SEP2        6 GROUP        1 Y    SEP  0     **** SEP Y 9
     7 LYP4        3 GROUP        1 Y    LYP  0     **** LYP Y 11
     8 GLP5       32 GROUP        1 Y    GLP  0     **** GLP Y 13
     9 ALL1       47 GROUP        1 Z    ALL  0     ROOT ALL Z 15
    10 SEL2        5 GROUP        1 Z    SEL  0     **** SEL Z 16
    11 LYL4        2 GROUP        1 Z    LYL  0     **** LYL Z 18
    12 GLL5       31 GROUP        1 Z    GLL  0     **** GLL Z 20
@<TRIPOS>SET

