#    Name: 2qg6_NMN_1_ligand
#    Modification time : Mon Mar 24 22:07:27 2014

@<TRIPOS>MOLECULE
2qg6_NMN_1_ligand
   36    37     1     0     0
SMALL
NO_CHARGES


@<TRIPOS>ATOM
      1 O3P        10.1130   53.2980   27.5990 O.co2     1 NMN301      0.0000 
      2 P           9.7470   52.0230   28.5230 P.3       1 NMN301      0.0000 
      3 O1P        10.9800   51.2210   28.8280 O.co2     1 NMN301      0.0000 
      4 O2P         8.7410   51.1620   27.8450 O.co2     1 NMN301      0.0000 
      5 O5R         9.0710   52.5050   29.9050 O.3       1 NMN301      0.0000 
      6 C5R         9.9090   53.2830   30.7470 C.3       1 NMN301      0.0000 
      7 C4R         9.6230   54.6910   30.5840 C.3       1 NMN301      0.0000 
      8 O4R         8.1380   55.0480   30.6740 O.3       1 NMN301      0.0000 
      9 C3R        10.3350   55.5020   31.6400 C.3       1 NMN301      0.0000 
     10 O3R        11.5670   56.0480   31.1170 O.3       1 NMN301      0.0000 
     11 C2R         9.3210   56.5790   32.0870 C.3       1 NMN301      0.0000 
     12 O2R         9.9090   57.8990   32.0370 O.3       1 NMN301      0.0000 
     13 C1R         8.1220   56.3770   31.1480 C.3       1 NMN301      0.0000 
     14 N1          6.7460   56.7920   31.7650 N.pl3     1 NMN301      0.0000 
     15 C2          5.8780   55.6730   31.9510 C.ar      1 NMN301      0.0000 
     16 C3          4.5960   55.8800   32.4940 C.ar      1 NMN301      0.0000 
     17 C7          3.4770   54.8150   32.7850 C.2       1 NMN301      0.0000 
     18 O7          2.3780   54.9840   33.2510 O.2       1 NMN301      0.0000 
     19 N7          3.9210   53.6010   32.4270 N.am      1 NMN301      0.0000 
     20 C4          4.1040   57.2540   32.8910 C.ar      1 NMN301      0.0000 
     21 C5          5.0630   58.3340   32.6630 C.ar      1 NMN301      0.0000 
     22 C6          6.3890   58.1850   32.1100 C.ar      1 NMN301      0.0000 
     23 H          10.9767   53.0929   30.5167 H         1 NMN301      0.0000 
     24 H           9.7677   52.9969   31.8087 H         1 NMN301      0.0000 
     25 H           9.9829   55.0508   29.6136 H         1 NMN301      0.0000 
     26 H          10.5083   54.8531   32.4876 H         1 NMN301      0.0000 
     27 H           9.0041   56.3041   33.0831 H         1 NMN301      0.0000 
     28 H           8.2940   57.0723   30.2852 H         1 NMN301      0.0000 
     29 H           6.1904   54.7440   31.6919 H         1 NMN301      0.0000 
     30 H           3.3083   52.8343   32.6185 H         1 NMN301      0.0000 
     31 H           4.8250   53.5712   32.0006 H         1 NMN301      0.0000 
     32 H           3.2306   57.3807   33.2599 H         1 NMN301      0.0000 
     33 H           4.7534   59.3027   32.9273 H         1 NMN301      0.0000 
     34 H           6.9986   58.9160   31.9717 H         1 NMN301      0.0000 
     35 H          12.0728   56.3615   31.9207 H         1 NMN301      0.0000 
     36 H          10.8699   57.7635   32.2786 H         1 NMN301      0.0000 
@<TRIPOS>BOND
     1    2    1 ar   
     2    3    2 ar   
     3    4    2 ar   
     4    5    2 1    
     5    6    5 1    
     6    7    6 1    
     7   23    6 1    
     8   24    6 1    
     9    8    7 1    
    10    9    7 1    
    11   25    7 1    
    12   13    8 1    
    13   10    9 1    
    14   11    9 1    
    15   26    9 1    
    16   35   10 1    
    17   12   11 1    
    18   13   11 1    
    19   27   11 1    
    20   36   12 1    
    21   14   13 1    
    22   28   13 1    
    23   15   14 ar   
    24   22   14 ar   
    25   16   15 ar   
    26   29   15 1    
    27   17   16 1    
    28   20   16 ar   
    29   18   17 2    
    30   19   17 am   
    31   30   19 1    
    32   31   19 1    
    33   21   20 ar   
    34   32   20 1    
    35   22   21 ar   
    36   33   21 1    
    37   34   22 1    
@<TRIPOS>SUBSTRUCTURE
     1 NMN301      1 GROUP   
@<TRIPOS>SET

