#    Name: 4ma6_28E_1_INTS_M
#    Modification time : Tue Mar 25 11:59:34 2014

@<TRIPOS>MOLECULE
4ma6_28E_1_INTS_M
   52     0     6     0     0
SMALL
NO_CHARGES


@<TRIPOS>ATOM
      1 CA         13.4140    1.4505   12.1285 C.3       2 GLC5        0.0000 
      2 CA         13.9480   -0.1720   13.5480 C.3       6 GLL5        0.0000 
      3 CA         12.8800    3.0730   10.7090 C.3       4 GLP5        0.0000 
      4 CA         10.6305   -2.7955   14.3335 C.3       2 GLC5        0.0000 
      5 CA         10.2210   -0.7220   14.1450 C.3       6 GLL5        0.0000 
      6 CA         11.0400   -4.8690   14.5220 C.3       4 GLP5        0.0000 
      7 CA         13.7895    2.6380   16.5170 C.3       2 GLC5        0.0000 
      8 CA         13.2840    1.2410   15.3310 C.3       6 GLL5        0.0000 
      9 CA         14.2950    4.0350   17.7030 C.3       4 GLP5        0.0000 
     10 O           6.6505    0.7850   15.2625 O.2       1 ALC1        0.0000 
     11 O           7.8470    0.1170   14.5610 O.2       5 ALL1        0.0000 
     12 O           5.4540    1.4530   15.9640 O.2       3 ALP1        0.0000 
     13 CA          8.8995   -3.9850   18.6515 C.3       2 GLC5        0.0000 
     14 CA          8.9610   -2.1170   19.1070 C.3       6 GLL5        0.0000 
     15 CA          8.8380   -5.8530   18.1960 C.3       4 GLP5        0.0000 
     16 O           9.5265   -4.1185   19.9550 O.2       1 ALC1        0.0000 
     17 O           8.6660   -2.9900   20.0850 O.2       5 ALL1        0.0000 
     18 O          10.3870   -5.2470   19.8250 O.2       3 ALP1        0.0000 
     19 CA         10.2240   -3.9955   18.4625 C.3       2 GLC5        0.0000 
     20 CA         10.1730   -2.1790   18.3990 C.3       6 GLL5        0.0000 
     21 CA         10.2750   -5.8120   18.5260 C.3       4 GLP5        0.0000 
     22 CA         12.2690   -2.8035   18.7445 C.3       2 GLC5        0.0000 
     23 CA         14.3650   -3.4280   19.0900 C.3       4 GLP5        0.0000 
     24 CA         12.3570   -1.9440   17.0745 C.3       2 GLC5        0.0000 
     25 CA         10.4110   -1.2400   17.3940 C.3       6 GLL5        0.0000 
     26 CA         14.3030   -2.6480   16.7550 C.3       4 GLP5        0.0000 
     27 CA         14.2070   -1.1738   15.3870 C.3       2 GLC5        0.0000 
     28 CA         15.1525    0.9310   16.4132 C.3       2 GLC5        0.0000 
     29 CA         14.2740    0.7730   14.4900 C.3       6 GLL5        0.0000 
     30 CA         16.5260    0.8550   17.9160 C.3       4 GLP5        0.0000 
     31 CA         13.6175   -2.4748   13.5070 C.3       2 GLC5        0.0000 
     32 CA         13.9320   -4.5410   13.5160 C.3       4 GLP5        0.0000 
     33 CA         13.2290   -1.5380   15.3098 C.3       2 GLC5        0.0000 
     34 CA         12.6580   -0.6450   13.4480 C.3       6 GLL5        0.0000 
     35 CA         10.1893    1.1190   12.9672 C.3       2 GLC5        0.0000 
     36 CA         10.6340    2.4030   11.5500 C.3       4 GLP5        0.0000 
     37 CA          8.0787   -1.4745   14.3687 C.3       2 GLC5        0.0000 
     38 CA          9.2680    0.3920   14.6240 C.3       6 GLL5        0.0000 
     39 CA          6.4130   -2.7840   14.3530 C.3       4 GLP5        0.0000 
     40 CA         13.4675   -0.8253   16.0162 C.3       2 GLC5        0.0000 
     41 CA         11.9800    0.7540   15.2240 C.3       6 GLL5        0.0000 
     42 CA         11.3508    1.2830   13.0471 C.3       2 GLC5        0.0000 
     43 CA         10.3383    0.0658   18.7760 C.3       2 GLC5        0.0000 
     44 CA          9.4620   -0.2820   17.0840 C.3       6 GLL5        0.0000 
     45 CA         11.8150    0.4060   20.1120 C.3       4 GLP5        0.0000 
     46 CA          7.8793   -2.0103   17.0310 C.3       2 GLC5        0.0000 
     47 CA          6.8970   -3.7460   16.6220 C.3       4 GLP5        0.0000 
     48 CA         10.1495   -0.6217   19.5325 C.3       2 GLC5        0.0000 
     49 CA          8.0070   -1.1820   18.7990 C.3       6 GLL5        0.0000 
     50 CA          7.6905   -2.6978   17.7875 C.3       2 GLC5        0.0000 
     51 CA         11.0535   -0.6517   19.0042 C.3       2 GLC5        0.0000 
     52 CA          8.5945   -2.7277   17.2593 C.3       2 GLC5        0.0000 
@<TRIPOS>BOND
@<TRIPOS>SUBSTRUCTURE
     1 ALC1       10 GROUP        1 X    ALC  0     ROOT ALC X 1
     2 GLC5        1 GROUP        1 X    GLC  0     **** GLC X 6
     3 ALP1       12 GROUP        1 Y    ALP  0     ROOT ALP Y 8
     4 GLP5        3 GROUP        1 Y    GLP  0     **** GLP Y 13
     5 ALL1       11 GROUP        1 Z    ALL  0     ROOT ALL Z 15
     6 GLL5        2 GROUP        1 Z    GLL  0     **** GLL Z 20
@<TRIPOS>SET

