#    Name: 4ma6_28E_1_ligand
#    Modification time : Tue Mar 25 11:59:34 2014

@<TRIPOS>MOLECULE
4ma6_28E_1_ligand
   35    37     1     0     0
SMALL
NO_CHARGES


@<TRIPOS>ATOM
      1 OAB        15.5590    1.2200   14.5800 O.3       1 28E202      0.0000 
      2 CAT        14.2740    0.7730   14.4900 C.ar      1 28E202      0.0000 
      3 CAK        13.9480   -0.1720   13.5480 C.ar      1 28E202      0.0000 
      4 CAY        12.6580   -0.6450   13.4480 C.ar      1 28E202      0.0000 
      5 OAG        12.4250   -1.5630   12.5000 O.3       1 28E202      0.0000 
      6 CBD        11.6520   -0.2110   14.2810 C.ar      1 28E202      0.0000 
      7 CAP        10.2210   -0.7220   14.1450 C.3       1 28E202      0.0000 
      8 CAN        13.2840    1.2410   15.3310 C.ar      1 28E202      0.0000 
      9 CBC        11.9800    0.7540   15.2240 C.ar      1 28E202      0.0000 
     10 OAR        11.0410    1.2430   16.0800 O.3       1 28E202      0.0000 
     11 CBF         9.6620    0.7830   16.0500 C.3       1 28E202      0.0000 
     12 CBE         9.2680    0.3920   14.6240 C.3       1 28E202      0.0000 
     13 OAQ         7.8470    0.1170   14.5610 O.3       1 28E202      0.0000 
     14 CBA         9.4620   -0.2820   17.0840 C.ar      1 28E202      0.0000 
     15 CAO         8.2610   -0.2670   17.7960 C.ar      1 28E202      0.0000 
     16 CAV         8.0070   -1.1820   18.7990 C.ar      1 28E202      0.0000 
     17 OAD         6.8160   -1.1380   19.4680 O.3       1 28E202      0.0000 
     18 CAU         8.9610   -2.1170   19.1070 C.ar      1 28E202      0.0000 
     19 OAC         8.6660   -2.9900   20.0850 O.3       1 28E202      0.0000 
     20 CAI        10.1730   -2.1790   18.3990 C.ar      1 28E202      0.0000 
     21 CAJ        10.4110   -1.2400   17.3940 C.ar      1 28E202      0.0000 
     22 H          14.6777   -0.5336   12.9059 H         1 28E202      0.0000 
     23 H          10.0846   -1.5923   14.7626 H         1 28E202      0.0000 
     24 H          10.0107   -0.9466   13.1141 H         1 28E202      0.0000 
     25 H          13.5019    1.9537   16.0438 H         1 28E202      0.0000 
     26 H           9.0160    1.6490   16.3328 H         1 28E202      0.0000 
     27 H           9.5024    1.2922   14.0046 H         1 28E202      0.0000 
     28 H           7.5472    0.4504   17.5614 H         1 28E202      0.0000 
     29 H          10.8600   -2.8948   18.6174 H         1 28E202      0.0000 
     30 H          11.3067   -1.2651   16.8794 H         1 28E202      0.0000 
     31 H          16.1364    1.7974   15.1574 H         1 28E202      0.0000 
     32 H          13.2966   -1.6672   12.0210 H         1 28E202      0.0000 
     33 H           7.4432    0.6746   15.2863 H         1 28E202      0.0000 
     34 H           6.9439   -0.4463   20.1787 H         1 28E202      0.0000 
     35 H           9.0262   -3.8668   19.7664 H         1 28E202      0.0000 
@<TRIPOS>BOND
     1    2    1 1    
     2   31    1 1    
     3    3    2 ar   
     4    8    2 ar   
     5    4    3 ar   
     6   22    3 1    
     7    5    4 1    
     8    6    4 ar   
     9   32    5 1    
    10    7    6 1    
    11    9    6 ar   
    12   12    7 1    
    13   23    7 1    
    14   24    7 1    
    15    9    8 ar   
    16   25    8 1    
    17   10    9 1    
    18   11   10 1    
    19   12   11 1    
    20   14   11 1    
    21   26   11 1    
    22   13   12 1    
    23   27   12 1    
    24   33   13 1    
    25   15   14 ar   
    26   21   14 ar   
    27   16   15 ar   
    28   28   15 1    
    29   17   16 1    
    30   18   16 ar   
    31   34   17 1    
    32   19   18 1    
    33   20   18 ar   
    34   35   19 1    
    35   21   20 ar   
    36   29   20 1    
    37   30   21 1    
@<TRIPOS>SUBSTRUCTURE
     1 28E202      1 GROUP   
@<TRIPOS>SET

