#    Name: 4dtw_SRO_1_INTS_M
#    Modification time : Mon Apr  7 22:58:34 2014

@<TRIPOS>MOLECULE
4dtw_SRO_1_INTS_M
   28     0     6     0     0
SMALL
NO_CHARGES


@<TRIPOS>ATOM
      1 O           1.5720  -55.7710   20.3855 O.2       1 ALC1        0.0000 
      2 O           0.8730  -54.9590   19.7350 O.2       5 ALL1        0.0000 
      3 O           2.2710  -56.5830   21.0360 O.2       3 ALP1        0.0000 
      4 CA          4.2980  -52.4920   19.7685 C.3       2 GLC5        0.0000 
      5 CA          3.1110  -52.3070   21.1700 C.3       6 GLL5        0.0000 
      6 CA          5.4850  -52.6770   18.3670 C.3       4 GLP5        0.0000 
      7 CA          3.8985  -49.5375   20.2850 C.3       2 GLC5        0.0000 
      8 CA          2.6100  -51.1780   20.5090 C.3       6 GLL5        0.0000 
      9 CA          5.1870  -47.8970   20.0610 C.3       4 GLP5        0.0000 
     10 O           3.8630  -49.9995   21.6240 O.2       1 ALC1        0.0000 
     11 O           2.9270  -49.8670   20.5050 O.2       5 ALL1        0.0000 
     12 O           4.7990  -50.1320   22.7430 O.2       3 ALP1        0.0000 
     13 CA          3.6470  -48.5460   19.8420 C.3       2 GLC5        0.0000 
     14 CA          2.1070  -49.1950   19.6230 C.3       6 GLL5        0.0000 
     15 CA          4.8243  -53.2175   21.0028 C.3       2 GLC5        0.0000 
     16 CA          2.5040  -53.5590   20.8990 C.3       6 GLL5        0.0000 
     17 CA          6.8410  -53.5020   20.9710 C.3       4 GLP5        0.0000 
     18 CA          2.8235  -52.8178   18.6816 C.3       2 GLC5        0.0000 
     19 CA          0.9160  -52.6080   19.3030 C.3       6 GLL5        0.0000 
     20 CA          4.2050  -52.5140   17.4930 C.3       4 GLP5        0.0000 
     21 CA         -1.2655  -50.7375   18.1685 C.3       2 GLC5        0.0000 
     22 CA          0.1450  -49.4840   17.9220 C.3       6 GLL5        0.0000 
     23 CA         -2.4300  -51.5500   18.9960 C.3       4 GLP5        0.0000 
     24 CA         -1.0895  -48.4120   17.1800 C.3       2 GLC5        0.0000 
     25 CA         -0.3470  -50.3660   16.7600 C.3       6 GLL5        0.0000 
     26 CA         -2.0780  -46.8990   17.0190 C.3       4 GLP5        0.0000 
     27 CA          3.0246  -51.4730   18.5682 C.3       2 GLC5        0.0000 
     28 CA          1.1870  -50.0040   18.9310 C.3       6 GLL5        0.0000 
@<TRIPOS>BOND
@<TRIPOS>SUBSTRUCTURE
     1 ALC1        1 GROUP        1 X    ALC  0     ROOT ALC X 1
     2 GLC5        4 GROUP        1 X    GLC  0     **** GLC X 6
     3 ALP1        3 GROUP        1 Y    ALP  0     ROOT ALP Y 8
     4 GLP5        6 GROUP        1 Y    GLP  0     **** GLP Y 13
     5 ALL1        2 GROUP        1 Z    ALL  0     ROOT ALL Z 15
     6 GLL5        5 GROUP        1 Z    GLL  0     **** GLL Z 20
@<TRIPOS>SET

