#    Name: 4dtw_SRO_1_ligand
#    Modification time : Mon Apr  7 22:58:34 2014

@<TRIPOS>MOLECULE
4dtw_SRO_1_ligand
   26    27     1     0     0
SMALL
NO_CHARGES


@<TRIPOS>ATOM
      1 OH          0.8730  -54.9590   19.7350 O.3       1 SRO501      0.0000 
      2 CZ3         1.4320  -53.7110   19.9760 C.ar      1 SRO501      0.0000 
      3 CH2         2.5040  -53.5590   20.8990 C.ar      1 SRO501      0.0000 
      4 CZ2         3.1110  -52.3070   21.1700 C.ar      1 SRO501      0.0000 
      5 CE2         2.6100  -51.1780   20.5090 C.ar      1 SRO501      0.0000 
      6 NE1         2.9270  -49.8670   20.5050 N.pl3     1 SRO501      0.0000 
      7 CD1         2.1070  -49.1950   19.6230 C.2       1 SRO501      0.0000 
      8 CG          1.1870  -50.0040   18.9310 C.2       1 SRO501      0.0000 
      9 CD2         1.4730  -51.3510   19.5110 C.ar      1 SRO501      0.0000 
     10 CE3         0.9160  -52.6080   19.3030 C.ar      1 SRO501      0.0000 
     11 CB          0.1450  -49.4840   17.9220 C.3       1 SRO501      0.0000 
     12 CA         -0.3470  -50.3660   16.7600 C.3       1 SRO501      0.0000 
     13 NZ         -0.1370  -49.9860   15.3450 N.4       1 SRO501      0.0000 
     14 H           2.8549  -54.4017   21.3937 H         1 SRO501      0.0000 
     15 H           3.8785  -52.2393   21.8191 H         1 SRO501      0.0000 
     16 H           3.6201  -49.4459   21.0333 H         1 SRO501      0.0000 
     17 H           2.1516  -48.2137   19.4772 H         1 SRO501      0.0000 
     18 H           0.1277  -52.7220   18.6560 H         1 SRO501      0.0000 
     19 H           0.5409  -48.5180   17.4816 H         1 SRO501      0.0000 
     20 H          -0.7630  -49.1414   18.5069 H         1 SRO501      0.0000 
     21 H          -1.4623  -50.5484   16.9345 H         1 SRO501      0.0000 
     22 H           0.0861  -51.4101   16.9329 H         1 SRO501      0.0000 
     23 H           0.8343  -49.8972   15.1245 H         1 SRO501      0.0000 
     24 H          -0.5191  -50.6645   14.7176 H         1 SRO501      0.0000 
     25 H          -0.5681  -49.1103   15.1277 H         1 SRO501      0.0000 
     26 H           1.0453  -55.4849   20.5679 H         1 SRO501      0.0000 
@<TRIPOS>BOND
     1    2    1 1    
     2   26    1 1    
     3    3    2 ar   
     4   10    2 ar   
     5    4    3 ar   
     6   14    3 1    
     7    5    4 ar   
     8   15    4 1    
     9    6    5 1    
    10    9    5 ar   
    11    7    6 1    
    12   16    6 1    
    13    8    7 2    
    14   17    7 1    
    15    9    8 1    
    16   11    8 1    
    17   10    9 ar   
    18   18   10 1    
    19   12   11 1    
    20   19   11 1    
    21   20   11 1    
    22   13   12 1    
    23   21   12 1    
    24   22   12 1    
    25   23   13 1    
    26   24   13 1    
    27   25   13 1    
@<TRIPOS>SUBSTRUCTURE
     1 SRO501      1 GROUP   
@<TRIPOS>SET

