#    Name: 3l77_NJP_1_INTS_M
#    Modification time : Mon Mar 24 21:06:48 2014

@<TRIPOS>MOLECULE
3l77_NJP_1_INTS_M
  130     0    12     0     0
SMALL
NO_CHARGES


@<TRIPOS>ATOM
      1 N         -38.7320  -16.5520  -16.9980 N.am      2 SEC2        0.0000 
      2 N         -37.4840  -17.5510  -16.5100 N.am     10 SEL2        0.0000 
      3 N         -39.9800  -15.5530  -17.4860 N.am      6 SEP2        0.0000 
      4 N         -28.5660  -26.0360  -14.2455 N.am      2 SEC2        0.0000 
      5 N         -29.8680  -25.7050  -14.7870 N.am     10 SEL2        0.0000 
      6 N         -27.2640  -26.3670  -13.7040 N.am      6 SEP2        0.0000 
      7 CA        -31.4860  -21.6700  -16.0000 C.3       4 GLC5        0.0000 
      8 CA        -33.1270  -22.3850  -16.8420 C.3      12 GLL5        0.0000 
      9 CA        -29.8450  -20.9550  -15.1580 C.3       8 GLP5        0.0000 
     10 CA        -33.0280  -12.9410  -14.4475 C.3       4 GLC5        0.0000 
     11 CA        -34.5100  -13.7800  -13.5230 C.3      12 GLL5        0.0000 
     12 CA        -31.5460  -12.1020  -15.3720 C.3       8 GLP5        0.0000 
     13 N         -35.8050  -15.7485  -19.6130 N.am      2 SEC2        0.0000 
     14 N         -36.0980  -16.3960  -18.3810 N.am     10 SEL2        0.0000 
     15 N         -35.5120  -15.1010  -20.8450 N.am      6 SEP2        0.0000 
     16 NZ        -36.0835  -25.1755  -19.9805 N.4       3 LYC4        0.0000 
     17 NZ        -34.3230  -26.0130  -19.7930 N.4      11 LYL4        0.0000 
     18 NZ        -37.8440  -24.3380  -20.1680 N.4       7 LYP4        0.0000 
     19 N         -34.3630  -24.9205  -20.6135 N.am      2 SEC2        0.0000 
     20 N         -34.3230  -26.0130  -19.7930 N.am     10 SEL2        0.0000 
     21 N         -34.4030  -23.8280  -21.4340 N.am      6 SEP2        0.0000 
     22 N         -32.7995  -26.7590  -19.5330 N.am      2 SEC2        0.0000 
     23 N         -31.2760  -27.5050  -19.2730 N.am      6 SEP2        0.0000 
     24 N         -33.7445  -27.2615  -20.3715 N.am      2 SEC2        0.0000 
     25 N         -33.1660  -28.5100  -20.9500 N.am      6 SEP2        0.0000 
     26 N         -35.1095  -26.9335  -20.3385 N.am      2 SEC2        0.0000 
     27 N         -35.8960  -27.8540  -20.8840 N.am      6 SEP2        0.0000 
     28 CA        -29.8665  -25.3670  -18.0340 C.3       4 GLC5        0.0000 
     29 CA        -29.7960  -25.0770  -15.9660 C.3      12 GLL5        0.0000 
     30 CA        -29.9370  -25.6570  -20.1020 C.3       8 GLP5        0.0000 
     31 CA        -30.6405  -26.9540  -16.2640 C.3       4 GLC5        0.0000 
     32 CA        -31.4850  -28.8310  -16.5620 C.3       8 GLP5        0.0000 
     33 CA        -28.8420  -26.7280  -15.4400 C.3       4 GLC5        0.0000 
     34 CA        -27.8880  -28.3790  -14.9140 C.3       8 GLP5        0.0000 
     35 CA        -28.0715  -24.3710  -15.2695 C.3       4 GLC5        0.0000 
     36 CA        -26.3470  -23.6650  -14.5730 C.3       8 GLP5        0.0000 
     37 CA        -29.8205  -23.0160  -15.5620 C.3       4 GLC5        0.0000 
     38 N         -40.0650  -18.2670  -18.5375 N.am      2 SEC2        0.0000 
     39 N         -38.6150  -18.5790  -18.5990 N.am     10 SEL2        0.0000 
     40 N         -41.5150  -17.9550  -18.4760 N.am      6 SEP2        0.0000 
     41 CA        -36.2160  -15.7055  -12.1945 C.3       4 GLC5        0.0000 
     42 CA        -34.7190  -15.2000  -13.0340 C.3      12 GLL5        0.0000 
     43 CA        -37.7130  -16.2110  -11.3550 C.3       8 GLP5        0.0000 
     44 N         -35.1205  -14.4740  -10.7390 N.am      2 SEC2        0.0000 
     45 N         -34.5120  -15.2980  -11.6250 N.am     10 SEL2        0.0000 
     46 N         -35.7290  -13.6500   -9.8530 N.am      6 SEP2        0.0000 
     47 N         -33.2070  -14.9130  -11.0425 N.am      2 SEC2        0.0000 
     48 N         -31.9020  -14.5280  -10.4600 N.am      6 SEP2        0.0000 
     49 CA        -36.0340  -12.6280  -15.8680 C.3       4 GLC5        0.0000 
     50 CA        -36.8740  -13.1520  -13.9800 C.3      12 GLL5        0.0000 
     51 CA        -35.1940  -12.1040  -17.7560 C.3       8 GLP5        0.0000 
     52 N         -38.7310  -15.3060  -17.0520 N.am      2 SEC2        0.0000 
     53 N         -37.4820  -15.0590  -16.6180 N.am     10 SEL2        0.0000 
     54 NZ        -36.4575  -24.9325  -18.2765 N.4       3 LYC4        0.0000 
     55 NZ        -35.5580  -25.6960  -17.6080 N.4      11 LYL4        0.0000 
     56 NZ        -35.3880  -26.1270  -16.2040 N.4       3 LYC4        0.0000 
     57 NZ        -34.2970  -27.4780  -14.5480 N.4       7 LYP4        0.0000 
     58 N         -36.4575  -24.9325  -18.2765 N.am      2 SEC2        0.0000 
     59 N         -35.5580  -25.6960  -17.6080 N.am     10 SEL2        0.0000 
     60 N         -37.3570  -24.1690  -18.9450 N.am      6 SEP2        0.0000 
     61 N         -35.3880  -26.1270  -16.2040 N.am      2 SEC2        0.0000 
     62 N         -35.2180  -26.5580  -14.8000 N.am      6 SEP2        0.0000 
     63 CA        -36.0765  -21.3565  -19.6205 C.3       4 GLC5        0.0000 
     64 CA        -34.7570  -21.6740  -18.3920 C.3      12 GLL5        0.0000 
     65 CA        -37.3960  -21.0390  -20.8490 C.3       8 GLP5        0.0000 
     66 O         -34.2150  -22.7115  -20.5300 O.2       1 ALC1        0.0000 
     67 O         -34.0270  -21.5950  -19.6260 O.2       9 ALL1        0.0000 
     68 O         -34.4030  -23.8280  -21.4340 O.2       5 ALP1        0.0000 
     69 N         -32.1340  -15.1640  -11.8140 N.am      2 SEC2        0.0000 
     70 N         -32.3660  -15.8000  -13.1680 N.am     10 SEL2        0.0000 
     71 O         -31.6585  -16.3350  -14.2530 O.2       1 ALC1        0.0000 
     72 O         -32.3660  -15.8000  -13.1680 O.2       9 ALL1        0.0000 
     73 O         -30.9510  -16.8700  -15.3380 O.2       5 ALP1        0.0000 
     74 CA        -38.0795  -11.0300  -15.3585 C.3       4 GLC5        0.0000 
     75 CA        -37.9830  -12.3700  -13.6890 C.3      12 GLL5        0.0000 
     76 CA        -38.1760   -9.6900  -17.0280 C.3       8 GLP5        0.0000 
     77 NZ        -33.2085  -26.8920  -16.5375 N.4       3 LYC4        0.0000 
     78 NZ        -33.0440  -26.0420  -17.6160 N.4      11 LYL4        0.0000 
     79 N         -32.1600  -26.7735  -18.4445 N.am      2 SEC2        0.0000 
     80 N         -33.0440  -26.0420  -17.6160 N.am     10 SEL2        0.0000 
     81 N         -33.2085  -26.8920  -16.5375 N.am      2 SEC2        0.0000 
     82 N         -33.3730  -27.7420  -15.4590 N.am      6 SEP2        0.0000 
     83 CA        -32.5445  -13.6360  -15.2500 C.3       4 GLC5        0.0000 
     84 CA        -33.5430  -15.1700  -15.1280 C.3      12 GLL5        0.0000 
     85 CA        -39.4620  -10.0210  -13.3155 C.3       4 GLC5        0.0000 
     86 CA        -37.8860  -11.3090  -12.7970 C.3      12 GLL5        0.0000 
     87 CA        -41.0380   -8.7330  -13.8340 C.3       8 GLP5        0.0000 
     88 CA        -31.4465  -23.2490  -12.7260 C.3       4 GLC5        0.0000 
     89 CA        -31.9120  -24.6350  -14.2950 C.3      12 GLL5        0.0000 
     90 CA        -30.9810  -21.8630  -11.1570 C.3       8 GLP5        0.0000 
     91 CA        -29.3965  -26.9495  -14.4275 C.3       4 GLC5        0.0000 
     92 CA        -30.9050  -25.5200  -13.9410 C.3      12 GLL5        0.0000 
     93 CA        -31.1595  -24.7465  -11.8940 C.3       4 GLC5        0.0000 
     94 CA        -31.4140  -23.9730   -9.8470 C.3       8 GLP5        0.0000 
     95 O         -30.0815  -27.3595  -12.6270 O.2       1 ALC1        0.0000 
     96 O         -30.9500  -26.1870  -12.7560 O.2       9 ALL1        0.0000 
     97 O         -29.2130  -28.5320  -12.4980 O.2       5 ALP1        0.0000 
     98 CA        -34.3140  -10.1525  -13.3795 C.3       4 GLC5        0.0000 
     99 CA        -35.5510  -11.7740  -12.4790 C.3      12 GLL5        0.0000 
    100 CA        -33.0770   -8.5310  -14.2800 C.3       8 GLP5        0.0000 
    101 O         -40.5875  -12.8875  -16.1745 O.2       1 ALC1        0.0000 
    102 O         -39.3840  -13.4510  -15.3810 O.2       9 ALL1        0.0000 
    103 O         -41.7910  -12.3240  -16.9680 O.2       5 ALP1        0.0000 
    104 N         -40.5175  -11.0340  -14.8740 N.am      2 SEC2        0.0000 
    105 N         -40.2840  -12.0520  -13.8750 N.am     10 SEL2        0.0000 
    106 N         -40.7510  -10.0160  -15.8730 N.am      6 SEP2        0.0000 
    107 N         -36.0175   -9.7905  -10.2870 N.am      2 SEC2        0.0000 
    108 N         -36.6210   -9.9520  -11.3440 N.am     10 SEL2        0.0000 
    109 N         -35.4140   -9.6290   -9.2300 N.am      6 SEP2        0.0000 
    110 O         -36.1990   -8.8445  -11.9365 O.2       1 ALC1        0.0000 
    111 O         -36.6210   -9.9520  -11.3440 O.2       9 ALL1        0.0000 
    112 O         -35.7770   -7.7370  -12.5290 O.2       5 ALP1        0.0000 
    113 CA        -33.4840  -17.2475  -12.8320 C.3       4 GLC5        0.0000 
    114 CA        -33.6410  -15.9400  -13.8160 C.3      12 GLL5        0.0000 
    115 CA        -32.7880  -18.9250  -12.2390 C.3       8 GLP5        0.0000 
    116 CA        -38.6988  -14.5485  -14.1148 C.3       4 GLC5        0.0000 
    117 CA        -39.9690  -16.3360  -14.3950 C.3       8 GLP5        0.0000 
    118 CA        -30.8545  -22.6340  -15.0317 C.3       4 GLC5        0.0000 
    119 CA        -31.8160  -23.9910  -15.5160 C.3      12 GLL5        0.0000 
    120 CA        -34.5115  -13.8235  -16.7420 C.3       4 GLC5        0.0000 
    121 CA        -34.1150  -15.9160  -16.3280 C.3      12 GLL5        0.0000 
    122 CA        -31.8657  -26.9093  -14.7085 C.3       4 GLC5        0.0000 
    123 CA        -32.3230  -28.7410  -15.2990 C.3       8 GLP5        0.0000 
    124 CA        -29.6737  -24.3433  -13.3635 C.3       4 GLC5        0.0000 
    125 CA        -27.9390  -23.6090  -12.6090 C.3       8 GLP5        0.0000 
    126 CA        -35.1132  -10.7770  -10.8803 C.3       4 GLC5        0.0000 
    127 CA        -34.1140  -10.1700   -9.4130 C.3       8 GLP5        0.0000 
    128 CA        -32.4921  -21.3816  -18.3368 C.3       4 GLC5        0.0000 
    129 CA        -34.3340  -20.5180  -17.5010 C.3      12 GLL5        0.0000 
    130 CA        -30.8480  -20.8910  -19.0820 C.3       8 GLP5        0.0000 
@<TRIPOS>BOND
@<TRIPOS>SUBSTRUCTURE
     1 ALC1       66 GROUP        1 X    ALC  0     ROOT ALC X 1
     2 SEC2        1 GROUP        1 X    SEC  0     **** SEC X 2
     3 LYC4       16 GROUP        1 X    LYC  0     **** LYC X 4
     4 GLC5        7 GROUP        1 X    GLC  0     **** GLC X 6
     5 ALP1       68 GROUP        1 Y    ALP  0     ROOT ALP Y 8
     6 SEP2        3 GROUP        1 Y    SEP  0     **** SEP Y 9
     7 LYP4       18 GROUP        1 Y    LYP  0     **** LYP Y 11
     8 GLP5        9 GROUP        1 Y    GLP  0     **** GLP Y 13
     9 ALL1       67 GROUP        1 Z    ALL  0     ROOT ALL Z 15
    10 SEL2        2 GROUP        1 Z    SEL  0     **** SEL Z 16
    11 LYL4       17 GROUP        1 Z    LYL  0     **** LYL Z 18
    12 GLL5        8 GROUP        1 Z    GLL  0     **** GLL Z 20
@<TRIPOS>SET

