#    Name: 3l77_NJP_1_ligand
#    Modification time : Mon Mar 24 21:06:48 2014

@<TRIPOS>MOLECULE
3l77_NJP_1_ligand
   74    78     1     0     0
SMALL
NO_CHARGES


@<TRIPOS>ATOM
      1 O3        -37.4840  -17.5510  -16.5100 O.3       1 NJP501      0.0000 
      2 PA        -37.8560  -18.8860  -17.3300 P.3       1 NJP501      0.0000 
      3 PN        -36.6420  -16.2580  -16.9700 P.3       1 NJP501      0.0000 
      4 N1A       -29.8680  -25.7050  -14.7870 N.ar      1 NJP501      0.0000 
      5 O1A       -38.4560  -19.8050  -16.2900 O.co2     1 NJP501      0.0000 
      6 C1B       -33.1270  -22.3850  -16.8420 C.3       1 NJP501      0.0000 
      7 C1D       -34.5100  -13.7800  -13.5230 C.3       1 NJP501      0.0000 
      8 N1N       -35.6140  -12.8020  -13.4480 N.pl3     1 NJP501      0.0000 
      9 O1N       -36.0980  -16.3960  -18.3810 O.co2     1 NJP501      0.0000 
     10 O1X       -34.3230  -26.0130  -19.7930 O.co2     1 NJP501      0.0000 
     11 C2A       -29.7960  -25.0770  -15.9660 C.ar      1 NJP501      0.0000 
     12 O2A       -38.6150  -18.5790  -18.5990 O.co2     1 NJP501      0.0000 
     13 C2B       -34.3270  -22.9120  -17.6310 C.3       1 NJP501      0.0000 
     14 O2B       -33.9710  -23.9460  -18.5520 O.3       1 NJP501      0.0000 
     15 P2B       -34.2530  -25.5310  -18.3640 P.3       1 NJP501      0.0000 
     16 C2D       -34.7190  -15.2000  -13.0340 C.3       1 NJP501      0.0000 
     17 O2D       -34.5120  -15.2980  -11.6250 O.3       1 NJP501      0.0000 
     18 C2N       -36.8740  -13.1520  -13.9800 C.ar      1 NJP501      0.0000 
     19 O2N       -37.4820  -15.0590  -16.6180 O.co2     1 NJP501      0.0000 
     20 O2X       -35.5580  -25.6960  -17.6080 O.co2     1 NJP501      0.0000 
     21 N3A       -30.7570  -24.2190  -16.3360 N.ar      1 NJP501      0.0000 
     22 C3B       -34.7570  -21.6740  -18.3920 C.3       1 NJP501      0.0000 
     23 O3B       -34.0270  -21.5950  -19.6260 O.3       1 NJP501      0.0000 
     24 C3D       -33.6410  -15.9400  -13.8160 C.3       1 NJP501      0.0000 
     25 O3D       -32.3660  -15.8000  -13.1680 O.3       1 NJP501      0.0000 
     26 C3N       -37.9830  -12.3700  -13.6890 C.ar      1 NJP501      0.0000 
     27 O3X       -33.0440  -26.0420  -17.6160 O.co2     1 NJP501      0.0000 
     28 C4A       -31.8160  -23.9910  -15.5160 C.ar      1 NJP501      0.0000 
     29 C4B       -34.3340  -20.5180  -17.5010 C.3       1 NJP501      0.0000 
     30 O4B       -33.4210  -21.0340  -16.5230 O.3       1 NJP501      0.0000 
     31 C4D       -33.5430  -15.1700  -15.1280 C.3       1 NJP501      0.0000 
     32 O4D       -34.2730  -13.9580  -14.9180 O.3       1 NJP501      0.0000 
     33 C4N       -37.8860  -11.3090  -12.7970 C.ar      1 NJP501      0.0000 
     34 C5A       -31.9120  -24.6350  -14.2950 C.ar      1 NJP501      0.0000 
     35 C5B       -35.5260  -19.9400  -16.7720 C.3       1 NJP501      0.0000 
     36 O5B       -36.4310  -19.4750  -17.7690 O.3       1 NJP501      0.0000 
     37 C5D       -34.1150  -15.9160  -16.3280 C.3       1 NJP501      0.0000 
     38 O5D       -35.4030  -16.3830  -15.9520 O.3       1 NJP501      0.0000 
     39 C5N       -36.6740  -10.9940  -12.2160 C.ar      1 NJP501      0.0000 
     40 C6A       -30.9050  -25.5200  -13.9410 C.ar      1 NJP501      0.0000 
     41 N6A       -30.9500  -26.1870  -12.7560 N.pl3     1 NJP501      0.0000 
     42 C6N       -35.5510  -11.7740  -12.4790 C.ar      1 NJP501      0.0000 
     43 N7A       -33.0640  -24.2200  -13.7000 N.2       1 NJP501      0.0000 
     44 C7N       -39.3130  -12.6400  -14.3220 C.2       1 NJP501      0.0000 
     45 N7N       -39.3840  -13.4510  -15.3810 N.am      1 NJP501      0.0000 
     46 O7N       -40.2840  -12.0520  -13.8750 O.2       1 NJP501      0.0000 
     47 C8A       -33.6590  -23.3380  -14.5440 C.2       1 NJP501      0.0000 
     48 O8N       -36.6210   -9.9520  -11.3440 O.3       1 NJP501      0.0000 
     49 N9A       -32.8870  -23.2100  -15.6440 N.pl3     1 NJP501      0.0000 
     50 H         -32.2698  -22.4407  -17.5076 H         1 NJP501      0.0000 
     51 H         -33.6108  -13.3831  -13.0805 H         1 NJP501      0.0000 
     52 H         -28.9846  -25.2560  -16.6044 H         1 NJP501      0.0000 
     53 H         -35.0897  -23.1681  -16.9548 H         1 NJP501      0.0000 
     54 H         -35.6598  -15.5334  -13.3672 H         1 NJP501      0.0000 
     55 H         -36.9579  -13.9793  -14.5754 H         1 NJP501      0.0000 
     56 H         -35.7908  -21.6678  -18.5073 H         1 NJP501      0.0000 
     57 H         -33.9258  -16.9118  -14.0038 H         1 NJP501      0.0000 
     58 H         -33.8790  -19.7641  -18.0963 H         1 NJP501      0.0000 
     59 H         -32.5025  -14.9467  -15.3100 H         1 NJP501      0.0000 
     60 H         -38.7277  -10.7553  -12.5700 H         1 NJP501      0.0000 
     61 H         -35.1781  -19.1343  -16.1323 H         1 NJP501      0.0000 
     62 H         -35.9644  -20.7220  -16.1591 H         1 NJP501      0.0000 
     63 H         -33.4378  -16.7302  -16.5705 H         1 NJP501      0.0000 
     64 H         -34.1574  -15.2236  -17.1641 H         1 NJP501      0.0000 
     65 H         -30.4691  -27.0633  -12.7257 H         1 NJP501      0.0000 
     66 H         -31.4600  -25.7422  -12.0198 H         1 NJP501      0.0000 
     67 H         -34.6740  -11.6107  -11.9753 H         1 NJP501      0.0000 
     68 H         -38.5250  -13.8738  -15.6698 H         1 NJP501      0.0000 
     69 H         -40.2897  -13.5625  -15.7899 H         1 NJP501      0.0000 
     70 H         -34.4931  -22.8821  -14.3806 H         1 NJP501      0.0000 
     71 H         -35.2305  -15.9131  -11.3002 H         1 NJP501      0.0000 
     72 H         -34.2636  -22.4313  -20.1205 H         1 NJP501      0.0000 
     73 H         -31.7183  -15.6184  -13.9079 H         1 NJP501      0.0000 
     74 H         -35.8762   -9.3737  -11.6769 H         1 NJP501      0.0000 
@<TRIPOS>BOND
     1    2    1 1    
     2    3    1 1    
     3    5    2 ar   
     4   12    2 ar   
     5   36    2 1    
     6    9    3 ar   
     7   19    3 ar   
     8   38    3 1    
     9   11    4 ar   
    10   40    4 ar   
    11   13    6 1    
    12   30    6 1    
    13   49    6 1    
    14   50    6 1    
    15    8    7 1    
    16   16    7 1    
    17   32    7 1    
    18   51    7 1    
    19   18    8 ar   
    20   42    8 ar   
    21   15   10 ar   
    22   21   11 ar   
    23   52   11 1    
    24   14   13 1    
    25   22   13 1    
    26   53   13 1    
    27   15   14 1    
    28   20   15 ar   
    29   27   15 ar   
    30   17   16 1    
    31   24   16 1    
    32   54   16 1    
    33   71   17 1    
    34   26   18 ar   
    35   55   18 1    
    36   28   21 ar   
    37   23   22 1    
    38   29   22 1    
    39   56   22 1    
    40   72   23 1    
    41   25   24 1    
    42   31   24 1    
    43   57   24 1    
    44   73   25 1    
    45   33   26 ar   
    46   44   26 1    
    47   34   28 ar   
    48   49   28 1    
    49   30   29 1    
    50   35   29 1    
    51   58   29 1    
    52   32   31 1    
    53   37   31 1    
    54   59   31 1    
    55   39   33 ar   
    56   60   33 1    
    57   40   34 ar   
    58   43   34 1    
    59   36   35 1    
    60   61   35 1    
    61   62   35 1    
    62   38   37 1    
    63   63   37 1    
    64   64   37 1    
    65   42   39 ar   
    66   48   39 1    
    67   41   40 1    
    68   65   41 1    
    69   66   41 1    
    70   67   42 1    
    71   47   43 2    
    72   45   44 am   
    73   46   44 2    
    74   68   45 1    
    75   69   45 1    
    76   49   47 1    
    77   70   47 1    
    78   74   48 1    
@<TRIPOS>SUBSTRUCTURE
     1 NJP501      1 GROUP   
@<TRIPOS>SET

