#    Name: 1v0h_SHA_1_ligand
#    Modification time : Tue Mar 25 07:22:44 2014

@<TRIPOS>MOLECULE
1v0h_SHA_1_ligand
   18    18     1     0     0
SMALL
NO_CHARGES


@<TRIPOS>ATOM
      1 C1         14.0580   58.2030   14.9490 C.ar      1 SHA253      0.0000 
      2 C2         13.4680   59.4610   14.8620 C.ar      1 SHA253      0.0000 
      3 C3         12.7630   59.8600   13.7420 C.ar      1 SHA253      0.0000 
      4 C4         12.6160   58.9710   12.6690 C.ar      1 SHA253      0.0000 
      5 C5         13.1930   57.7050   12.6980 C.ar      1 SHA253      0.0000 
      6 C6         13.9030   57.2750   13.8050 C.ar      1 SHA253      0.0000 
      7 O6         14.4590   56.0620   13.8210 O.3       1 SHA253      0.0000 
      8 C7         14.8100   57.8490   16.2060 C.2       1 SHA253      0.0000 
      9 O7         15.0150   58.7780   16.9930 O.2       1 SHA253      0.0000 
     10 N8         15.2110   56.6060   16.4880 N.am      1 SHA253      0.0000 
     11 O9         15.7280   56.3130   17.6320 O.3       1 SHA253      0.0000 
     12 H          13.5630   60.1173   15.6662 H         1 SHA253      0.0000 
     13 H          12.3488   60.7947   13.6886 H         1 SHA253      0.0000 
     14 H          12.0678   59.2650   11.8422 H         1 SHA253      0.0000 
     15 H          13.0878   57.0800   11.8798 H         1 SHA253      0.0000 
     16 H          15.0926   55.8593   15.7409 H         1 SHA253      0.0000 
     17 H          14.6022   55.8304   12.8588 H         1 SHA253      0.0000 
     18 H          14.9791   56.4119   18.2873 H         1 SHA253      0.0000 
@<TRIPOS>BOND
     1    2    1 ar   
     2    6    1 ar   
     3    8    1 1    
     4    3    2 ar   
     5   12    2 1    
     6    4    3 ar   
     7   13    3 1    
     8    5    4 ar   
     9   14    4 1    
    10    6    5 ar   
    11   15    5 1    
    12    7    6 1    
    13   17    7 1    
    14    9    8 2    
    15   10    8 am   
    16   11   10 1    
    17   16   10 1    
    18   18   11 1    
@<TRIPOS>SUBSTRUCTURE
     1 SHA253      1 GROUP   
@<TRIPOS>SET

