#    Name: 4hy0_1AQ_2_INTS_M
#    Modification time : Tue Mar 25 01:58:32 2014

@<TRIPOS>MOLECULE
4hy0_1AQ_2_INTS_M
   92     0    12     0     0
SMALL
NO_CHARGES


@<TRIPOS>ATOM
      1 CA        -17.7515   -0.8455  -46.7880 C.3       4 GLC5        0.0000 
      2 CA        -19.7950   -0.6020  -46.8870 C.3      12 GLL5        0.0000 
      3 CA        -15.7080   -1.0890  -46.6890 C.3       8 GLP5        0.0000 
      4 CA        -20.7680    2.0180  -43.9505 C.3       4 GLC5        0.0000 
      5 CA        -20.5890    1.5360  -45.9940 C.3      12 GLL5        0.0000 
      6 CA        -20.9470    2.5000  -41.9070 C.3       8 GLP5        0.0000 
      7 CA        -21.2145    1.0360  -43.4130 C.3       4 GLC5        0.0000 
      8 CA        -21.7120    0.9410  -45.0910 C.3      12 GLL5        0.0000 
      9 CA        -20.7170    1.1310  -41.7350 C.3       8 GLP5        0.0000 
     10 CA        -22.5365    2.4855  -43.3815 C.3       4 GLC5        0.0000 
     11 CA        -22.8560    1.9770  -45.1280 C.3      12 GLL5        0.0000 
     12 CA        -22.2170    2.9940  -41.6350 C.3       8 GLP5        0.0000 
     13 CA        -23.7470    1.6920  -43.2260 C.3       4 GLC5        0.0000 
     14 CA        -24.2310    1.3170  -45.2640 C.3      12 GLL5        0.0000 
     15 CA        -23.2630    2.0670  -41.1880 C.3       8 GLP5        0.0000 
     16 CA        -22.8435    5.8320  -46.1770 C.3       4 GLC5        0.0000 
     17 CA        -23.4250    3.9320  -46.3800 C.3      12 GLL5        0.0000 
     18 CA        -22.2620    7.7320  -45.9740 C.3       8 GLP5        0.0000 
     19 O         -25.5930    5.5340  -47.8820 O.2       1 ALC1        0.0000 
     20 O         -25.5640    4.3240  -48.6980 O.2       9 ALL1        0.0000 
     21 O         -25.6220    6.7440  -47.0660 O.2       5 ALP1        0.0000 
     22 CA        -27.6520    3.3255  -49.1060 C.3       4 GLC5        0.0000 
     23 CA        -25.8810    4.1830  -50.1230 C.3      12 GLL5        0.0000 
     24 CA        -29.4230    2.4680  -48.0890 C.3       8 GLP5        0.0000 
     25 CA        -23.0470    2.4730  -50.5610 C.3       4 GLC5        0.0000 
     26 CA        -24.5780    3.8280  -50.8680 C.3      12 GLL5        0.0000 
     27 CA        -21.5160    1.1180  -50.2540 C.3       8 GLP5        0.0000 
     28 CA        -23.2160    5.8490  -52.7165 C.3       4 GLC5        0.0000 
     29 CA        -24.4510    4.5420  -52.2250 C.3      12 GLL5        0.0000 
     30 CA        -21.9810    7.1560  -53.2080 C.3       8 GLP5        0.0000 
     31 CA        -24.7585    4.0170  -53.8905 C.3       4 GLC5        0.0000 
     32 CA        -25.0660    3.4920  -55.5560 C.3       8 GLP5        0.0000 
     33 CA        -23.9310    6.7270  -52.3725 C.3       4 GLC5        0.0000 
     34 CA        -25.8810    6.2980  -51.5370 C.3      12 GLL5        0.0000 
     35 CA        -26.1505    5.2245  -53.4235 C.3       4 GLC5        0.0000 
     36 CA        -26.4200    4.1510  -55.3100 C.3       8 GLP5        0.0000 
     37 CA        -29.4905    6.7615  -52.0025 C.3       4 GLC5        0.0000 
     38 CA        -27.7080    7.8590  -51.4440 C.3      12 GLL5        0.0000 
     39 CA        -31.2730    5.6640  -52.5610 C.3       8 GLP5        0.0000 
     40 CA        -27.9585    6.1505  -47.9600 C.3       4 GLC5        0.0000 
     41 CA        -27.7410    5.8630  -50.0790 C.3      12 GLL5        0.0000 
     42 CA        -28.1760    6.4380  -45.8410 C.3       8 GLP5        0.0000 
     43 CA        -28.5820    4.1655  -49.0840 C.3       4 GLC5        0.0000 
     44 N         -28.5810    3.8040  -45.8665 N.am      2 SEC2        0.0000 
     45 N         -27.3940    3.0010  -45.5950 N.am     10 SEL2        0.0000 
     46 N         -29.7680    4.6070  -46.1380 N.am      6 SEP2        0.0000 
     47 O         -29.3760    1.8720  -44.3340 O.2       1 ALC1        0.0000 
     48 O         -28.2240    1.5200  -43.6740 O.2       9 ALL1        0.0000 
     49 O         -30.5280    2.2240  -44.9940 O.2       5 ALP1        0.0000 
     50 N         -25.7975    2.1480  -41.3345 N.am      2 SEC2        0.0000 
     51 N         -27.2120    1.5030  -41.6720 N.am     10 SEL2        0.0000 
     52 N         -24.3830    2.7930  -40.9970 N.am      6 SEP2        0.0000 
     53 CA        -28.8385    5.3145  -42.9865 C.3       4 GLC5        0.0000 
     54 CA        -29.4130    3.7810  -41.6130 C.3      12 GLL5        0.0000 
     55 CA        -28.2640    6.8480  -44.3600 C.3       8 GLP5        0.0000 
     56 CA        -30.7670    4.9085  -40.9640 C.3       4 GLC5        0.0000 
     57 CA        -32.1210    6.0360  -40.3150 C.3       8 GLP5        0.0000 
     58 CA        -28.9255    4.6520  -39.9035 C.3       4 GLC5        0.0000 
     59 CA        -28.4380    5.5230  -38.1940 C.3       8 GLP5        0.0000 
     60 OD1       -30.6910    1.9825  -39.5660 O.co2     3 ASC3        0.0000 
     61 OD1       -29.6280    1.6460  -40.3780 O.co2    11 ASL3        0.0000 
     62 OD1       -31.7540    2.3190  -38.7540 O.co2     7 ASP3        0.0000 
     63 OD1       -30.0690    1.3805  -38.8860 O.co2     3 ASC3        0.0000 
     64 OD1       -30.5100    1.1150  -37.3940 O.co2     7 ASP3        0.0000 
     65 CA        -30.4750   -1.0985  -39.2350 C.3       4 GLC5        0.0000 
     66 CA        -29.9100    0.1970  -40.4340 C.3      12 GLL5        0.0000 
     67 CA        -31.0400   -2.3940  -38.0360 C.3       8 GLP5        0.0000 
     68 CA        -28.5450    1.1795  -46.7205 C.3       4 GLC5        0.0000 
     69 CA        -27.6670   -0.1090  -45.3520 C.3      12 GLL5        0.0000 
     70 CA        -20.8825   -0.0047  -48.7335 C.3       4 GLC5        0.0000 
     71 CA        -20.7030   -1.6530  -47.5390 C.3      12 GLL5        0.0000 
     72 CA        -19.2978    3.0315  -46.5267 C.3       4 GLC5        0.0000 
     73 CA        -17.7260    3.8460  -46.8260 C.3       8 GLP5        0.0000 
     74 CA        -21.1927    1.6675  -48.2407 C.3       4 GLC5        0.0000 
     75 CA        -21.1500    2.8980  -46.4610 C.3      12 GLL5        0.0000 
     76 CA        -25.0800    4.8738  -45.0238 C.3       4 GLC5        0.0000 
     77 CA        -25.9920    6.0220  -43.6300 C.3       8 GLP5        0.0000 
     78 CA        -26.1960    7.8447  -49.9400 C.3       4 GLC5        0.0000 
     79 CA        -26.2130    8.7960  -48.1300 C.3       8 GLP5        0.0000 
     80 CA        -26.6713    9.4290  -52.0392 C.3       4 GLC5        0.0000 
     81 CA        -26.4770    7.4890  -51.9630 C.3      12 GLL5        0.0000 
     82 CA        -26.2500   11.1840  -52.3750 C.3       8 GLP5        0.0000 
     83 CA        -29.5640    8.7398  -51.6760 C.3       4 GLC5        0.0000 
     84 CA        -31.1080   10.0270  -52.3790 C.3       8 GLP5        0.0000 
     85 CA        -27.1165    8.1242  -49.5515 C.3       4 GLC5        0.0000 
     86 CA        -29.8693    6.0977  -50.6953 C.3       4 GLC5        0.0000 
     87 CA        -28.3320    7.0460  -50.5020 C.3      12 GLL5        0.0000 
     88 CA        -31.7020    5.7410  -51.1000 C.3       8 GLP5        0.0000 
     89 CA        -26.6690    7.2337  -49.2345 C.3       4 GLC5        0.0000 
     90 CA        -30.5975   -0.9325  -45.2160 C.3       4 GLC5        0.0000 
     91 CA        -28.4470   -1.1210  -44.4980 C.3      12 GLL5        0.0000 
     92 CA        -32.4320   -0.2130  -45.4800 C.3       8 GLP5        0.0000 
@<TRIPOS>BOND
@<TRIPOS>SUBSTRUCTURE
     1 ALC1       19 GROUP        1 X    ALC  0     ROOT ALC X 1
     2 SEC2       44 GROUP        1 X    SEC  0     **** SEC X 2
     3 ASC3       60 GROUP        1 X    ASC  0     **** ASC X 3
     4 GLC5        1 GROUP        1 X    GLC  0     **** GLC X 6
     5 ALP1       21 GROUP        1 Y    ALP  0     ROOT ALP Y 8
     6 SEP2       46 GROUP        1 Y    SEP  0     **** SEP Y 9
     7 ASP3       62 GROUP        1 Y    ASP  0     **** ASP Y 10
     8 GLP5        3 GROUP        1 Y    GLP  0     **** GLP Y 13
     9 ALL1       20 GROUP        1 Z    ALL  0     ROOT ALL Z 15
    10 SEL2       45 GROUP        1 Z    SEL  0     **** SEL Z 16
    11 ASL3       61 GROUP        1 Z    ASL  0     **** ASL Z 17
    12 GLL5        2 GROUP        1 Z    GLL  0     **** GLL Z 20
@<TRIPOS>SET

