#    Name: 4hy0_1AQ_2_ligand
#    Modification time : Tue Mar 25 01:58:32 2014

@<TRIPOS>MOLECULE
4hy0_1AQ_2_ligand
   88    92     1     0     0
SMALL
NO_CHARGES


@<TRIPOS>ATOM
      1 C1        -20.7030   -1.6530  -47.5390 C.3       1 1AQ403      0.0000 
      2 C2        -19.7950   -0.6020  -46.8870 C.3       1 1AQ403      0.0000 
      3 O3        -20.3140    0.7130  -47.1400 O.3       1 1AQ403      0.0000 
      4 C4        -20.5890    1.5360  -45.9940 C.3       1 1AQ403      0.0000 
      5 C6        -21.7120    0.9410  -45.0910 C.3       1 1AQ403      0.0000 
      6 C7        -22.8560    1.9770  -45.1280 C.3       1 1AQ403      0.0000 
      7 C9        -24.2310    1.3170  -45.2640 C.3       1 1AQ403      0.0000 
      8 N10       -25.2650    2.3230  -45.6400 N.am      1 1AQ403      0.0000 
      9 C11       -24.9110    3.5190  -46.4550 C.3       1 1AQ403      0.0000 
     10 C13       -23.4250    3.9320  -46.3800 C.3       1 1AQ403      0.0000 
     11 N14       -22.6020    2.7380  -46.3780 N.4       1 1AQ403      0.0000 
     12 C15       -21.1500    2.8980  -46.4610 C.3       1 1AQ403      0.0000 
     13 C16       -25.2340    3.2730  -47.9130 C.2       1 1AQ403      0.0000 
     14 O17       -25.1860    2.1480  -48.3730 O.2       1 1AQ403      0.0000 
     15 N18       -25.5640    4.3240  -48.6980 N.am      1 1AQ403      0.0000 
     16 C19       -25.8810    4.1830  -50.1230 C.3       1 1AQ403      0.0000 
     17 C21       -24.5780    3.8280  -50.8680 C.3       1 1AQ403      0.0000 
     18 C22       -24.4510    4.5420  -52.2250 C.3       1 1AQ403      0.0000 
     19 O23       -24.6780    5.9430  -52.0550 O.3       1 1AQ403      0.0000 
     20 C24       -25.8810    6.2980  -51.5370 C.ar      1 1AQ403      0.0000 
     21 C25       -26.4770    7.4890  -51.9630 C.ar      1 1AQ403      0.0000 
     22 C26       -27.7080    7.8590  -51.4440 C.ar      1 1AQ403      0.0000 
     23 C27       -28.3320    7.0460  -50.5020 C.ar      1 1AQ403      0.0000 
     24 C28       -27.7410    5.8630  -50.0790 C.ar      1 1AQ403      0.0000 
     25 C29       -26.5090    5.4800  -50.5990 C.ar      1 1AQ403      0.0000 
     26 C30       -26.5730    2.1640  -45.2680 C.2       1 1AQ403      0.0000 
     27 O31       -27.3940    3.0010  -45.5950 O.2       1 1AQ403      0.0000 
     28 C32       -27.1000    1.0050  -44.4540 C.3       1 1AQ403      0.0000 
     29 N34       -28.2240    1.5200  -43.6740 N.am      1 1AQ403      0.0000 
     30 C35       -28.2000    1.7340  -42.3450 C.2       1 1AQ403      0.0000 
     31 O36       -27.2120    1.5030  -41.6720 O.2       1 1AQ403      0.0000 
     32 C37       -29.4640    2.2550  -41.7100 C.3       1 1AQ403      0.0000 
     33 C39       -29.4130    3.7810  -41.6130 C.3       1 1AQ403      0.0000 
     34 N40       -29.6280    1.6460  -40.3780 N.4       1 1AQ403      0.0000 
     35 C41       -29.9100    0.1970  -40.4340 C.3       1 1AQ403      0.0000 
     36 C42       -27.6670   -0.1090  -45.3520 C.3       1 1AQ403      0.0000 
     37 C43       -26.5620   -0.8360  -46.1380 C.3       1 1AQ403      0.0000 
     38 C44       -27.1660   -1.9350  -47.0190 C.3       1 1AQ403      0.0000 
     39 C45       -27.9630   -2.9220  -46.1570 C.3       1 1AQ403      0.0000 
     40 F46       -28.5250   -3.8870  -46.9950 F         1 1AQ403      0.0000 
     41 F47       -27.1160   -3.5440  -45.2280 F         1 1AQ403      0.0000 
     42 C48       -29.0790   -2.1830  -45.4060 C.3       1 1AQ403      0.0000 
     43 C49       -28.4470   -1.1210  -44.4980 C.3       1 1AQ403      0.0000 
     44 H         -18.7897   -0.7267  -47.3017 H         1 1AQ403      0.0000 
     45 H         -19.7496   -0.8195  -45.8152 H         1 1AQ403      0.0000 
     46 H         -19.7422    1.7239  -45.3882 H         1 1AQ403      0.0000 
     47 H         -21.3472    0.8437  -44.0996 H         1 1AQ403      0.0000 
     48 H         -22.0445    0.0236  -45.5071 H         1 1AQ403      0.0000 
     49 H         -22.8060    2.5987  -44.2998 H         1 1AQ403      0.0000 
     50 H         -24.4886    0.8492  -44.3112 H         1 1AQ403      0.0000 
     51 H         -24.1690    0.5368  -46.0259 H         1 1AQ403      0.0000 
     52 H         -25.5048    4.3772  -46.1341 H         1 1AQ403      0.0000 
     53 H         -23.2872    4.5148  -45.4708 H         1 1AQ403      0.0000 
     54 H         -23.2116    4.5640  -47.2405 H         1 1AQ403      0.0000 
     55 H         -22.9245    2.0648  -47.2021 H         1 1AQ403      0.0000 
     56 H         -20.8282    3.0673  -47.4653 H         1 1AQ403      0.0000 
     57 H         -20.7972    3.6534  -45.7933 H         1 1AQ403      0.0000 
     58 H         -25.6081    5.2948  -48.3186 H         1 1AQ403      0.0000 
     59 H         -26.5814    3.3775  -50.2570 H         1 1AQ403      0.0000 
     60 H         -24.5461    2.7456  -51.0299 H         1 1AQ403      0.0000 
     61 H         -23.7246    4.1021  -50.2393 H         1 1AQ403      0.0000 
     62 H         -25.1797    4.0895  -52.9050 H         1 1AQ403      0.0000 
     63 H         -23.4491    4.3346  -52.6141 H         1 1AQ403      0.0000 
     64 H         -26.0037    8.0793  -52.6529 H         1 1AQ403      0.0000 
     65 H         -28.1596    8.7283  -51.7513 H         1 1AQ403      0.0000 
     66 H         -29.2480    7.3283  -50.1130 H         1 1AQ403      0.0000 
     67 H         -28.2116    5.2710  -49.3835 H         1 1AQ403      0.0000 
     68 H         -26.3538    0.6158  -43.8290 H         1 1AQ403      0.0000 
     69 H         -29.0975    1.7250  -44.2356 H         1 1AQ403      0.0000 
     70 H         -30.3014    1.9843  -42.3418 H         1 1AQ403      0.0000 
     71 H         -28.3571    0.3349  -46.0582 H         1 1AQ403      0.0000 
     72 H         -25.8615   -1.2804  -45.4380 H         1 1AQ403      0.0000 
     73 H         -26.0406   -0.1189  -46.7642 H         1 1AQ403      0.0000 
     74 H         -26.3687   -2.4663  -47.5269 H         1 1AQ403      0.0000 
     75 H         -27.8269   -1.4849  -47.7514 H         1 1AQ403      0.0000 
     76 H         -29.6320   -2.8871  -44.8035 H         1 1AQ403      0.0000 
     77 H         -29.7326   -1.7032  -46.1181 H         1 1AQ403      0.0000 
     78 H         -29.2265   -0.6033  -43.9544 H         1 1AQ403      0.0000 
     79 H         -27.7688   -1.5996  -43.8037 H         1 1AQ403      0.0000 
     80 H         -20.7668   -1.5260  -48.5289 H         1 1AQ403      0.0000 
     81 H         -20.3669   -2.5819  -47.3837 H         1 1AQ403      0.0000 
     82 H         -21.6347   -1.6142  -47.1779 H         1 1AQ403      0.0000 
     83 H         -28.6404    4.0924  -41.0596 H         1 1AQ403      0.0000 
     84 H         -29.3198    4.2074  -42.5127 H         1 1AQ403      0.0000 
     85 H         -30.2416    4.1545  -41.1960 H         1 1AQ403      0.0000 
     86 H         -29.1728   -0.3077  -40.8832 H         1 1AQ403      0.0000 
     87 H         -30.0199   -0.1955  -39.5209 H         1 1AQ403      0.0000 
     88 H         -30.7500    0.0014  -40.9402 H         1 1AQ403      0.0000 
@<TRIPOS>BOND
     1    2    1 1    
     2   80    1 1    
     3   81    1 1    
     4   82    1 1    
     5    3    2 1    
     6   44    2 1    
     7   45    2 1    
     8    4    3 1    
     9    5    4 1    
    10   12    4 1    
    11   46    4 1    
    12    6    5 1    
    13   47    5 1    
    14   48    5 1    
    15    7    6 1    
    16   11    6 1    
    17   49    6 1    
    18    8    7 1    
    19   50    7 1    
    20   51    7 1    
    21    9    8 1    
    22   26    8 am   
    23   10    9 1    
    24   13    9 1    
    25   52    9 1    
    26   11   10 1    
    27   53   10 1    
    28   54   10 1    
    29   12   11 1    
    30   55   11 1    
    31   56   12 1    
    32   57   12 1    
    33   14   13 2    
    34   15   13 am   
    35   16   15 1    
    36   58   15 1    
    37   17   16 1    
    38   25   16 1    
    39   59   16 1    
    40   18   17 1    
    41   60   17 1    
    42   61   17 1    
    43   19   18 1    
    44   62   18 1    
    45   63   18 1    
    46   20   19 1    
    47   21   20 ar   
    48   25   20 ar   
    49   22   21 ar   
    50   64   21 1    
    51   23   22 ar   
    52   65   22 1    
    53   24   23 ar   
    54   66   23 1    
    55   25   24 ar   
    56   67   24 1    
    57   27   26 2    
    58   28   26 1    
    59   29   28 1    
    60   36   28 1    
    61   68   28 1    
    62   30   29 am   
    63   69   29 1    
    64   31   30 2    
    65   32   30 1    
    66   33   32 1    
    67   34   32 1    
    68   70   32 1    
    69   83   33 1    
    70   84   33 1    
    71   85   33 1    
    72   35   34 1    
    73   86   35 1    
    74   87   35 1    
    75   88   35 1    
    76   37   36 1    
    77   43   36 1    
    78   71   36 1    
    79   38   37 1    
    80   72   37 1    
    81   73   37 1    
    82   39   38 1    
    83   74   38 1    
    84   75   38 1    
    85   40   39 1    
    86   41   39 1    
    87   42   39 1    
    88   43   42 1    
    89   76   42 1    
    90   77   42 1    
    91   78   43 1    
    92   79   43 1    
@<TRIPOS>SUBSTRUCTURE
     1 1AQ403      1 GROUP   
@<TRIPOS>SET

