#    Name: 1obb_NAD_2_INTS_M
#    Modification time : Mon Mar 24 19:53:58 2014

@<TRIPOS>MOLECULE
1obb_NAD_2_INTS_M
   80     0     9     0     0
SMALL
NO_CHARGES


@<TRIPOS>ATOM
      1 CA         16.9575   36.2250  -30.2340 C.3       3 GLC5        0.0000 
      2 CA         16.0300   36.5600  -32.1760 C.3       9 GLL5        0.0000 
      3 CA         17.8850   35.8900  -28.2920 C.3       6 GLP5        0.0000 
      4 CA         17.2920   38.7595  -34.0950 C.3       3 GLC5        0.0000 
      5 CA         16.7600   36.8940  -33.4630 C.3       9 GLL5        0.0000 
      6 CA         17.8240   40.6250  -34.7270 C.3       6 GLP5        0.0000 
      7 N          18.4425   37.4050  -31.4215 N.am      2 SEC2        0.0000 
      8 N          18.1580   37.1260  -33.0630 N.am      8 SEL2        0.0000 
      9 N          18.7270   37.6840  -29.7800 N.am      5 SEP2        0.0000 
     10 O          16.9680   37.0120  -36.4010 O.2       1 ALC1        0.0000 
     11 O          16.2640   36.0290  -35.7870 O.2       7 ALL1        0.0000 
     12 O          17.6720   37.9950  -37.0150 O.2       4 ALP1        0.0000 
     13 O          19.1780   35.8435  -36.6530 O.2       1 ALC1        0.0000 
     14 O          18.9030   34.9050  -35.8160 O.2       7 ALL1        0.0000 
     15 O          19.4530   36.7820  -37.4900 O.2       4 ALP1        0.0000 
     16 CA         18.3680   38.7140  -34.4595 C.3       3 GLC5        0.0000 
     17 CA         18.9120   36.8030  -34.1920 C.3       9 GLL5        0.0000 
     18 CA         19.3355   38.4630  -32.8965 C.3       3 GLC5        0.0000 
     19 CA         19.7590   40.1230  -31.6010 C.3       6 GLP5        0.0000 
     20 CA         23.2145   36.2835  -34.4140 C.3       3 GLC5        0.0000 
     21 CA         22.4140   37.4720  -33.4530 C.3       9 GLL5        0.0000 
     22 CA         24.0150   35.0950  -35.3750 C.3       6 GLP5        0.0000 
     23 CA         24.1095   37.9580  -35.3290 C.3       3 GLC5        0.0000 
     24 CA         23.5360   38.4160  -33.6160 C.3       9 GLL5        0.0000 
     25 CA         24.6830   37.5000  -37.0420 C.3       6 GLP5        0.0000 
     26 O          24.8330   39.8175  -33.3915 O.2       1 ALC1        0.0000 
     27 O          24.7420   38.1820  -33.1250 O.2       7 ALL1        0.0000 
     28 O          24.9240   41.4530  -33.6580 O.2       4 ALP1        0.0000 
     29 N          24.0765   40.5130  -33.9965 N.am      2 SEC2        0.0000 
     30 N          23.2290   39.5730  -34.3350 N.am      8 SEL2        0.0000 
     31 N          24.9240   41.4530  -33.6580 N.am      5 SEP2        0.0000 
     32 CA         21.6390   41.6460  -34.1065 C.3       3 GLC5        0.0000 
     33 CA         22.0280   39.8630  -34.8680 C.3       9 GLL5        0.0000 
     34 CA         21.2500   43.4290  -33.3450 C.3       6 GLP5        0.0000 
     35 CA         19.9260   40.2440  -34.7975 C.3       3 GLC5        0.0000 
     36 CA         22.2975   41.2255  -36.0295 C.3       3 GLC5        0.0000 
     37 CA         22.5670   42.5880  -37.1910 C.3       6 GLP5        0.0000 
     38 CA         21.2275   39.6925  -36.6600 C.3       3 GLC5        0.0000 
     39 CA         20.4270   39.5220  -38.4520 C.3       6 GLP5        0.0000 
     40 CA         23.3555   38.6815  -35.9550 C.3       3 GLC5        0.0000 
     41 CA         20.8935   39.9930  -33.2345 C.3       3 GLC5        0.0000 
     42 CA         19.4995   39.2190  -34.3775 C.3       3 GLC5        0.0000 
     43 CA         21.1750   37.8130  -34.0280 C.3       9 GLL5        0.0000 
     44 CA         22.1620   36.7015  -35.2785 C.3       3 GLC5        0.0000 
     45 CA         23.1490   35.5900  -36.5290 C.3       6 GLP5        0.0000 
     46 N          12.2370   37.2205  -31.8375 N.am      2 SEC2        0.0000 
     47 N          12.5280   35.9350  -31.2510 N.am      8 SEL2        0.0000 
     48 N          11.9460   38.5060  -32.4240 N.am      5 SEP2        0.0000 
     49 N          15.9820   39.1990  -24.8170 N.am      2 SEC2        0.0000 
     50 N          16.0730   38.0030  -25.6440 N.am      8 SEL2        0.0000 
     51 N          15.8910   40.3950  -23.9900 N.am      5 SEP2        0.0000 
     52 N          13.2255   37.9945  -23.3535 N.am      2 SEC2        0.0000 
     53 N          13.6720   37.1350  -24.3950 N.am      8 SEL2        0.0000 
     54 N          12.7790   38.8540  -22.3120 N.am      5 SEP2        0.0000 
     55 O          12.8860   36.1260  -24.1345 O.2       1 ALC1        0.0000 
     56 O          13.6720   37.1350  -24.3950 O.2       7 ALL1        0.0000 
     57 O          12.1000   35.1170  -23.8740 O.2       4 ALP1        0.0000 
     58 CA         14.5240   40.3080  -26.0650 C.3       3 GLC5        0.0000 
     59 CA         13.1670   38.8800  -26.1060 C.3       9 GLL5        0.0000 
     60 CA         15.8810   41.7360  -26.0240 C.3       6 GLP5        0.0000 
     61 O          11.9945   42.9095  -25.0030 O.2       1 ALC1        0.0000 
     62 O          10.5910   43.0790  -24.6790 O.2       7 ALL1        0.0000 
     63 O          13.3980   42.7400  -25.3270 O.2       4 ALP1        0.0000 
     64 O          10.6515   44.6620  -24.4195 O.2       1 ALC1        0.0000 
     65 O          10.7120   46.2450  -24.1600 O.2       4 ALP1        0.0000 
     66 CA         14.5650   37.7960  -33.1797 C.3       3 GLC5        0.0000 
     67 CA         12.7350   38.8650  -33.5400 C.3       6 GLP5        0.0000 
     68 CA         17.4110   38.2690  -31.8638 C.3       3 GLC5        0.0000 
     69 CA         18.4270   39.8110  -30.9080 C.3       6 GLP5        0.0000 
     70 CA         20.7767   38.8828  -32.6707 C.3       3 GLC5        0.0000 
     71 CA         16.3208   36.8405  -28.3088 C.3       3 GLC5        0.0000 
     72 CA         14.6730   37.3700  -28.9230 C.3       9 GLL5        0.0000 
     73 CA         15.4118   39.7687  -26.5530 C.3       3 GLC5        0.0000 
     74 CA         14.8400   38.2120  -27.7280 C.3       9 GLL5        0.0000 
     75 CA         15.2062   35.9232  -25.8000 C.3       3 GLC5        0.0000 
     76 CA         15.0450   37.3910  -26.4360 C.3       9 GLL5        0.0000 
     77 CA         16.0630   34.4360  -25.5030 C.3       6 GLP5        0.0000 
     78 CA         14.2698   38.5995  -24.0300 C.3       3 GLC5        0.0000 
     79 CA         13.6540   37.4300  -25.7580 C.3       9 GLL5        0.0000 
     80 CA         15.1290   39.0440  -22.1280 C.3       6 GLP5        0.0000 
@<TRIPOS>BOND
@<TRIPOS>SUBSTRUCTURE
     1 ALC1       10 GROUP        1 X    ALC  0     ROOT ALC X 1
     2 SEC2        7 GROUP        1 X    SEC  0     **** SEC X 2
     3 GLC5        1 GROUP        1 X    GLC  0     **** GLC X 6
     4 ALP1       12 GROUP        1 Y    ALP  0     ROOT ALP Y 8
     5 SEP2        9 GROUP        1 Y    SEP  0     **** SEP Y 9
     6 GLP5        3 GROUP        1 Y    GLP  0     **** GLP Y 13
     7 ALL1       11 GROUP        1 Z    ALL  0     ROOT ALL Z 15
     8 SEL2        8 GROUP        1 Z    SEL  0     **** SEL Z 16
     9 GLL5        2 GROUP        1 Z    GLL  0     **** GLL Z 20
@<TRIPOS>SET

