#    Name: 1obb_NAD_2_ligand
#    Modification time : Mon Mar 24 19:53:58 2014

@<TRIPOS>MOLECULE
1obb_NAD_2_ligand
   70    74     1     0     0
SMALL
NO_CHARGES


@<TRIPOS>ATOM
      1 PA         15.2050   34.3060  -31.4000 P.3       1 NAD500      0.0000 
      2 O1A        16.5290   33.7270  -31.0640 O.co2     1 NAD500      0.0000 
      3 O2A        14.3210   33.2400  -31.9570 O.co2     1 NAD500      0.0000 
      4 O5B        15.2990   35.3720  -32.5090 O.3       1 NAD500      0.0000 
      5 C5B        16.0300   36.5600  -32.1760 C.3       1 NAD500      0.0000 
      6 C4B        16.7600   36.8940  -33.4630 C.3       1 NAD500      0.0000 
      7 O4B        18.1580   37.1260  -33.0630 O.3       1 NAD500      0.0000 
      8 C3B        16.8910   35.7010  -34.5140 C.3       1 NAD500      0.0000 
      9 O3B        16.2640   36.0290  -35.7870 O.3       1 NAD500      0.0000 
     10 C2B        18.3910   35.4240  -34.6180 C.3       1 NAD500      0.0000 
     11 O2B        18.9030   34.9050  -35.8160 O.3       1 NAD500      0.0000 
     12 C1B        18.9120   36.8030  -34.1920 C.3       1 NAD500      0.0000 
     13 N9A        20.2860   36.7880  -33.7520 N.pl3     1 NAD500      0.0000 
     14 C8A        21.0500   35.8800  -33.0190 C.2       1 NAD500      0.0000 
     15 N7A        22.2900   36.2780  -32.8450 N.2       1 NAD500      0.0000 
     16 C5A        22.4140   37.4720  -33.4530 C.ar      1 NAD500      0.0000 
     17 C6A        23.5360   38.4160  -33.6160 C.ar      1 NAD500      0.0000 
     18 N6A        24.7420   38.1820  -33.1250 N.pl3     1 NAD500      0.0000 
     19 N1A        23.2290   39.5730  -34.3350 N.ar      1 NAD500      0.0000 
     20 C2A        22.0280   39.8630  -34.8680 C.ar      1 NAD500      0.0000 
     21 N3A        20.9380   38.9920  -34.7420 N.ar      1 NAD500      0.0000 
     22 C4A        21.1750   37.8130  -34.0280 C.ar      1 NAD500      0.0000 
     23 O3         14.4930   34.9170  -30.1190 O.3       1 NAD500      0.0000 
     24 PN         12.9970   35.5430  -29.8840 P.3       1 NAD500      0.0000 
     25 O1N        12.2500   34.5760  -29.0760 O.co2     1 NAD500      0.0000 
     26 O2N        12.5280   35.9350  -31.2510 O.co2     1 NAD500      0.0000 
     27 O5D        13.3170   36.8470  -28.9920 O.3       1 NAD500      0.0000 
     28 C5D        14.6730   37.3700  -28.9230 C.3       1 NAD500      0.0000 
     29 C4D        14.8400   38.2120  -27.7280 C.3       1 NAD500      0.0000 
     30 O4D        13.6170   39.0500  -27.4750 O.3       1 NAD500      0.0000 
     31 C3D        15.0450   37.3910  -26.4360 C.3       1 NAD500      0.0000 
     32 O3D        16.0730   38.0030  -25.6440 O.3       1 NAD500      0.0000 
     33 C2D        13.6540   37.4300  -25.7580 C.3       1 NAD500      0.0000 
     34 O2D        13.6720   37.1350  -24.3950 O.3       1 NAD500      0.0000 
     35 C1D        13.1670   38.8800  -26.1060 C.3       1 NAD500      0.0000 
     36 N1N        11.6740   39.1090  -26.0830 N.pl3     1 NAD500      0.0000 
     37 C2N        11.2890   40.4120  -25.5830 C.ar      1 NAD500      0.0000 
     38 C3N        10.0240   40.8360  -25.6280 C.ar      1 NAD500      0.0000 
     39 C7N         9.6410   42.2310  -25.1140 C.2       1 NAD500      0.0000 
     40 O7N         8.4360   42.5770  -25.1240 O.2       1 NAD500      0.0000 
     41 N7N        10.5910   43.0790  -24.6790 N.am      1 NAD500      0.0000 
     42 C4N         8.9470   39.9180  -26.2110 C.ar      1 NAD500      0.0000 
     43 C5N         9.3500   38.5520  -26.7200 C.ar      1 NAD500      0.0000 
     44 C6N        10.7290   38.1830  -26.6380 C.ar      1 NAD500      0.0000 
     45 H          16.7544   36.3845  -31.4068 H         1 NAD500      0.0000 
     46 H          15.3813   37.3756  -31.9284 H         1 NAD500      0.0000 
     47 H          16.3764   37.7315  -33.9391 H         1 NAD500      0.0000 
     48 H          16.4278   34.8458  -34.0376 H         1 NAD500      0.0000 
     49 H          18.6114   34.7769  -33.7310 H         1 NAD500      0.0000 
     50 H          18.7470   37.4891  -34.9768 H         1 NAD500      0.0000 
     51 H          20.6575   35.0316  -32.6821 H         1 NAD500      0.0000 
     52 H          25.4304   38.8874  -33.2940 H         1 NAD500      0.0000 
     53 H          24.8559   37.3209  -32.6294 H         1 NAD500      0.0000 
     54 H          21.8803   40.7549  -35.3939 H         1 NAD500      0.0000 
     55 H          14.8972   37.9627  -29.8242 H         1 NAD500      0.0000 
     56 H          15.3981   36.5411  -28.8926 H         1 NAD500      0.0000 
     57 H          15.6860   38.8733  -27.8269 H         1 NAD500      0.0000 
     58 H          15.2523   36.3943  -26.7194 H         1 NAD500      0.0000 
     59 H          13.0203   36.7681  -26.3519 H         1 NAD500      0.0000 
     60 H          13.6776   39.5634  -25.4752 H         1 NAD500      0.0000 
     61 H          12.0541   40.9976  -25.1873 H         1 NAD500      0.0000 
     62 H          11.5360   42.7646  -24.7689 H         1 NAD500      0.0000 
     63 H          10.2672   43.9479  -24.3047 H         1 NAD500      0.0000 
     64 H           8.0187   40.2163  -26.2501 H         1 NAD500      0.0000 
     65 H           8.6524   37.9593  -27.0916 H         1 NAD500      0.0000 
     66 H          11.0372   37.2792  -26.9672 H         1 NAD500      0.0000 
     67 H          16.8356   36.7500  -36.1787 H         1 NAD500      0.0000 
     68 H          18.6278   35.5597  -36.5200 H         1 NAD500      0.0000 
     69 H          16.3922   37.2802  -25.0311 H         1 NAD500      0.0000 
     70 H          13.5218   36.1478  -24.3420 H         1 NAD500      0.0000 
@<TRIPOS>BOND
     1    2    1 ar   
     2    3    1 ar   
     3    4    1 1    
     4   23    1 1    
     5    5    4 1    
     6    6    5 1    
     7   45    5 1    
     8   46    5 1    
     9    7    6 1    
    10    8    6 1    
    11   47    6 1    
    12   12    7 1    
    13    9    8 1    
    14   10    8 1    
    15   48    8 1    
    16   67    9 1    
    17   11   10 1    
    18   12   10 1    
    19   49   10 1    
    20   68   11 1    
    21   13   12 1    
    22   50   12 1    
    23   14   13 1    
    24   22   13 1    
    25   15   14 2    
    26   51   14 1    
    27   16   15 1    
    28   17   16 ar   
    29   22   16 ar   
    30   18   17 1    
    31   19   17 ar   
    32   52   18 1    
    33   53   18 1    
    34   20   19 ar   
    35   21   20 ar   
    36   54   20 1    
    37   22   21 ar   
    38   24   23 1    
    39   25   24 ar   
    40   26   24 ar   
    41   27   24 1    
    42   28   27 1    
    43   29   28 1    
    44   55   28 1    
    45   56   28 1    
    46   30   29 1    
    47   31   29 1    
    48   57   29 1    
    49   35   30 1    
    50   32   31 1    
    51   33   31 1    
    52   58   31 1    
    53   69   32 1    
    54   34   33 1    
    55   35   33 1    
    56   59   33 1    
    57   70   34 1    
    58   36   35 1    
    59   60   35 1    
    60   37   36 ar   
    61   44   36 ar   
    62   38   37 ar   
    63   61   37 1    
    64   39   38 1    
    65   42   38 ar   
    66   40   39 2    
    67   41   39 am   
    68   62   41 1    
    69   63   41 1    
    70   43   42 ar   
    71   64   42 1    
    72   44   43 ar   
    73   65   43 1    
    74   66   44 1    
@<TRIPOS>SUBSTRUCTURE
     1 NAD500      1 GROUP   
@<TRIPOS>SET

