#    Name: 2VZE_1_CAVITY_N1_6.mol2
#    Modification time : Mon Mar 10 18:23:55 2014

@<TRIPOS>MOLECULE
2VZE_1_CAVITY_N1_6.mol2
    3     0     3     0     0
SMALL
NO_CHARGES


@<TRIPOS>ATOM
      1 CA        -19.9510   38.7485    4.9377 C.3       3 GLY6        0.0000 
      2 CZ        -19.8589   38.8093    2.8193 C.ar      2 PHE5        0.0000 
      3 NZ        -17.2668   38.6717    2.9280 N.2       1 LYS4        0.0000 
@<TRIPOS>BOND
@<TRIPOS>SUBSTRUCTURE
     1 LYS4        3 GROUP   
     2 PHE5        2 GROUP   
     3 GLY6        1 GROUP   
@<TRIPOS>SET

