#    Name: 2VZE_1_CAVITY_N1_ALL.mol2
#    Modification time : Mon Mar 10 18:23:55 2014

@<TRIPOS>MOLECULE
2VZE_1_CAVITY_N1_ALL.mol2
   38     0     6     0     0
SMALL
NO_CHARGES


@<TRIPOS>ATOM
      1 CZ        -14.6746   38.5342    3.0367 C.ar      4 PHE5        0.0000 
      2 CZ        -15.5531   39.1609    4.0786 C.ar      4 PHE5        0.0000 
      3 CZ        -16.4315   39.7876    5.1205 C.ar      4 PHE5        0.0000 
      4 OG        -17.3100   40.4144    6.1624 O.2       1 SER1        0.0000 
      5 CA        -18.1884   41.0411    7.2043 C.3       5 GLY6        0.0000 
      6 CZ        -15.4610   39.2217    1.9602 C.ar      4 PHE5        0.0000 
      7 CZ        -16.3394   39.8484    3.0021 C.ar      4 PHE5        0.0000 
      8 CA        -17.2179   40.4751    4.0440 C.3       5 GLY6        0.0000 
      9 O         -18.0963   41.1019    5.0858 O.2       2 ALA2        0.0000 
     10 O         -18.9748   41.7286    6.1277 O.2       2 ALA2        0.0000 
     11 CZ        -14.5336   40.3983    2.0342 C.ar      4 PHE5        0.0000 
     12 CA        -15.4121   41.0251    3.0761 C.3       5 GLY6        0.0000 
     13 CZ        -13.6984   41.5142    4.2268 C.ar      4 PHE5        0.0000 
     14 DU        -14.5768   42.1410    5.2686 H         6 CUB7        0.0000 
     15 DU        -15.4553   42.7677    6.3105 H         6 CUB7        0.0000 
     16 CA        -16.3337   43.3944    7.3524 C.3       5 GLY6        0.0000 
     17 CA        -15.3632   42.8285    4.1921 C.3       5 GLY6        0.0000 
     18 CA        -16.2416   43.4552    5.2340 C.3       5 GLY6        0.0000 
     19 CA        -19.9510   38.7485    4.9377 C.3       5 GLY6        0.0000 
     20 CZ        -19.8589   38.8093    2.8193 C.ar      4 PHE5        0.0000 
     21 NZ        -17.3589   38.6110    5.0464 N.2       3 LYS4        0.0000 
     22 NZ        -18.2373   39.2377    6.0883 N.2       3 LYS4        0.0000 
     23 OG        -19.1158   39.8644    7.1302 O.2       1 SER1        0.0000 
     24 NZ        -17.2668   38.6717    2.9280 N.2       3 LYS4        0.0000 
     25 NZ        -18.1452   39.2985    3.9699 N.2       3 LYS4        0.0000 
     26 O         -19.0237   39.9252    5.0118 O.2       2 ALA2        0.0000 
     27 CZ        -13.7473   39.7108    3.1108 C.ar      4 PHE5        0.0000 
     28 CZ        -14.6257   40.3376    4.1527 C.ar      4 PHE5        0.0000 
     29 CA        -15.5042   40.9643    5.1946 C.3       5 GLY6        0.0000 
     30 CA        -16.3826   41.5910    6.2365 C.3       5 GLY6        0.0000 
     31 CA        -17.2611   42.2178    7.2784 C.3       5 GLY6        0.0000 
     32 CZ        -14.7178   40.2768    6.2711 C.ar      4 PHE5        0.0000 
     33 CZ        -15.5963   40.9035    7.3130 C.ar      4 PHE5        0.0000 
     34 CZ        -13.7905   41.4535    6.3452 C.ar      4 PHE5        0.0000 
     35 CA        -14.6689   42.0802    7.3871 C.3       5 GLY6        0.0000 
     36 CA        -17.1690   42.2785    5.1599 C.3       5 GLY6        0.0000 
     37 N         -18.0474   42.9053    6.2018 N.2       2 ALA2        0.0000 
     38 OG        -16.5236   39.7269    7.2390 O.2       1 SER1        0.0000 
@<TRIPOS>BOND
@<TRIPOS>SUBSTRUCTURE
     1 SER1        4 GROUP   
     2 ALA2        9 GROUP   
     3 LYS4       21 GROUP   
     4 PHE5        1 GROUP   
     5 GLY6        5 GROUP   
     6 CUB7       14 GROUP   
@<TRIPOS>SET

