#    Name: 2vze_AMP_1_INTS_M
#    Modification time : Tue Mar 25 03:23:07 2014

@<TRIPOS>MOLECULE
2vze_AMP_1_INTS_M
   61     0    12     0     0
SMALL
NO_CHARGES


@<TRIPOS>ATOM
      1 N         -28.4205   32.5500   -1.8465 N.am      2 SEC2        0.0000 
      2 N         -28.4240   34.0070   -1.7330 N.am     10 SEL2        0.0000 
      3 N         -28.4170   31.0930   -1.9600 N.am      6 SEP2        0.0000 
      4 NZ        -30.0135   36.5610    0.6260 N.4       3 LYC4        0.0000 
      5 NZ        -29.6550   35.5840   -0.2520 N.4      11 LYL4        0.0000 
      6 NZ        -30.2960   37.8440    2.7910 N.4       7 LYP4        0.0000 
      7 N         -30.4545   36.0200   -1.3315 N.am      2 SEC2        0.0000 
      8 N         -29.6550   35.5840   -0.2520 N.am     10 SEL2        0.0000 
      9 N         -31.2540   36.4560   -2.4110 N.am      6 SEP2        0.0000 
     10 N         -30.8855   35.0035   -0.4525 N.am      2 SEC2        0.0000 
     11 N         -32.1160   34.4230   -0.6530 N.am      6 SEP2        0.0000 
     12 N         -30.0135   36.5610    0.6260 N.am      2 SEC2        0.0000 
     13 N         -30.3720   37.5380    1.5040 N.am      6 SEP2        0.0000 
     14 CA        -27.9255   36.1765    1.2465 C.3       4 GLC5        0.0000 
     15 CA        -26.9830   36.4740   -0.6970 C.3      12 GLL5        0.0000 
     16 CA        -28.8680   35.8790    3.1900 C.3       8 GLP5        0.0000 
     17 CA        -27.2315   38.5345   -1.4940 C.3       4 GLC5        0.0000 
     18 CA        -25.3030   38.4580   -0.8150 C.3      12 GLL5        0.0000 
     19 CA        -29.1600   38.6110   -2.1730 C.3       8 GLP5        0.0000 
     20 N         -27.3795   40.3645   -0.5025 N.am      2 SEC2        0.0000 
     21 N         -25.9380   39.6480   -0.3050 N.am     10 SEL2        0.0000 
     22 N         -28.8210   41.0810   -0.7000 N.am      6 SEP2        0.0000 
     23 O         -24.6080   40.5930    0.1895 O.2       1 ALC1        0.0000 
     24 O         -25.9380   39.6480   -0.3050 O.2       9 ALL1        0.0000 
     25 O         -23.2780   41.5380    0.6840 O.2       5 ALP1        0.0000 
     26 O         -25.1765   40.6980   -0.7515 O.2       1 ALC1        0.0000 
     27 O         -24.4150   41.7480   -1.1980 O.2       5 ALP1        0.0000 
     28 O         -23.4205   40.2600    0.7155 O.2       1 ALC1        0.0000 
     29 O         -23.5630   38.9820    0.7470 O.2       9 ALL1        0.0000 
     30 O         -23.9890   40.3650   -0.2255 O.2       1 ALC1        0.0000 
     31 N         -22.7110   34.5430   -4.4020 N.am      2 SEC2        0.0000 
     32 N         -22.7890   36.1490   -4.2000 N.am     10 SEL2        0.0000 
     33 N         -22.6330   32.9370   -4.6040 N.am      6 SEP2        0.0000 
     34 CA        -22.2985   34.6905   -3.5235 C.3       4 GLC5        0.0000 
     35 CA        -21.6000   36.6750   -3.8560 C.3      12 GLL5        0.0000 
     36 CA        -22.9970   32.7060   -3.1910 C.3       8 GLP5        0.0000 
     37 CA        -22.5255   37.1690   -5.7720 C.3       4 GLC5        0.0000 
     38 CA        -23.4510   37.6630   -7.6880 C.3       8 GLP5        0.0000 
     39 CA        -18.4700   36.2995   -3.7510 C.3       4 GLC5        0.0000 
     40 CA        -20.2970   36.9400   -4.5080 C.3      12 GLL5        0.0000 
     41 CA        -16.6430   35.6590   -2.9940 C.3       8 GLP5        0.0000 
     42 CA        -21.4505   37.9310   -5.9895 C.3       4 GLC5        0.0000 
     43 CA        -22.6040   38.9220   -7.4710 C.3       8 GLP5        0.0000 
     44 CA        -20.0510   38.7220   -5.4045 C.3       4 GLC5        0.0000 
     45 CA        -19.8050   40.5040   -6.3010 C.3       8 GLP5        0.0000 
     46 O         -18.6930   36.5075   -6.1815 O.2       1 ALC1        0.0000 
     47 O         -20.0700   36.6170   -5.7860 O.2       9 ALL1        0.0000 
     48 O         -17.3160   36.3980   -6.5770 O.2       5 ALP1        0.0000 
     49 O         -20.8490   36.1125   -6.9670 O.2       1 ALC1        0.0000 
     50 O         -21.6280   35.6080   -8.1480 O.2       5 ALP1        0.0000 
     51 CA        -19.5805   35.7560   -2.1475 C.3       4 GLC5        0.0000 
     52 CA        -19.5250   37.8490   -2.4790 C.3      12 GLL5        0.0000 
     53 CA        -19.6360   33.6630   -1.8160 C.3       8 GLP5        0.0000 
     54 CA        -18.0840   36.7540   -2.7365 C.3       4 GLC5        0.0000 
     55 CA        -18.4590   39.6015   -2.8660 C.3       4 GLC5        0.0000 
     56 CA        -17.3930   41.3540   -3.2530 C.3       8 GLP5        0.0000 
     57 CA        -27.7570   37.7047   -1.3025 C.3       4 GLC5        0.0000 
     58 CA        -25.7250   37.1230   -0.1670 C.3      12 GLL5        0.0000 
     59 CA        -23.9413   39.5307   -2.4018 C.3       4 GLC5        0.0000 
     60 CA        -23.3140   40.6020   -4.1200 C.3       8 GLP5        0.0000 
     61 CA        -20.4874   35.2974   -2.5637 C.3       4 GLC5        0.0000 
@<TRIPOS>BOND
@<TRIPOS>SUBSTRUCTURE
     1 ALC1       23 GROUP        1 X    ALC  0     ROOT ALC X 1
     2 SEC2        1 GROUP        1 X    SEC  0     **** SEC X 2
     3 LYC4        4 GROUP        1 X    LYC  0     **** LYC X 4
     4 GLC5       14 GROUP        1 X    GLC  0     **** GLC X 6
     5 ALP1       25 GROUP        1 Y    ALP  0     ROOT ALP Y 8
     6 SEP2        3 GROUP        1 Y    SEP  0     **** SEP Y 9
     7 LYP4        6 GROUP        1 Y    LYP  0     **** LYP Y 11
     8 GLP5       16 GROUP        1 Y    GLP  0     **** GLP Y 13
     9 ALL1       24 GROUP        1 Z    ALL  0     ROOT ALL Z 15
    10 SEL2        2 GROUP        1 Z    SEL  0     **** SEL Z 16
    11 LYL4        5 GROUP        1 Z    LYL  0     **** LYL Z 18
    12 GLL5       15 GROUP        1 Z    GLL  0     **** GLL Z 20
@<TRIPOS>SET

