#    Name: 2vze_AMP_1_ligand
#    Modification time : Tue Mar 25 03:23:07 2014

@<TRIPOS>MOLECULE
2vze_AMP_1_ligand
   35    37     1     0     0
SMALL
NO_CHARGES


@<TRIPOS>ATOM
      1 P         -28.6170   34.4990   -0.3170 P.3       1 AMP1570     0.0000 
      2 O1P       -28.7390   33.4000    0.7040 O.co2     1 AMP1570     0.0000 
      3 O2P       -28.4240   34.0070   -1.7330 O.co2     1 AMP1570     0.0000 
      4 O3P       -29.6550   35.5840   -0.2520 O.co2     1 AMP1570     0.0000 
      5 O5'       -27.2500   35.2760    0.0290 O.3       1 AMP1570     0.0000 
      6 C5'       -26.9830   36.4740   -0.6970 C.3       1 AMP1570     0.0000 
      7 C4'       -25.7250   37.1230   -0.1670 C.3       1 AMP1570     0.0000 
      8 O4'       -24.6820   36.2220   -0.4480 O.3       1 AMP1570     0.0000 
      9 C3'       -25.3030   38.4580   -0.8150 C.3       1 AMP1570     0.0000 
     10 O3'       -25.9380   39.6480   -0.3050 O.3       1 AMP1570     0.0000 
     11 C2'       -23.8340   38.4610   -0.5520 C.3       1 AMP1570     0.0000 
     12 O2'       -23.5630   38.9820    0.7470 O.3       1 AMP1570     0.0000 
     13 C1'       -23.4990   36.9760   -0.6840 C.3       1 AMP1570     0.0000 
     14 N9        -22.9640   36.7160   -2.0560 N.pl3     1 AMP1570     0.0000 
     15 C8        -23.6010   36.1760   -3.1030 C.2       1 AMP1570     0.0000 
     16 N7        -22.7890   36.1490   -4.2000 N.2       1 AMP1570     0.0000 
     17 C5        -21.6000   36.6750   -3.8560 C.ar      1 AMP1570     0.0000 
     18 C6        -20.2970   36.9400   -4.5080 C.ar      1 AMP1570     0.0000 
     19 N6        -20.0700   36.6170   -5.7860 N.pl3     1 AMP1570     0.0000 
     20 N1        -19.3280   37.5140   -3.7710 N.ar      1 AMP1570     0.0000 
     21 C2        -19.5250   37.8490   -2.4790 C.ar      1 AMP1570     0.0000 
     22 N3        -20.6810   37.6450   -1.8240 N.ar      1 AMP1570     0.0000 
     23 C4        -21.7290   37.0560   -2.4410 C.ar      1 AMP1570     0.0000 
     24 H         -27.8054   37.1953   -0.6019 H         1 AMP1570     0.0000 
     25 H         -26.8392   36.2739   -1.7670 H         1 AMP1570     0.0000 
     26 H         -25.8098   37.2674    0.8945 H         1 AMP1570     0.0000 
     27 H         -25.4317   38.3375   -1.8849 H         1 AMP1570     0.0000 
     28 H         -23.3514   38.9792   -1.3393 H         1 AMP1570     0.0000 
     29 H         -22.7358   36.7494    0.0425 H         1 AMP1570     0.0000 
     30 H         -24.5217   35.8424   -3.0971 H         1 AMP1570     0.0000 
     31 H         -20.8351   36.2008   -6.2773 H         1 AMP1570     0.0000 
     32 H         -19.1556   36.8207   -6.1356 H         1 AMP1570     0.0000 
     33 H         -18.7159   38.3015   -1.9487 H         1 AMP1570     0.0000 
     34 H         -25.3507   40.4015   -0.6005 H         1 AMP1570     0.0000 
     35 H         -23.9535   39.9026    0.7432 H         1 AMP1570     0.0000 
@<TRIPOS>BOND
     1    2    1 ar   
     2    3    1 ar   
     3    4    1 ar   
     4    5    1 1    
     5    6    5 1    
     6    7    6 1    
     7   24    6 1    
     8   25    6 1    
     9    8    7 1    
    10    9    7 1    
    11   26    7 1    
    12   13    8 1    
    13   10    9 1    
    14   11    9 1    
    15   27    9 1    
    16   34   10 1    
    17   12   11 1    
    18   13   11 1    
    19   28   11 1    
    20   35   12 1    
    21   14   13 1    
    22   29   13 1    
    23   15   14 1    
    24   23   14 1    
    25   16   15 2    
    26   30   15 1    
    27   17   16 1    
    28   18   17 ar   
    29   23   17 ar   
    30   19   18 1    
    31   20   18 ar   
    32   31   19 1    
    33   32   19 1    
    34   21   20 ar   
    35   22   21 ar   
    36   33   21 1    
    37   23   22 ar   
@<TRIPOS>SUBSTRUCTURE
     1 AMP1570     1 GROUP   
@<TRIPOS>SET

