#    Name: 3dho_B2M_3_INTS_M
#    Modification time : Mon Mar 24 23:27:27 2014

@<TRIPOS>MOLECULE
3dho_B2M_3_INTS_M
   61     0     6     0     0
SMALL
NO_CHARGES


@<TRIPOS>ATOM
      1 CA         30.5420   78.5445   45.2430 C.3       2 GLC5        0.0000 
      2 CA         31.7660   76.8700   44.8530 C.3       6 GLL5        0.0000 
      3 CA         29.3180   80.2190   45.6330 C.3       4 GLP5        0.0000 
      4 CA         32.2480   77.4915   43.1070 C.3       2 GLC5        0.0000 
      5 CA         32.7300   78.1130   41.3610 C.3       4 GLP5        0.0000 
      6 CA         29.6525   74.8580   45.7955 C.3       2 GLC5        0.0000 
      7 CA         31.2890   75.4780   44.4260 C.3       6 GLL5        0.0000 
      8 CA         28.0160   74.2380   47.1650 C.3       4 GLP5        0.0000 
      9 CA         27.7200   74.8275   44.7755 C.3       2 GLC5        0.0000 
     10 CA         28.2340   74.0360   43.1370 C.3       6 GLL5        0.0000 
     11 CA         27.2060   75.6190   46.4140 C.3       4 GLP5        0.0000 
     12 CA         26.2500   70.6960   43.0390 C.3       2 GLC5        0.0000 
     13 CA         27.9040   69.9830   42.2560 C.3       6 GLL5        0.0000 
     14 CA         24.5960   71.4090   43.8220 C.3       4 GLP5        0.0000 
     15 CA         27.7245   69.6945   40.5125 C.3       2 GLC5        0.0000 
     16 CA         27.5450   69.4060   38.7690 C.3       4 GLP5        0.0000 
     17 CA         28.3070   69.2325   44.1250 C.3       2 GLC5        0.0000 
     18 CA         28.7100   68.4820   45.9940 C.3       4 GLP5        0.0000 
     19 CA         29.3965   68.5295   42.3230 C.3       2 GLC5        0.0000 
     20 CA         30.8890   67.0760   42.3900 C.3       4 GLP5        0.0000 
     21 CA         30.6145   65.2675   37.2660 C.3       2 GLC5        0.0000 
     22 CA         31.7540   66.4370   38.5080 C.3       6 GLL5        0.0000 
     23 CA         29.4750   64.0980   36.0240 C.3       4 GLP5        0.0000 
     24 CA         29.4750   72.9715   37.2000 C.3       2 GLC5        0.0000 
     25 CA         30.3990   71.7230   38.4500 C.3       6 GLL5        0.0000 
     26 CA         28.5510   74.2200   35.9500 C.3       4 GLP5        0.0000 
     27 CA         31.5815   71.2040   37.2100 C.3       2 GLC5        0.0000 
     28 CA         32.7640   70.6850   35.9700 C.3       4 GLP5        0.0000 
     29 CA         28.9720   70.5645   38.6095 C.3       2 GLC5        0.0000 
     30 CA         33.0935   70.8080   38.5205 C.3       2 GLC5        0.0000 
     31 CA         32.1520   70.5700   40.2700 C.3       6 GLL5        0.0000 
     32 CA         34.0350   71.0460   36.7710 C.3       4 GLP5        0.0000 
     33 N          32.0755   73.1865   40.3395 N.am      1 SEC2        0.0000 
     34 N          32.3050   71.8080   40.8210 N.am      5 SEL2        0.0000 
     35 N          31.8460   74.5650   39.8580 N.am      3 SEP2        0.0000 
     36 CA         28.9943   73.8980   45.3870 C.3       2 GLC5        0.0000 
     37 CA         29.5610   74.1230   43.5850 C.3       6 GLL5        0.0000 
     38 CA         26.3667   71.8255   43.2855 C.3       2 GLC5        0.0000 
     39 CA         27.7260   72.8050   42.7250 C.3       6 GLL5        0.0000 
     40 CA         28.3676   71.3672   44.7503 C.3       2 GLC5        0.0000 
     41 CA         27.7370   70.7290   46.5140 C.3       4 GLP5        0.0000 
     42 CA         30.5862   71.6675   45.4468 C.3       2 GLC5        0.0000 
     43 CA         30.3840   72.9930   43.6330 C.3       6 GLL5        0.0000 
     44 CA         30.1300   70.2850   47.0200 C.3       4 GLP5        0.0000 
     45 CA         33.5495   69.1296   38.4507 C.3       2 GLC5        0.0000 
     46 CA         32.8760   69.4860   40.7930 C.3       6 GLL5        0.0000 
     47 CA         34.7830   69.8120   37.0820 C.3       4 GLP5        0.0000 
     48 CA         33.0312   66.7575   37.3585 C.3       2 GLC5        0.0000 
     49 CA         31.8450   68.0350   39.1340 C.3       6 GLL5        0.0000 
     50 CA         34.2630   66.2790   35.8960 C.3       4 GLP5        0.0000 
     51 CA         31.9928   70.2193   37.4250 C.3       2 GLC5        0.0000 
     52 CA         31.1510   69.1140   38.5990 C.3       6 GLL5        0.0000 
     53 CA         29.3833   69.5798   38.8245 C.3       2 GLC5        0.0000 
     54 CA         29.9331   66.9415   39.0045 C.3       2 GLC5        0.0000 
     55 CA         28.3910   65.7080   39.2990 C.3       4 GLP5        0.0000 
     56 CA         31.1821   67.6255   40.5500 C.3       2 GLC5        0.0000 
     57 CA         31.6792   68.3954   41.3888 C.3       2 GLC5        0.0000 
     58 CA         32.6980   68.2330   40.2170 C.3       6 GLL5        0.0000 
     59 CA         31.5158   74.7025   42.4315 C.3       2 GLC5        0.0000 
     60 CA         31.7010   73.1070   44.1140 C.3       6 GLL5        0.0000 
     61 CA         32.1910   75.6170   40.9150 C.3       4 GLP5        0.0000 
@<TRIPOS>BOND
@<TRIPOS>SUBSTRUCTURE
     1 SEC2       33 GROUP        1 X    SEC  0     ROOT SEC X 2
     2 GLC5        1 GROUP        1 X    GLC  0     **** GLC X 6
     3 SEP2       35 GROUP        1 Y    SEP  0     ROOT SEP Y 9
     4 GLP5        3 GROUP        1 Y    GLP  0     **** GLP Y 13
     5 SEL2       34 GROUP        1 Z    SEL  0     ROOT SEL Z 16
     6 GLL5        2 GROUP        1 Z    GLL  0     **** GLL Z 20
@<TRIPOS>SET

