#    Name: 3dho_B2M_3_ligand
#    Modification time : Mon Mar 24 23:27:27 2014

@<TRIPOS>MOLECULE
3dho_B2M_3_ligand
   38    40     1     0     0
SMALL
NO_CHARGES


@<TRIPOS>ATOM
      1 CAA        31.7660   76.8700   44.8530 C.3       1 B2M301      0.0000 
      2 CAR        31.2890   75.4780   44.4260 C.ar      1 B2M301      0.0000 
      3 CAK        32.1440   74.3800   44.4940 C.ar      1 B2M301      0.0000 
      4 NAO        30.0310   75.3230   43.9820 N.ar      1 B2M301      0.0000 
      5 CAY        29.5610   74.1230   43.5850 C.ar      1 B2M301      0.0000 
      6 CAI        28.2340   74.0360   43.1370 C.ar      1 B2M301      0.0000 
      7 CAH        27.7260   72.8050   42.7250 C.ar      1 B2M301      0.0000 
      8 CAT        28.5490   71.6790   42.7730 C.ar      1 B2M301      0.0000 
      9 BRAF       27.9040   69.9830   42.2560 Br        1 B2M301      0.0000 
     10 CAM        29.8590   71.7690   43.2240 C.ar      1 B2M301      0.0000 
     11 CAZ        30.3840   72.9930   43.6330 C.ar      1 B2M301      0.0000 
     12 CAX        31.7010   73.1070   44.1140 C.ar      1 B2M301      0.0000 
     13 CAQ        32.7470   71.9610   44.1830 C.2       1 B2M301      0.0000 
     14 OAB        33.5100   71.8480   45.1440 O.2       1 B2M301      0.0000 
     15 NAP        32.8170   71.1800   43.1010 N.am      1 B2M301      0.0000 
     16 NAN        33.6290   70.2540   42.9980 N.2       1 B2M301      0.0000 
     17 CAG        33.7210   69.4770   41.9170 C.2       1 B2M301      0.0000 
     18 CAW        32.8760   69.4860   40.7930 C.ar      1 B2M301      0.0000 
     19 CAL        32.6980   68.2330   40.2170 C.ar      1 B2M301      0.0000 
     20 CAS        31.8450   68.0350   39.1340 C.ar      1 B2M301      0.0000 
     21 CLAD       31.7540   66.4370   38.5080 Cl        1 B2M301      0.0000 
     22 CAJ        31.1510   69.1140   38.5990 C.ar      1 B2M301      0.0000 
     23 CAU        31.2920   70.3930   39.1610 C.ar      1 B2M301      0.0000 
     24 CLAE       30.3990   71.7230   38.4500 Cl        1 B2M301      0.0000 
     25 CAV        32.1520   70.5700   40.2700 C.ar      1 B2M301      0.0000 
     26 OAC        32.3050   71.8080   40.8210 O.3       1 B2M301      0.0000 
     27 H          33.1116   74.5025   44.8265 H         1 B2M301      0.0000 
     28 H          27.6466   74.8729   43.1145 H         1 B2M301      0.0000 
     29 H          26.7638   72.7274   42.3921 H         1 B2M301      0.0000 
     30 H          30.4502   70.9239   43.2574 H         1 B2M301      0.0000 
     31 H          32.1167   71.4021   42.3074 H         1 B2M301      0.0000 
     32 H          34.5259   68.7508   41.8748 H         1 B2M301      0.0000 
     33 H          33.2172   67.4183   40.6060 H         1 B2M301      0.0000 
     34 H          30.5315   68.9818   37.7900 H         1 B2M301      0.0000 
     35 H          32.0483   76.8878   45.8122 H         1 B2M301      0.0000 
     36 H          32.5487   77.1767   44.3114 H         1 B2M301      0.0000 
     37 H          31.0479   77.5577   44.7459 H         1 B2M301      0.0000 
     38 H          33.2526   71.8342   41.1394 H         1 B2M301      0.0000 
@<TRIPOS>BOND
     1    2    1 1    
     2   35    1 1    
     3   36    1 1    
     4   37    1 1    
     5    3    2 ar   
     6    4    2 ar   
     7   12    3 ar   
     8   27    3 1    
     9    5    4 ar   
    10    6    5 ar   
    11   11    5 ar   
    12    7    6 ar   
    13   28    6 1    
    14    8    7 ar   
    15   29    7 1    
    16    9    8 1    
    17   10    8 ar   
    18   11   10 ar   
    19   30   10 1    
    20   12   11 ar   
    21   13   12 1    
    22   14   13 2    
    23   15   13 am   
    24   16   15 1    
    25   31   15 1    
    26   17   16 2    
    27   18   17 1    
    28   32   17 1    
    29   19   18 ar   
    30   25   18 ar   
    31   20   19 ar   
    32   33   19 1    
    33   21   20 1    
    34   22   20 ar   
    35   23   22 ar   
    36   34   22 1    
    37   24   23 1    
    38   25   23 ar   
    39   26   25 1    
    40   38   26 1    
@<TRIPOS>SUBSTRUCTURE
     1 B2M301      1 GROUP   
@<TRIPOS>SET

