#    Name: 4ful_0VU_1_INTS_M
#    Modification time : Mon Mar 24 20:48:11 2014

@<TRIPOS>MOLECULE
4ful_0VU_1_INTS_M
   70     0     9     0     0
SMALL
NO_CHARGES


@<TRIPOS>ATOM
      1 CA         41.6680   13.5600   28.6980 C.3       3 GLC5        0.0000 
      2 CA         42.3430   12.6590   30.0980 C.3       9 GLL5        0.0000 
      3 CA         40.9930   14.4610   27.2980 C.3       6 GLP5        0.0000 
      4 N          48.2580   10.7730   28.5170 N.am      2 SEC2        0.0000 
      5 N          47.1590   11.5780   28.5050 N.am      8 SEL2        0.0000 
      6 N          49.3570    9.9680   28.5290 N.am      5 SEP2        0.0000 
      7 O          49.5460   12.8170   28.6845 O.2       1 ALC1        0.0000 
      8 O          48.3910   13.2890   29.6830 O.2       7 ALL1        0.0000 
      9 O          50.7010   12.3450   27.6860 O.2       4 ALP1        0.0000 
     10 CA         42.7755   16.8545   30.3875 C.3       3 GLC5        0.0000 
     11 CA         43.7000   17.3840   31.8410 C.3       9 GLL5        0.0000 
     12 CA         41.8510   16.3250   28.9340 C.3       6 GLP5        0.0000 
     13 CA         46.0195   17.5960   29.9405 C.3       3 GLC5        0.0000 
     14 CA         45.0090   18.1830   31.8200 C.3       9 GLL5        0.0000 
     15 CA         47.0300   17.0090   28.0610 C.3       6 GLP5        0.0000 
     16 CA         46.1050   20.8330   32.5000 C.3       3 GLC5        0.0000 
     17 CA         45.1440   19.1530   33.0100 C.3       9 GLL5        0.0000 
     18 CA         47.0660   22.5130   31.9900 C.3       6 GLP5        0.0000 
     19 CA         43.2725   16.4790   36.0810 C.3       3 GLC5        0.0000 
     20 CA         43.4010   17.7010   34.2580 C.3       9 GLL5        0.0000 
     21 CA         43.1440   15.2570   37.9040 C.3       6 GLP5        0.0000 
     22 CA         45.2235   14.2575   28.7160 C.3       3 GLC5        0.0000 
     23 CA         44.8420   12.4760   29.7260 C.3       9 GLL5        0.0000 
     24 CA         45.6050   16.0390   27.7060 C.3       6 GLP5        0.0000 
     25 CA         47.4835   10.1575   29.5360 C.3       3 GLC5        0.0000 
     26 CA         45.9620   11.0060   28.2380 C.3       9 GLL5        0.0000 
     27 CA         49.0050    9.3090   30.8340 C.3       6 GLP5        0.0000 
     28 CA         47.0625   10.1575   27.0025 C.3       3 GLC5        0.0000 
     29 CA         48.1630    9.3090   25.7670 C.3       6 GLP5        0.0000 
     30 CA         48.0945   10.9630   30.1015 C.3       3 GLC5        0.0000 
     31 CA         47.1840   12.6170   29.3690 C.3       9 GLL5        0.0000 
     32 CA         48.6315   11.3355   28.3195 C.3       3 GLC5        0.0000 
     33 CA         50.0790   10.0540   27.2700 C.3       6 GLP5        0.0000 
     34 CA         46.3945   14.3280   28.5375 C.3       3 GLC5        0.0000 
     35 CA         49.7825   12.7440   30.8455 C.3       3 GLC5        0.0000 
     36 CA         48.6900   14.5490   30.2370 C.3       9 GLL5        0.0000 
     37 CA         50.8750   10.9390   31.4540 C.3       6 GLP5        0.0000 
     38 CA         50.0975   15.0870   27.8705 C.3       3 GLC5        0.0000 
     39 CA         49.9730   15.1110   29.9920 C.3       9 GLL5        0.0000 
     40 CA         50.2220   15.0630   25.7490 C.3       6 GLP5        0.0000 
     41 CA         47.0230   13.7640   32.4935 C.3       3 GLC5        0.0000 
     42 CA         47.8090   15.2670   31.0580 C.3       9 GLL5        0.0000 
     43 CA         46.2370   12.2610   33.9290 C.3       6 GLP5        0.0000 
     44 CA         41.1500   11.9280   32.3435 C.3       3 GLC5        0.0000 
     45 CA         41.3810   14.0650   31.8430 C.3       9 GLL5        0.0000 
     46 CA         40.9990   10.2410   33.3730 C.3       6 GLP5        0.0000 
     47 CA         43.1455   11.0397   30.8077 C.3       3 GLC5        0.0000 
     48 CA         43.2850    9.2320   31.3400 C.3       6 GLP5        0.0000 
     49 CA         46.0058   17.2785   33.6475 C.3       3 GLC5        0.0000 
     50 CA         46.9350   15.8890   34.8800 C.3       6 GLP5        0.0000 
     51 CA         45.4793   17.0198   34.5948 C.3       3 GLC5        0.0000 
     52 CA         44.6460   18.6000   34.3610 C.3       9 GLL5        0.0000 
     53 CA         42.9523   18.9588   35.7403 C.3       3 GLC5        0.0000 
     54 CA         41.8810   19.7670   37.1710 C.3       6 GLP5        0.0000 
     55 CA         45.2632   12.6216   32.1465 C.3       3 GLC5        0.0000 
     56 CA         43.6690   13.0360   30.4530 C.3       9 GLL5        0.0000 
     57 CA         43.5735   12.9632   27.9887 C.3       3 GLC5        0.0000 
     58 CA         44.7740   11.4070   28.8290 C.3       9 GLL5        0.0000 
     59 CA         42.3390   13.9850   26.7000 C.3       6 GLP5        0.0000 
     60 CA         44.9160    9.4683   27.4132 C.3       3 GLC5        0.0000 
     61 CA         44.4640    7.7300   26.2930 C.3       6 GLP5        0.0000 
     62 CA         44.3350   10.3529   30.0489 C.3       3 GLC5        0.0000 
     63 CA         48.1808   15.9195   29.0877 C.3       3 GLC5        0.0000 
     64 CA         48.4530   16.8620   29.4898 C.3       3 GLC5        0.0000 
     65 CA         50.3390   16.3620   30.5260 C.3       9 GLL5        0.0000 
     66 CA         47.4592   15.8910   33.0983 C.3       3 GLC5        0.0000 
     67 CA         48.1580   16.5190   31.5750 C.3       9 GLL5        0.0000 
     68 CA         47.5067   16.4510   29.6887 C.3       3 GLC5        0.0000 
     69 CA         42.3564   15.0465   30.1584 C.3       3 GLC5        0.0000 
     70 CA         43.8050   13.9410   31.5510 C.3       9 GLL5        0.0000 
@<TRIPOS>BOND
@<TRIPOS>SUBSTRUCTURE
     1 ALC1        7 GROUP        1 X    ALC  0     ROOT ALC X 1
     2 SEC2        4 GROUP        1 X    SEC  0     **** SEC X 2
     3 GLC5        1 GROUP        1 X    GLC  0     **** GLC X 6
     4 ALP1        9 GROUP        1 Y    ALP  0     ROOT ALP Y 8
     5 SEP2        6 GROUP        1 Y    SEP  0     **** SEP Y 9
     6 GLP5        3 GROUP        1 Y    GLP  0     **** GLP Y 13
     7 ALL1        8 GROUP        1 Z    ALL  0     ROOT ALL Z 15
     8 SEL2        5 GROUP        1 Z    SEL  0     **** SEL Z 16
     9 GLL5        2 GROUP        1 Z    GLL  0     **** GLL Z 20
@<TRIPOS>SET

