#    Name: 4ful_0VU_1_ligand
#    Modification time : Mon Mar 24 20:48:11 2014

@<TRIPOS>MOLECULE
4ful_0VU_1_ligand
   53    56     1     0     0
SMALL
NO_CHARGES


@<TRIPOS>ATOM
      1 C1         41.2210   13.1650   30.7850 C.ar      1 0VU1201     0.0000 
      2 C2         42.3430   12.6590   30.0980 C.ar      1 0VU1201     0.0000 
      3 C3         43.6690   13.0360   30.4530 C.ar      1 0VU1201     0.0000 
      4 C4         43.8050   13.9410   31.5510 C.ar      1 0VU1201     0.0000 
      5 C5         42.6720   14.4800   32.2130 C.ar      1 0VU1201     0.0000 
      6 C6         41.3810   14.0650   31.8430 C.ar      1 0VU1201     0.0000 
      7 C7         42.8250   15.4560   33.3370 C.2       1 0VU1201     0.0000 
      8 N1         43.4480   16.7220   33.1460 N.am      1 0VU1201     0.0000 
      9 N2         47.1590   11.5780   28.5050 N.ar      1 0VU1201     0.0000 
     10 N3         46.0470   13.0640   29.9840 N.ar      1 0VU1201     0.0000 
     11 N4         48.3910   13.2890   29.6830 N.pl3     1 0VU1201     0.0000 
     12 C8         43.7000   17.3840   31.8410 C.3       1 0VU1201     0.0000 
     13 O1         42.3460   15.0710   34.4200 O.2       1 0VU1201     0.0000 
     14 C9         45.0090   18.1830   31.8200 C.3       1 0VU1201     0.0000 
     15 C10        45.1440   19.1530   33.0100 C.3       1 0VU1201     0.0000 
     16 C11        44.6460   18.6000   34.3610 C.3       1 0VU1201     0.0000 
     17 C12        43.4010   17.7010   34.2580 C.3       1 0VU1201     0.0000 
     18 C13        44.8420   12.4760   29.7260 C.ar      1 0VU1201     0.0000 
     19 C14        44.7740   11.4070   28.8290 C.ar      1 0VU1201     0.0000 
     20 C15        45.9620   11.0060   28.2380 C.ar      1 0VU1201     0.0000 
     21 C16        47.1840   12.6170   29.3690 C.ar      1 0VU1201     0.0000 
     22 C17        48.6900   14.5490   30.2370 C.ar      1 0VU1201     0.0000 
     23 C18        49.9730   15.1110   29.9920 C.ar      1 0VU1201     0.0000 
     24 C19        50.3390   16.3620   30.5260 C.ar      1 0VU1201     0.0000 
     25 C20        49.4130   17.0680   31.3110 C.ar      1 0VU1201     0.0000 
     26 C21        48.1580   16.5190   31.5750 C.ar      1 0VU1201     0.0000 
     27 C22        47.8090   15.2670   31.0580 C.ar      1 0VU1201     0.0000 
     28 S1         49.7540   18.6680   32.0110 S.o2      1 0VU1201     0.0000 
     29 O2         49.9830   18.4230   33.4330 O.2       1 0VU1201     0.0000 
     30 O3         48.6810   19.5250   31.5090 O.2       1 0VU1201     0.0000 
     31 N5         51.2090   19.1130   31.2390 N.pl3     1 0VU1201     0.0000 
     32 H          40.2789   12.8667   30.5019 H         1 0VU1201     0.0000 
     33 H          42.2061   11.9986   29.3175 H         1 0VU1201     0.0000 
     34 H          44.7480   14.2047   31.8649 H         1 0VU1201     0.0000 
     35 H          40.5662   14.4210   32.3465 H         1 0VU1201     0.0000 
     36 H          49.3044   12.6851   29.4362 H         1 0VU1201     0.0000 
     37 H          42.8734   18.0710   31.5981 H         1 0VU1201     0.0000 
     38 H          43.7424   16.6326   31.0362 H         1 0VU1201     0.0000 
     39 H          45.0637   18.7576   30.8878 H         1 0VU1201     0.0000 
     40 H          45.8551   17.4859   31.8346 H         1 0VU1201     0.0000 
     41 H          44.5859   20.0771   32.7790 H         1 0VU1201     0.0000 
     42 H          46.2049   19.4397   33.1149 H         1 0VU1201     0.0000 
     43 H          44.4192   19.4468   35.0275 H         1 0VU1201     0.0000 
     44 H          45.4608   18.0269   34.8303 H         1 0VU1201     0.0000 
     45 H          43.2811   17.1741   35.2247 H         1 0VU1201     0.0000 
     46 H          42.5155   18.3574   34.1506 H         1 0VU1201     0.0000 
     47 H          43.8994   10.9521   28.6247 H         1 0VU1201     0.0000 
     48 H          45.9161   10.2082   27.5422 H         1 0VU1201     0.0000 
     49 H          50.6441   14.5884   29.4117 H         1 0VU1201     0.0000 
     50 H          51.2624   16.7473   30.3443 H         1 0VU1201     0.0000 
     51 H          47.4831   17.0374   32.1540 H         1 0VU1201     0.0000 
     52 H          46.8853   14.8627   31.2845 H         1 0VU1201     0.0000 
     53 H          51.2064   18.6120   30.3735 H         1 0VU1201     0.0000 
@<TRIPOS>BOND
     1    2    1 ar   
     2    6    1 ar   
     3   32    1 1    
     4    3    2 ar   
     5   33    2 1    
     6    4    3 ar   
     7   18    3 1    
     8    5    4 ar   
     9   34    4 1    
    10    6    5 ar   
    11    7    5 1    
    12   35    6 1    
    13    8    7 am   
    14   13    7 2    
    15   12    8 1    
    16   17    8 1    
    17   20    9 ar   
    18   21    9 ar   
    19   18   10 ar   
    20   21   10 ar   
    21   21   11 1    
    22   22   11 1    
    23   36   11 1    
    24   14   12 1    
    25   37   12 1    
    26   38   12 1    
    27   15   14 1    
    28   39   14 1    
    29   40   14 1    
    30   16   15 1    
    31   41   15 1    
    32   42   15 1    
    33   17   16 1    
    34   43   16 1    
    35   44   16 1    
    36   45   17 1    
    37   46   17 1    
    38   19   18 ar   
    39   20   19 ar   
    40   47   19 1    
    41   48   20 1    
    42   23   22 ar   
    43   27   22 ar   
    44   24   23 ar   
    45   49   23 1    
    46   25   24 ar   
    47   50   24 1    
    48   26   25 ar   
    49   28   25 1    
    50   27   26 ar   
    51   51   26 1    
    52   52   27 1    
    53   29   28 2    
    54   30   28 2    
    55   31   28 1    
    56   53   31 1    
@<TRIPOS>SUBSTRUCTURE
     1 0VU1201     1 GROUP   
@<TRIPOS>SET

