#    Name: 3FUN_1_CAVITY_N1_6.mol2
#    Modification time : Mon Mar 10 17:22:33 2014

@<TRIPOS>MOLECULE
3FUN_1_CAVITY_N1_6.mol2
   25     0     6     0     0
SMALL
NO_CHARGES


@<TRIPOS>ATOM
      1 CZ        -29.0111   -7.7451   -2.7694 C.ar      4 PHE5        0.0000 
      2 OG        -31.2875   -8.9453    1.4882 O.2       1 SER1        0.0000 
      3 OG        -30.8870   -9.1547    0.0579 O.2       1 SER1        0.0000 
      4 CZ        -30.8185   -7.9329   -1.6749 C.ar      4 PHE5        0.0000 
      5 CZ        -30.4181   -8.1423   -3.1052 C.ar      4 PHE5        0.0000 
      6 OG        -33.4268   -7.7019    2.2803 O.2       1 SER1        0.0000 
      7 OG        -32.6944   -9.3425    1.1525 O.2       1 SER1        0.0000 
      8 OG        -33.0263   -7.9113    0.8500 O.2       1 SER1        0.0000 
      9 OG        -32.6259   -8.1207   -0.5803 O.2       1 SER1        0.0000 
     10 OG        -32.9578   -6.6895   -0.8827 O.2       1 SER1        0.0000 
     11 CZ        -32.2255   -8.3301   -2.0106 C.ar      4 PHE5        0.0000 
     12 CZ        -31.8250   -8.5395   -3.4409 C.ar      4 PHE5        0.0000 
     13 CZ        -35.2342   -7.8897    3.3749 C.ar      4 PHE5        0.0000 
     14 N         -35.5661   -6.4585    3.0725 N.2       2 ALA2        0.0000 
     15 DU        -34.8337   -8.0992    1.9446 H         6 CUB7        0.0000 
     16 OG        -35.1656   -6.6679    1.6421 O.2       1 SER1        0.0000 
     17 O         -34.4333   -8.3086    0.5143 O.2       2 ALA2        0.0000 
     18 O         -34.7652   -6.8774    0.2118 O.2       2 ALA2        0.0000 
     19 O         -34.0328   -8.5180   -0.9160 O.2       2 ALA2        0.0000 
     20 O         -34.3648   -7.0868   -1.2185 O.2       2 ALA2        0.0000 
     21 O         -33.6324   -8.7274   -2.3463 O.2       2 ALA2        0.0000 
     22 NZ        -36.9730   -6.8558    2.7367 N.2       3 LYS4        0.0000 
     23 CA        -36.2407   -8.4964    1.6089 C.3       5 GLY6        0.0000 
     24 NZ        -36.5726   -7.0652    1.3064 N.2       3 LYS4        0.0000 
     25 CA        -35.8402   -8.7058    0.1786 C.3       5 GLY6        0.0000 
@<TRIPOS>BOND
@<TRIPOS>SUBSTRUCTURE
     1 SER1        2 GROUP   
     2 ALA2       14 GROUP   
     3 LYS4       22 GROUP   
     4 PHE5        1 GROUP   
     5 GLY6       23 GROUP   
     6 CUB7       15 GROUP   
@<TRIPOS>SET

