#    Name: 3fun_798_1_INTS_M
#    Modification time : Tue Mar 25 06:36:38 2014

@<TRIPOS>MOLECULE
3fun_798_1_INTS_M
   71     0     3     0     0
SMALL
NO_CHARGES


@<TRIPOS>ATOM
      1 CA        -24.4885    2.2135    3.1310 C.3       1 GLC5        0.0000 
      2 CA        -24.4280    0.1240    3.3110 C.3       3 GLL5        0.0000 
      3 CA        -24.5490    4.3030    2.9510 C.3       2 GLP5        0.0000 
      4 CA        -24.8430   -3.3255    6.9475 C.3       1 GLC5        0.0000 
      5 CA        -23.2500   -2.4650    6.6000 C.3       3 GLL5        0.0000 
      6 CA        -26.4360   -4.1860    7.2950 C.3       2 GLP5        0.0000 
      7 CA        -21.9110   -3.7505    9.5360 C.3       1 GLC5        0.0000 
      8 CA        -22.4250   -3.6310    7.6440 C.3       3 GLL5        0.0000 
      9 CA        -21.3970   -3.8700   11.4280 C.3       2 GLP5        0.0000 
     10 CA        -19.7275   -5.2240    5.4590 C.3       1 GLC5        0.0000 
     11 CA        -21.7050   -4.6270    6.3220 C.3       3 GLL5        0.0000 
     12 CA        -17.7500   -5.8210    4.5960 C.3       2 GLP5        0.0000 
     13 CA        -31.1170    0.1230   -1.2000 C.3       1 GLC5        0.0000 
     14 CA        -30.6530   -1.8840   -2.0300 C.3       3 GLL5        0.0000 
     15 CA        -31.5810    2.1300   -0.3700 C.3       2 GLP5        0.0000 
     16 CA        -30.7240   -2.9390   -3.4290 C.3       1 GLC5        0.0000 
     17 CA        -30.7950   -3.9940   -4.8280 C.3       2 GLP5        0.0000 
     18 CA        -29.8885   -3.2350   -0.5335 C.3       1 GLC5        0.0000 
     19 CA        -29.1240   -4.5860    0.9630 C.3       2 GLP5        0.0000 
     20 CA        -31.3870   -3.8095   -2.9225 C.3       1 GLC5        0.0000 
     21 CA        -32.0010   -2.5500   -1.8810 C.3       3 GLL5        0.0000 
     22 CA        -30.7730   -5.0690   -3.9640 C.3       2 GLP5        0.0000 
     23 CA        -35.1170   -0.9970   -1.1345 C.3       1 GLC5        0.0000 
     24 CA        -34.2390   -2.4760   -1.1780 C.3       3 GLL5        0.0000 
     25 CA        -35.9950    0.4820   -1.0910 C.3       2 GLP5        0.0000 
     26 CA        -32.0320   -4.5805   -2.1410 C.3       1 GLC5        0.0000 
     27 CA        -32.0880   -3.5050   -0.6940 C.3       3 GLL5        0.0000 
     28 CA        -31.9760   -5.6560   -3.5880 C.3       2 GLP5        0.0000 
     29 CA        -30.8820   -4.6355   -0.1120 C.3       1 GLC5        0.0000 
     30 CA        -29.6760   -5.7660    0.4700 C.3       2 GLP5        0.0000 
     31 CA        -25.5950    0.2047    4.3447 C.3       1 GLC5        0.0000 
     32 CA        -24.7520   -0.4750    2.1000 C.3       3 GLL5        0.0000 
     33 CA        -26.6000    0.5850    5.9840 C.3       2 GLP5        0.0000 
     34 CA        -25.1730   -0.3715    5.1190 C.3       1 GLC5        0.0000 
     35 CA        -23.8680   -0.6440    4.3400 C.3       3 GLL5        0.0000 
     36 CA        -22.0770   -0.6615    5.0745 C.3       1 GLC5        0.0000 
     37 CA        -20.4080    0.0050    5.8950 C.3       2 GLP5        0.0000 
     38 CA        -22.8955    0.9526    2.9429 C.3       1 GLC5        0.0000 
     39 CA        -21.5620    2.3150    2.3630 C.3       2 GLP5        0.0000 
     40 CA        -25.0395   -3.5212    4.7395 C.3       1 GLC5        0.0000 
     41 CA        -23.6240   -2.0120    4.1680 C.3       3 GLL5        0.0000 
     42 CA        -26.2860   -4.7390    5.9170 C.3       2 GLP5        0.0000 
     43 CA        -21.7718   -1.3250    5.9155 C.3       1 GLC5        0.0000 
     44 CA        -23.0210   -2.8450    5.2720 C.3       3 GLL5        0.0000 
     45 CA        -22.2305   -5.9205    7.5925 C.3       1 GLC5        0.0000 
     46 CA        -22.3960   -7.7120    8.2020 C.3       2 GLP5        0.0000 
     47 CA        -20.7395   -3.0957    6.3885 C.3       1 GLC5        0.0000 
     48 CA        -19.3630   -2.1300    6.7230 C.3       2 GLP5        0.0000 
     49 CA        -22.5235   -2.3833    1.5617 C.3       1 GLC5        0.0000 
     50 CA        -23.9620   -2.5950    2.9560 C.3       3 GLL5        0.0000 
     51 CA        -20.8110   -2.5540    0.6850 C.3       2 GLP5        0.0000 
     52 CA        -24.4530   -3.5382    1.2452 C.3       1 GLC5        0.0000 
     53 CA        -24.6700   -4.8640    0.0520 C.3       2 GLP5        0.0000 
     54 CA        -27.0917    1.4885   -0.6923 C.3       1 GLC5        0.0000 
     55 CA        -26.7030   -0.0400    0.4580 C.3       3 GLL5        0.0000 
     56 CA        -27.4230    3.2430   -1.1850 C.3       2 GLP5        0.0000 
     57 CA        -25.2227    0.8280   -1.0703 C.3       1 GLC5        0.0000 
     58 CA        -23.6850    1.9220   -1.9410 C.3       2 GLP5        0.0000 
     59 CA        -26.6242   -2.5485   -1.0103 C.3       1 GLC5        0.0000 
     60 CA        -26.8180   -0.4920   -0.8570 C.3       3 GLL5        0.0000 
     61 CA        -25.7930   -4.4340   -0.9070 C.3       2 GLP5        0.0000 
     62 CA        -28.0302    1.2357   -1.0645 C.3       1 GLC5        0.0000 
     63 CA        -28.0930   -0.8340   -1.3700 C.3       3 GLL5        0.0000 
     64 CA        -30.3445    0.8277   -0.1202 C.3       1 GLC5        0.0000 
     65 CA        -29.1820   -0.7090   -0.5180 C.3       3 GLL5        0.0000 
     66 CA        -27.9175    1.5840   -0.0753 C.3       1 GLC5        0.0000 
     67 CA        -29.0340   -0.2400    0.7770 C.3       3 GLL5        0.0000 
     68 CA        -33.5547   -4.1273   -2.4480 C.3       1 GLC5        0.0000 
     69 CA        -33.1910   -5.1810   -4.0640 C.3       2 GLP5        0.0000 
     70 CA        -23.7882   -4.7996    6.0859 C.3       1 GLC5        0.0000 
     71 CA        -25.2470   -5.8250    6.0810 C.3       2 GLP5        0.0000 
@<TRIPOS>BOND
@<TRIPOS>SUBSTRUCTURE
     1 GLC5        1 GROUP        1 X    GLC  0     ROOT GLC X 6
     2 GLP5        3 GROUP        1 Y    GLP  0     ROOT GLP Y 13
     3 GLL5        2 GROUP        1 Z    GLL  0     ROOT GLL Z 20
@<TRIPOS>SET

