#    Name: 3fun_798_1_ligand
#    Modification time : Tue Mar 25 06:36:38 2014

@<TRIPOS>MOLECULE
3fun_798_1_ligand
   46    49     1     0     0
SMALL
NO_CHARGES


@<TRIPOS>ATOM
      1 O8        -24.8150    1.2580    0.4690 O.2       1 798710      0.0000 
      2 C7        -25.3660    0.3200    0.9820 C.2       1 798710      0.0000 
      3 C9        -24.7520   -0.4750    2.1000 C.ar      1 798710      0.0000 
      4 C10       -24.4280    0.1240    3.3110 C.ar      1 798710      0.0000 
      5 C11       -23.8680   -0.6440    4.3400 C.ar      1 798710      0.0000 
      6 C12       -23.6240   -2.0120    4.1680 C.ar      1 798710      0.0000 
      7 C15       -23.0210   -2.8450    5.2720 C.2       1 798710      0.0000 
      8 C16       -23.2500   -2.4650    6.6000 C.2       1 798710      0.0000 
      9 S17       -22.4250   -3.6310    7.6440 S.3       1 798710      0.0000 
     10 C18       -21.7050   -4.6270    6.3220 C.2       1 798710      0.0000 
     11 C19       -22.1670   -3.9940    5.1250 C.2       1 798710      0.0000 
     12 C13       -23.9620   -2.5950    2.9560 C.ar      1 798710      0.0000 
     13 C14       -24.5100   -1.8300    1.9210 C.ar      1 798710      0.0000 
     14 C6        -26.7030   -0.0400    0.4580 C.ar      1 798710      0.0000 
     15 C5        -26.8180   -0.4920   -0.8570 C.ar      1 798710      0.0000 
     16 C4        -28.0930   -0.8340   -1.3700 C.ar      1 798710      0.0000 
     17 C3        -29.1820   -0.7090   -0.5180 C.ar      1 798710      0.0000 
     18 C2        -29.0340   -0.2400    0.7770 C.ar      1 798710      0.0000 
     19 C1        -27.7900    0.0900    1.2920 C.ar      1 798710      0.0000 
     20 O20       -30.4610   -1.0410   -0.9150 O.3       1 798710      0.0000 
     21 C21       -30.6530   -1.8840   -2.0300 C.3       1 798710      0.0000 
     22 C22       -32.0010   -2.5500   -1.8810 C.3       1 798710      0.0000 
     23 N23       -33.1190   -1.6510   -1.6530 N.4       1 798710      0.0000 
     24 C24       -34.2390   -2.4760   -1.1780 C.3       1 798710      0.0000 
     25 C25       -33.5980   -3.6710   -0.4860 C.3       1 798710      0.0000 
     26 C26       -32.0880   -3.5050   -0.6940 C.3       1 798710      0.0000 
     27 H         -24.5963    1.1251    3.4562 H         1 798710      0.0000 
     28 H         -23.6318   -0.1944    5.2385 H         1 798710      0.0000 
     29 H         -23.6789   -1.8248    7.0359 H         1 798710      0.0000 
     30 H         -21.2315   -5.2786    6.5776 H         1 798710      0.0000 
     31 H         -21.9105   -4.3315    4.2254 H         1 798710      0.0000 
     32 H         -23.8092   -3.6065    2.8104 H         1 798710      0.0000 
     33 H         -24.7339   -2.2799    1.0214 H         1 798710      0.0000 
     34 H         -25.9943   -0.5789   -1.4529 H         1 798710      0.0000 
     35 H         -28.1923   -1.1547   -2.3195 H         1 798710      0.0000 
     36 H         -29.8770   -0.1326    1.3783 H         1 798710      0.0000 
     37 H         -27.6898    0.4143    2.2473 H         1 798710      0.0000 
     38 H         -29.8932   -2.6666   -2.0901 H         1 798710      0.0000 
     39 H         -30.6515   -1.3289   -2.9709 H         1 798710      0.0000 
     40 H         -32.2162   -3.1546   -2.7711 H         1 798710      0.0000 
     41 H         -34.8355   -2.8275   -1.9993 H         1 798710      0.0000 
     42 H         -34.8382   -1.9406   -0.4652 H         1 798710      0.0000 
     43 H         -33.9235   -4.5763   -0.9478 H         1 798710      0.0000 
     44 H         -33.8181   -3.6479    0.5579 H         1 798710      0.0000 
     45 H         -31.6577   -3.0572    0.1623 H         1 798710      0.0000 
     46 H         -31.6589   -4.4378   -0.9485 H         1 798710      0.0000 
@<TRIPOS>BOND
     1    2    1 2    
     2    3    2 1    
     3   14    2 1    
     4    4    3 ar   
     5   13    3 ar   
     6    5    4 ar   
     7   27    4 1    
     8    6    5 ar   
     9   28    5 1    
    10    7    6 1    
    11   12    6 ar   
    12    8    7 2    
    13   11    7 1    
    14    9    8 1    
    15   29    8 1    
    16   10    9 1    
    17   11   10 2    
    18   30   10 1    
    19   31   11 1    
    20   13   12 ar   
    21   32   12 1    
    22   33   13 1    
    23   15   14 ar   
    24   19   14 ar   
    25   16   15 ar   
    26   34   15 1    
    27   17   16 ar   
    28   35   16 1    
    29   18   17 ar   
    30   20   17 1    
    31   19   18 ar   
    32   36   18 1    
    33   37   19 1    
    34   21   20 1    
    35   22   21 1    
    36   38   21 1    
    37   39   21 1    
    38   23   22 1    
    39   26   22 1    
    40   40   22 1    
    41   24   23 1    
    42   25   24 1    
    43   41   24 1    
    44   42   24 1    
    45   26   25 1    
    46   43   25 1    
    47   44   25 1    
    48   45   26 1    
    49   46   26 1    
@<TRIPOS>SUBSTRUCTURE
     1 798710      1 GROUP   
@<TRIPOS>SET

