#    Name: 1nsf_ATP_1_INTS_M
#    Modification time : Mon Mar 24 18:52:22 2014

@<TRIPOS>MOLECULE
1nsf_ATP_1_INTS_M
   91     0    15     0     0
SMALL
NO_CHARGES


@<TRIPOS>ATOM
      1 Zn         11.0565   28.1485   13.1555 Zn        4 ZIC7        0.0000 
      2 Zn         11.4780   27.4460   12.4210 Zn       14 ZIL7        0.0000 
      3 Zn         10.6350   28.8510   13.8900 Zn        9 ZIP7        0.0000 
      4 NZ         14.9540   27.5750   12.7815 N.4       3 LYC4        0.0000 
      5 NZ         13.8520   26.9450   11.9980 N.4      13 LYL4        0.0000 
      6 NZ         16.0560   28.2050   13.5650 N.4       8 LYP4        0.0000 
      7 N          14.9540   27.5750   12.7815 N.am      2 SEC2        0.0000 
      8 N          13.8520   26.9450   11.9980 N.am     12 SEL2        0.0000 
      9 N          16.0560   28.2050   13.5650 N.am      7 SEP2        0.0000 
     10 NZ         11.2035   28.2910    9.4775 N.4       3 LYC4        0.0000 
     11 NZ         12.2840   27.3960   10.1310 N.4      13 LYL4        0.0000 
     12 NZ         10.1230   29.1860    8.8240 N.4       8 LYP4        0.0000 
     13 N          12.9515   28.0415    9.0910 N.am      2 SEC2        0.0000 
     14 N          12.2840   27.3960   10.1310 N.am     12 SEL2        0.0000 
     15 N          13.6190   28.6870    8.0510 N.am      7 SEP2        0.0000 
     16 N          11.2035   28.2910    9.4775 N.am      2 SEC2        0.0000 
     17 N          10.1230   29.1860    8.8240 N.am      7 SEP2        0.0000 
     18 Zn         10.9265   29.7250   13.2885 Zn        4 ZIC7        0.0000 
     19 Zn         11.2180   30.5990   12.6870 Zn       14 ZIL7        0.0000 
     20 N          10.2110   31.5625   13.0635 N.am      2 SEC2        0.0000 
     21 N          11.2180   30.5990   12.6870 N.am     12 SEL2        0.0000 
     22 N           9.2040   32.5260   13.4400 N.am      7 SEP2        0.0000 
     23 NZ         10.9460   29.9720    9.5200 N.4       3 LYC4        0.0000 
     24 NZ         11.7690   30.7580   10.2160 N.4      13 LYL4        0.0000 
     25 N          12.0550   32.0335    9.7125 N.am      2 SEC2        0.0000 
     26 N          11.7690   30.7580   10.2160 N.am     12 SEL2        0.0000 
     27 N          12.3410   33.3090    9.2090 N.am      7 SEP2        0.0000 
     28 N          10.8760   31.9680   10.4525 N.am      2 SEC2        0.0000 
     29 N           9.9830   33.1780   10.6890 N.am      7 SEP2        0.0000 
     30 N          10.9460   29.9720    9.5200 N.am      2 SEC2        0.0000 
     31 N          11.5820   33.9260   14.4145 N.am      2 SEC2        0.0000 
     32 N          12.7090   33.2660   13.7620 N.am     12 SEL2        0.0000 
     33 N          10.4550   34.5860   15.0670 N.am      7 SEP2        0.0000 
     34 NZ         15.0215   29.6965   14.0140 N.4       3 LYC4        0.0000 
     35 NZ         13.9870   31.1880   14.4630 N.4      13 LYL4        0.0000 
     36 CA         13.6345   34.2640   11.4665 C.3       5 GLC5        0.0000 
     37 CA         15.1570   34.2750   12.6350 C.3      15 GLL5        0.0000 
     38 CA         12.1120   34.2530   10.2980 C.3      10 GLP5        0.0000 
     39 CA         13.6585   35.3100   13.8180 C.3       5 GLC5        0.0000 
     40 CA         12.1600   36.3450   15.0010 C.3      10 GLP5        0.0000 
     41 CA         15.2260   35.1305   10.7085 C.3       5 GLC5        0.0000 
     42 CA         15.2950   35.9860    8.7820 C.3      10 GLP5        0.0000 
     43 CA         18.4045   35.3245   12.6980 C.3       5 GLC5        0.0000 
     44 CA         16.4270   34.8580   13.1920 C.3      15 GLL5        0.0000 
     45 CA         20.3820   35.7910   12.2040 C.3      10 GLP5        0.0000 
     46 N          18.0455   36.6190   16.2215 N.am      2 SEC2        0.0000 
     47 N          17.6620   35.3610   15.1370 N.am     12 SEL2        0.0000 
     48 N          18.4290   37.8770   17.3060 N.am      7 SEP2        0.0000 
     49 N          19.2835   35.5550   15.4195 N.am      2 SEC2        0.0000 
     50 N          20.9050   35.7490   15.7020 N.am      7 SEP2        0.0000 
     51 N          17.2960   37.7840   16.3510 N.am      2 SEC2        0.0000 
     52 N          16.1630   37.6910   15.3960 N.am     12 SEL2        0.0000 
     53 O          15.7205   38.8835   15.0205 O.2       1 ALC1        0.0000 
     54 O          16.1630   37.6910   15.3960 O.2      11 ALL1        0.0000 
     55 O          15.2780   40.0760   14.6450 O.2       6 ALP1        0.0000 
     56 CA         16.9945   37.3630   10.9275 C.3       5 GLC5        0.0000 
     57 CA         16.6920   37.2130   13.1110 C.3      15 GLL5        0.0000 
     58 CA         17.2970   37.5130    8.7440 C.3      10 GLP5        0.0000 
     59 CA         18.5370   36.5020   12.6575 C.3       5 GLC5        0.0000 
     60 N          15.6070   41.6130   11.2900 N.am      2 SEC2        0.0000 
     61 N          15.8370   40.1890   11.0980 N.am     12 SEL2        0.0000 
     62 N          15.3770   43.0370   11.4820 N.am      7 SEP2        0.0000 
     63 CA         15.9655   40.9595   10.0705 C.3       5 GLC5        0.0000 
     64 CA         14.6770   39.4370   11.0360 C.3      15 GLL5        0.0000 
     65 CA         17.2540   42.4820    9.1050 C.3      10 GLP5        0.0000 
     66 CA         15.9870   38.4750    9.8900 C.3       5 GLC5        0.0000 
     67 CA         14.3585   37.8170    9.5885 C.3       5 GLC5        0.0000 
     68 CA         13.4220   39.6480   10.3950 C.3      15 GLL5        0.0000 
     69 O          13.7905   41.9715    9.2675 O.2       1 ALC1        0.0000 
     70 O          13.1930   40.7400    9.6840 O.2      11 ALL1        0.0000 
     71 O          14.3880   43.2030    8.8510 O.2       6 ALP1        0.0000 
     72 CA         12.3370   38.8680   12.7500 C.3       5 GLC5        0.0000 
     73 CA         12.6870   37.6050   11.2440 C.3      15 GLL5        0.0000 
     74 CA         11.9870   40.1310   14.2560 C.3      10 GLP5        0.0000 
     75 CA         12.3995   35.9290   10.7710 C.3       5 GLC5        0.0000 
     76 CA         12.4235   36.9750   13.1225 C.3       5 GLC5        0.0000 
     77 CA         10.8550   37.9360   11.2050 C.3       5 GLC5        0.0000 
     78 CA          9.0230   38.2670   11.1660 C.3      10 GLP5        0.0000 
     79 CA         13.9910   36.7955   10.0130 C.3       5 GLC5        0.0000 
     80 CA         13.3905   39.1950   13.0025 C.3       5 GLC5        0.0000 
     81 CA         14.7940   38.2590   11.7490 C.3      15 GLL5        0.0000 
     82 CA         15.0445   37.1225   10.2655 C.3       5 GLC5        0.0000 
     83 CA         16.4945   33.2112   11.7007 C.3       5 GLC5        0.0000 
     84 CA         17.1970   31.8560   10.4880 C.3      10 GLP5        0.0000 
     85 CA         14.1242   36.2185   14.7375 C.3       5 GLC5        0.0000 
     86 CA         15.8520   36.7960   14.3420 C.3      15 GLL5        0.0000 
     87 CA         18.1291   37.2848   14.5613 C.3       5 GLC5        0.0000 
     88 CA         16.3250   35.3880   14.6060 C.3      15 GLL5        0.0000 
     89 CA         19.8680   37.9170   15.3300 C.3      10 GLP5        0.0000 
     90 CA         14.0673   40.9093   12.0567 C.3       5 GLC5        0.0000 
     91 CA         14.0850   42.2760   13.3980 C.3      10 GLP5        0.0000 
@<TRIPOS>BOND
@<TRIPOS>SUBSTRUCTURE
     1 ALC1       53 GROUP        1 X    ALC  0     ROOT ALC X 1
     2 SEC2        7 GROUP        1 X    SEC  0     **** SEC X 2
     3 LYC4        4 GROUP        1 X    LYC  0     **** LYC X 4
     4 ZIC7        1 GROUP        1 X    ZIC  0     **** ZIC X 5
     5 GLC5       36 GROUP        1 X    GLC  0     **** GLC X 6
     6 ALP1       55 GROUP        1 Y    ALP  0     ROOT ALP Y 8
     7 SEP2        9 GROUP        1 Y    SEP  0     **** SEP Y 9
     8 LYP4        6 GROUP        1 Y    LYP  0     **** LYP Y 11
     9 ZIP7        3 GROUP        1 Y    ZIP  0     **** ZIP Y 12
    10 GLP5       38 GROUP        1 Y    GLP  0     **** GLP Y 13
    11 ALL1       54 GROUP        1 Z    ALL  0     ROOT ALL Z 15
    12 SEL2        8 GROUP        1 Z    SEL  0     **** SEL Z 16
    13 LYL4        5 GROUP        1 Z    LYL  0     **** LYL Z 18
    14 ZIL7        2 GROUP        1 Z    ZIL  0     **** ZIL Z 19
    15 GLL5       37 GROUP        1 Z    GLL  0     **** GLL Z 20
@<TRIPOS>SET

