#    Name: 1nsf_ATP_1_ligand
#    Modification time : Mon Mar 24 18:52:22 2014

@<TRIPOS>MOLECULE
1nsf_ATP_1_ligand
   43    45     1     0     0
SMALL
NO_CHARGES


@<TRIPOS>ATOM
      1 PG         12.6440   27.6500   11.5680 P.3       1 ATP858      0.0000 
      2 O1G        11.4780   27.4460   12.4210 O.co2     1 ATP858      0.0000 
      3 O2G        13.8520   26.9450   11.9980 O.co2     1 ATP858      0.0000 
      4 O3G        12.2840   27.3960   10.1310 O.co2     1 ATP858      0.0000 
      5 PB         12.2350   30.5690   11.6050 P.3       1 ATP858      0.0000 
      6 O1B        11.2180   30.5990   12.6870 O.co2     1 ATP858      0.0000 
      7 O2B        11.7690   30.7580   10.2160 O.co2     1 ATP858      0.0000 
      8 O3B        13.0860   29.1900   11.7260 O.3       1 ATP858      0.0000 
      9 PA         13.7060   32.2380   13.4600 P.3       1 ATP858      0.0000 
     10 O1A        12.7090   33.2660   13.7620 O.co2     1 ATP858      0.0000 
     11 O2A        13.9870   31.1880   14.4630 O.co2     1 ATP858      0.0000 
     12 O3A        13.2930   31.6000   12.0610 O.3       1 ATP858      0.0000 
     13 O5'        15.0500   32.9100   13.0510 O.3       1 ATP858      0.0000 
     14 C5'        15.1570   34.2750   12.6350 C.3       1 ATP858      0.0000 
     15 C4'        16.4270   34.8580   13.1920 C.3       1 ATP858      0.0000 
     16 O4'        16.7580   35.9930   12.3550 O.3       1 ATP858      0.0000 
     17 C3'        16.3250   35.3880   14.6060 C.3       1 ATP858      0.0000 
     18 O3'        17.6620   35.3610   15.1370 O.3       1 ATP858      0.0000 
     19 C2'        15.8520   36.7960   14.3420 C.3       1 ATP858      0.0000 
     20 O2'        16.1630   37.6910   15.3960 O.3       1 ATP858      0.0000 
     21 C1'        16.6920   37.2130   13.1110 C.3       1 ATP858      0.0000 
     22 N9         16.0650   38.2680   12.2720 N.pl3     1 ATP858      0.0000 
     23 C8         16.6190   39.4530   11.8380 C.2       1 ATP858      0.0000 
     24 N7         15.8370   40.1890   11.0980 N.2       1 ATP858      0.0000 
     25 C5         14.6770   39.4370   11.0360 C.ar      1 ATP858      0.0000 
     26 C6         13.4220   39.6480   10.3950 C.ar      1 ATP858      0.0000 
     27 N6         13.1930   40.7400    9.6840 N.pl3     1 ATP858      0.0000 
     28 N1         12.4480   38.7020   10.5250 N.ar      1 ATP858      0.0000 
     29 C2         12.6870   37.6050   11.2440 C.ar      1 ATP858      0.0000 
     30 N3         13.8190   37.2770   11.8980 N.ar      1 ATP858      0.0000 
     31 C4         14.7940   38.2590   11.7490 C.ar      1 ATP858      0.0000 
     32 H          14.3135   34.8711   12.9984 H         1 ATP858      0.0000 
     33 H          15.1864   34.3593   11.5437 H         1 ATP858      0.0000 
     34 H          17.2160   34.1348   13.1356 H         1 ATP858      0.0000 
     35 H          15.6285   34.8507   15.1252 H         1 ATP858      0.0000 
     36 H          14.8463   36.7898   14.0493 H         1 ATP858      0.0000 
     37 H          17.6572   37.4909   13.4470 H         1 ATP858      0.0000 
     38 H          17.5663   39.6998   12.0951 H         1 ATP858      0.0000 
     39 H          12.2775   40.8251    9.2907 H         1 ATP858      0.0000 
     40 H          13.9562   41.3813    9.6043 H         1 ATP858      0.0000 
     41 H          11.8666   36.8781   11.3152 H         1 ATP858      0.0000 
     42 H          17.7675   36.2321   15.6167 H         1 ATP858      0.0000 
     43 H          16.2811   38.5802   14.9539 H         1 ATP858      0.0000 
@<TRIPOS>BOND
     1    2    1 ar   
     2    3    1 ar   
     3    4    1 ar   
     4    8    1 1    
     5    6    5 ar   
     6    7    5 ar   
     7    8    5 1    
     8   12    5 1    
     9   10    9 ar   
    10   11    9 ar   
    11   12    9 1    
    12   13    9 1    
    13   14   13 1    
    14   15   14 1    
    15   32   14 1    
    16   33   14 1    
    17   16   15 1    
    18   17   15 1    
    19   34   15 1    
    20   21   16 1    
    21   18   17 1    
    22   19   17 1    
    23   35   17 1    
    24   42   18 1    
    25   20   19 1    
    26   21   19 1    
    27   36   19 1    
    28   43   20 1    
    29   22   21 1    
    30   37   21 1    
    31   23   22 1    
    32   31   22 1    
    33   24   23 2    
    34   38   23 1    
    35   25   24 1    
    36   26   25 ar   
    37   31   25 ar   
    38   27   26 1    
    39   28   26 ar   
    40   39   27 1    
    41   40   27 1    
    42   29   28 ar   
    43   30   29 ar   
    44   41   29 1    
    45   31   30 ar   
@<TRIPOS>SUBSTRUCTURE
     1 ATP858      1 GROUP   
@<TRIPOS>SET

