#    Name: 3i4b_Z48_2_INTS_M
#    Modification time : Tue Mar 25 15:52:08 2014

@<TRIPOS>MOLECULE
3i4b_Z48_2_INTS_M
   85     0     9     0     0
SMALL
NO_CHARGES


@<TRIPOS>ATOM
      1 CA         18.8940   60.8760   84.6305 C.3       3 GLC5        0.0000 
      2 CA         19.0710   61.2300   82.6000 C.3       9 GLL5        0.0000 
      3 CA         18.7170   60.5220   86.6610 C.3       6 GLP5        0.0000 
      4 CA         17.1900   61.3815   82.6000 C.3       3 GLC5        0.0000 
      5 CA         15.3090   61.5330   82.6000 C.3       6 GLP5        0.0000 
      6 CA         21.2780   64.0055   84.3510 C.3       3 GLC5        0.0000 
      7 CA         21.0850   62.4570   83.1510 C.3       9 GLL5        0.0000 
      8 CA         21.4710   65.5540   85.5510 C.3       6 GLP5        0.0000 
      9 N          22.8385   63.4275   84.3240 N.am      2 SEC2        0.0000 
     10 N          22.3020   62.7980   82.9360 N.am      8 SEL2        0.0000 
     11 N          23.3750   64.0570   85.7120 N.am      5 SEP2        0.0000 
     12 CA         22.6195   63.7780   80.5990 C.3       3 GLC5        0.0000 
     13 CA         22.9650   62.3000   81.9420 C.3       9 GLL5        0.0000 
     14 CA         22.2740   65.2560   79.2560 C.3       6 GLP5        0.0000 
     15 CA         23.3795   60.4645   82.4345 C.3       3 GLC5        0.0000 
     16 CA         23.7940   58.6290   82.9270 C.3       6 GLP5        0.0000 
     17 O          24.8710   63.1525   82.9505 O.2       1 ALC1        0.0000 
     18 O          24.2550   62.7310   81.8180 O.2       7 ALL1        0.0000 
     19 O          25.4870   63.5740   84.0830 O.2       4 ALP1        0.0000 
     20 CA         27.2440   63.4705   82.9890 C.3       3 GLC5        0.0000 
     21 CA         26.5260   62.5430   81.1680 C.3       9 GLL5        0.0000 
     22 CA         27.9620   64.3980   84.8100 C.3       6 GLP5        0.0000 
     23 CA         18.9845   60.1625   77.7125 C.3       3 GLC5        0.0000 
     24 CA         19.5190   58.6480   78.9690 C.3       9 GLL5        0.0000 
     25 CA         18.4500   61.6770   76.4560 C.3       6 GLP5        0.0000 
     26 N          16.0505   57.3060   78.3505 N.am      2 SEC2        0.0000 
     27 N          17.4430   57.6350   78.7350 N.am      8 SEL2        0.0000 
     28 N          14.6580   56.9770   77.9660 N.am      5 SEP2        0.0000 
     29 CA         17.9370   55.5240   77.9420 C.3       3 GLC5        0.0000 
     30 CA         17.9450   56.6910   76.2070 C.3       9 GLL5        0.0000 
     31 CA         17.9290   54.3570   79.6770 C.3       6 GLP5        0.0000 
     32 CA         18.3840   56.5875   73.4630 C.3       3 GLC5        0.0000 
     33 CA         18.9260   55.8380   75.4190 C.3       9 GLL5        0.0000 
     34 CA         17.8420   57.3370   71.5070 C.3       6 GLP5        0.0000 
     35 O          18.7465   54.1630   76.8900 O.2       1 ALC1        0.0000 
     36 O          19.5480   54.9470   76.2800 O.2       7 ALL1        0.0000 
     37 O          17.9450   53.3790   77.5000 O.2       4 ALP1        0.0000 
     38 CA         14.9460   56.5375   71.9765 C.3       3 GLC5        0.0000 
     39 CA         15.0790   57.4160   73.9560 C.3       9 GLL5        0.0000 
     40 CA         14.8130   55.6590   69.9970 C.3       6 GLP5        0.0000 
     41 CA         16.4535   61.3485   73.3870 C.3       3 GLC5        0.0000 
     42 CA         16.2690   59.4070   74.2280 C.3       9 GLL5        0.0000 
     43 CA         16.6380   63.2900   72.5460 C.3       6 GLP5        0.0000 
     44 CA         19.6502   63.4645   82.4406 C.3       3 GLC5        0.0000 
     45 CA         18.8700   65.0010   82.0780 C.3       6 GLP5        0.0000 
     46 CA         23.6610   63.7415   79.7422 C.3       3 GLC5        0.0000 
     47 CA         25.2060   62.4220   80.8590 C.3       9 GLL5        0.0000 
     48 CA         26.3930   60.4387   80.9802 C.3       3 GLC5        0.0000 
     49 CA         26.9200   58.3950   80.9470 C.3       6 GLP5        0.0000 
     50 CA         28.2142   61.7317   82.2043 C.3       3 GLC5        0.0000 
     51 CA         29.4120   61.0470   83.6990 C.3       6 GLP5        0.0000 
     52 CA         27.1300   60.2463   80.2845 C.3       3 GLC5        0.0000 
     53 CA         27.5070   62.2900   80.2510 C.3       9 GLL5        0.0000 
     54 CA         28.8500   61.0397   79.1890 C.3       3 GLC5        0.0000 
     55 CA         30.3600   59.9820   78.7560 C.3       6 GLP5        0.0000 
     56 CA         26.1472   60.1470   80.0443 C.3       3 GLC5        0.0000 
     57 CA         25.8590   61.7660   78.6850 C.3       9 GLL5        0.0000 
     58 CA         21.3976   60.4245   83.2803 C.3       3 GLC5        0.0000 
     59 CA         21.1980   61.0500   81.2320 C.3       9 GLL5        0.0000 
     60 CA         21.9810   59.3600   84.5430 C.3       6 GLP5        0.0000 
     61 CA         22.4507   59.1320   81.4017 C.3       3 GLC5        0.0000 
     62 CA         20.7000   60.0330   80.2470 C.3       9 GLL5        0.0000 
     63 CA         19.5280   61.6956   79.2629 C.3       3 GLC5        0.0000 
     64 CA         19.4210   59.6270   79.8960 C.3       9 GLL5        0.0000 
     65 CA         18.8710   63.3070   78.2080 C.3       6 GLP5        0.0000 
     66 CA         17.1627   57.2288   73.2735 C.3       3 GLC5        0.0000 
     67 CA         17.0090   57.4520   75.3110 C.3       9 GLL5        0.0000 
     68 CA         14.8217   57.6983   75.8928 C.3       3 GLC5        0.0000 
     69 CA         15.9580   56.7890   74.7690 C.3       9 GLL5        0.0000 
     70 CA         14.1250   58.2940   77.4230 C.3       6 GLP5        0.0000 
     71 CA         16.4997   57.7050   72.6605 C.3       3 GLC5        0.0000 
     72 CA         13.3783   58.8410   74.2570 C.3       3 GLC5        0.0000 
     73 CA         15.2360   58.7300   73.6720 C.3       9 GLL5        0.0000 
     74 CA         11.5990   59.6090   74.7000 C.3       6 GLP5        0.0000 
     75 CA         14.7942   60.0742   72.5895 C.3       3 GLC5        0.0000 
     76 CA         13.8360   61.0800   71.2290 C.3       6 GLP5        0.0000 
     77 CA         14.9387   58.6812   75.6865 C.3       3 GLC5        0.0000 
     78 CA         18.1795   59.8730   73.2775 C.3       3 GLC5        0.0000 
     79 CA         19.6460   60.6560   71.9170 C.3       6 GLP5        0.0000 
     80 CA         17.2775   58.2135   73.0725 C.3       3 GLC5        0.0000 
     81 CA         17.5815   60.3835   75.5470 C.3       3 GLC5        0.0000 
     82 CA         15.7210   58.1081   76.4133 C.3       3 GLC5        0.0000 
     83 CA         17.1570   58.7730   75.0480 C.3       9 GLL5        0.0000 
     84 CA         20.5409   57.9776   80.8817 C.3       3 GLC5        0.0000 
     85 CA         20.7930   56.5690   82.1090 C.3       6 GLP5        0.0000 
@<TRIPOS>BOND
@<TRIPOS>SUBSTRUCTURE
     1 ALC1       17 GROUP        1 X    ALC  0     ROOT ALC X 1
     2 SEC2        9 GROUP        1 X    SEC  0     **** SEC X 2
     3 GLC5        1 GROUP        1 X    GLC  0     **** GLC X 6
     4 ALP1       19 GROUP        1 Y    ALP  0     ROOT ALP Y 8
     5 SEP2       11 GROUP        1 Y    SEP  0     **** SEP Y 9
     6 GLP5        3 GROUP        1 Y    GLP  0     **** GLP Y 13
     7 ALL1       18 GROUP        1 Z    ALL  0     ROOT ALL Z 15
     8 SEL2       10 GROUP        1 Z    SEL  0     **** SEL Z 16
     9 GLL5        2 GROUP        1 Z    GLL  0     **** GLL Z 20
@<TRIPOS>SET

