#    Name: 3i4b_Z48_2_ligand
#    Modification time : Tue Mar 25 15:52:08 2014

@<TRIPOS>MOLECULE
3i4b_Z48_2_ligand
   54    57     1     0     0
SMALL
NO_CHARGES


@<TRIPOS>ATOM
      1 C1         19.0710   61.2300   82.6000 C.3       1 Z48501      0.0000 
      2 C2         20.4810   61.5680   82.3110 C.ar      1 Z48501      0.0000 
      3 C3         21.0850   62.4570   83.1510 C.ar      1 Z48501      0.0000 
      4 N4         22.3020   62.7980   82.9360 N.ar      1 Z48501      0.0000 
      5 C5         22.9650   62.3000   81.9420 C.ar      1 Z48501      0.0000 
      6 N6         24.2550   62.7310   81.8180 N.pl3     1 Z48501      0.0000 
      7 C7         25.2060   62.4220   80.8590 C.ar      1 Z48501      0.0000 
      8 C8         26.5260   62.5430   81.1680 C.ar      1 Z48501      0.0000 
      9 C9         27.5070   62.2900   80.2510 C.ar      1 Z48501      0.0000 
     10 C10        27.1730   61.9050   78.9930 C.ar      1 Z48501      0.0000 
     11 C11        25.8590   61.7660   78.6850 C.ar      1 Z48501      0.0000 
     12 C12        24.8900   62.0320   79.5980 C.ar      1 Z48501      0.0000 
     13 N13        22.4240   61.4560   81.1190 N.ar      1 Z48501      0.0000 
     14 C14        21.1980   61.0500   81.2320 C.ar      1 Z48501      0.0000 
     15 C15        20.7000   60.0330   80.2470 C.2       1 Z48501      0.0000 
     16 C16        21.5150   59.2370   79.5060 C.2       1 Z48501      0.0000 
     17 N17        20.8190   58.4270   78.7570 N.pl3     1 Z48501      0.0000 
     18 C19        19.5190   58.6480   78.9690 C.2       1 Z48501      0.0000 
     19 C20        19.4210   59.6270   79.8960 C.2       1 Z48501      0.0000 
     20 C21        18.4860   57.8850   78.2720 C.2       1 Z48501      0.0000 
     21 O22        17.4430   57.6350   78.7350 O.2       1 Z48501      0.0000 
     22 N23        18.7700   57.4980   77.0600 N.am      1 Z48501      0.0000 
     23 C24        17.9450   56.6910   76.2070 C.3       1 Z48501      0.0000 
     24 C26        18.9260   55.8380   75.4190 C.3       1 Z48501      0.0000 
     25 O27        19.5480   54.9470   76.2800 O.3       1 Z48501      0.0000 
     26 C28        17.0090   57.4520   75.3110 C.ar      1 Z48501      0.0000 
     27 C29        15.9580   56.7890   74.7690 C.ar      1 Z48501      0.0000 
     28 C30        15.0790   57.4160   73.9560 C.ar      1 Z48501      0.0000 
     29 C31        15.2360   58.7300   73.6720 C.ar      1 Z48501      0.0000 
     30 C32        16.2690   59.4070   74.2280 C.ar      1 Z48501      0.0000 
     31 C33        17.1570   58.7730   75.0480 C.ar      1 Z48501      0.0000 
     32 H          20.5278   62.8356   83.9528 H         1 Z48501      0.0000 
     33 H          24.5988   63.4325   82.5970 H         1 Z48501      0.0000 
     34 H          26.8005   62.8388   82.1372 H         1 Z48501      0.0000 
     35 H          28.5031   62.3931   80.5196 H         1 Z48501      0.0000 
     36 H          27.9009   61.7225   78.2882 H         1 Z48501      0.0000 
     37 H          25.5865   61.4474   77.7247 H         1 Z48501      0.0000 
     38 H          23.8848   61.9348   79.3252 H         1 Z48501      0.0000 
     39 H          22.5013   59.2885   79.5505 H         1 Z48501      0.0000 
     40 H          21.1750   57.7583   78.1339 H         1 Z48501      0.0000 
     41 H          18.6136   59.9930   80.2621 H         1 Z48501      0.0000 
     42 H          19.7090   57.7878   76.6069 H         1 Z48501      0.0000 
     43 H          17.3639   55.9897   76.8237 H         1 Z48501      0.0000 
     44 H          19.6353   56.5220   74.9300 H         1 Z48501      0.0000 
     45 H          18.3566   55.3339   74.6242 H         1 Z48501      0.0000 
     46 H          15.8262   55.7714   74.9855 H         1 Z48501      0.0000 
     47 H          14.2796   56.8882   73.5471 H         1 Z48501      0.0000 
     48 H          14.5752   59.2119   73.0379 H         1 Z48501      0.0000 
     49 H          16.3912   60.4242   74.0302 H         1 Z48501      0.0000 
     50 H          17.9428   59.3057   75.4672 H         1 Z48501      0.0000 
     51 H          18.9646   60.8261   83.5086 H         1 Z48501      0.0000 
     52 H          18.4814   62.0370   82.5671 H         1 Z48501      0.0000 
     53 H          18.7044   60.5722   81.9421 H         1 Z48501      0.0000 
     54 H          18.8041   54.4116   76.6799 H         1 Z48501      0.0000 
@<TRIPOS>BOND
     1    2    1 1    
     2   51    1 1    
     3   52    1 1    
     4   53    1 1    
     5    3    2 ar   
     6   14    2 ar   
     7    4    3 ar   
     8   32    3 1    
     9    5    4 ar   
    10    6    5 1    
    11   13    5 ar   
    12    7    6 1    
    13   33    6 1    
    14    8    7 ar   
    15   12    7 ar   
    16    9    8 ar   
    17   34    8 1    
    18   10    9 ar   
    19   35    9 1    
    20   11   10 ar   
    21   36   10 1    
    22   12   11 ar   
    23   37   11 1    
    24   38   12 1    
    25   14   13 ar   
    26   15   14 1    
    27   16   15 2    
    28   19   15 1    
    29   17   16 1    
    30   39   16 1    
    31   18   17 1    
    32   40   17 1    
    33   19   18 2    
    34   20   18 1    
    35   41   19 1    
    36   21   20 2    
    37   22   20 am   
    38   23   22 1    
    39   42   22 1    
    40   24   23 1    
    41   26   23 1    
    42   43   23 1    
    43   25   24 1    
    44   44   24 1    
    45   45   24 1    
    46   54   25 1    
    47   27   26 ar   
    48   31   26 ar   
    49   28   27 ar   
    50   46   27 1    
    51   29   28 ar   
    52   47   28 1    
    53   30   29 ar   
    54   48   29 1    
    55   31   30 ar   
    56   49   30 1    
    57   50   31 1    
@<TRIPOS>SUBSTRUCTURE
     1 Z48501      1 GROUP   
@<TRIPOS>SET

