#    Name: 3iw2_EKO_1_INTS_M
#    Modification time : Tue Mar 25 17:34:04 2014

@<TRIPOS>MOLECULE
3iw2_EKO_1_INTS_M
   56     0     3     0     0
SMALL
NO_CHARGES


@<TRIPOS>ATOM
      1 CA         16.6325   42.8290   -0.5260 C.3       1 GLC5        0.0000 
      2 CA         18.6390   42.6540   -0.7170 C.3       3 GLL5        0.0000 
      3 CA         14.6260   43.0040   -0.3350 C.3       2 GLP5        0.0000 
      4 CA         17.7950   43.3240   -2.5795 C.3       1 GLC5        0.0000 
      5 CA         16.9510   43.9940   -4.4420 C.3       2 GLP5        0.0000 
      6 CA         21.9270   39.6850    5.0770 C.3       1 GLC5        0.0000 
      7 CA         20.6680   40.7300    3.9220 C.3       3 GLL5        0.0000 
      8 CA         23.1860   38.6400    6.2320 C.3       2 GLP5        0.0000 
      9 CA         18.4010   46.6470   -7.1420 C.3       1 GLC5        0.0000 
     10 CA         19.9960   45.8580   -6.9340 C.3       3 GLL5        0.0000 
     11 CA         16.8060   47.4360   -7.3500 C.3       2 GLP5        0.0000 
     12 CA         19.7795   47.7610   -6.2765 C.3       1 GLC5        0.0000 
     13 CA         19.5630   49.6640   -5.6190 C.3       2 GLP5        0.0000 
     14 CA         23.6570   40.7765   -2.2040 C.3       1 GLC5        0.0000 
     15 CA         22.2450   42.3160   -2.5730 C.3       3 GLL5        0.0000 
     16 CA         25.0690   39.2370   -1.8350 C.3       2 GLP5        0.0000 
     17 CA         22.8890   42.9945   -0.5935 C.3       1 GLC5        0.0000 
     18 CA         23.5330   43.6730    1.3860 C.3       2 GLP5        0.0000 
     19 CA         22.6555   41.1430   -5.4665 C.3       1 GLC5        0.0000 
     20 CA         21.6850   42.7040   -5.0300 C.3       3 GLL5        0.0000 
     21 CA         23.6260   39.5820   -5.9030 C.3       2 GLP5        0.0000 
     22 CA         17.9035   42.2980   -4.6920 C.3       1 GLC5        0.0000 
     23 CA         18.8560   40.6020   -4.9420 C.3       3 GLL5        0.0000 
     24 CA         21.6525   42.6180    1.4325 C.3       1 GLC5        0.0000 
     25 CA         19.7720   41.5630    1.4790 C.3       3 GLL5        0.0000 
     26 CA         23.0930   42.5480   -6.3175 C.3       1 GLC5        0.0000 
     27 CA         21.1760   43.4860   -6.0600 C.3       3 GLL5        0.0000 
     28 CA         25.0100   41.6100   -6.5750 C.3       2 GLP5        0.0000 
     29 CA         21.3515   47.1740   -4.0640 C.3       1 GLC5        0.0000 
     30 CA         20.6970   45.2000   -4.4110 C.3       3 GLL5        0.0000 
     31 CA         22.0060   49.1480   -3.7170 C.3       2 GLP5        0.0000 
     32 CA         21.6410   39.6885   -5.0480 C.3       1 GLC5        0.0000 
     33 CA         19.6560   39.7950   -4.1930 C.3       3 GLL5        0.0000 
     34 CA         22.6182   41.1677    2.7050 C.3       1 GLC5        0.0000 
     35 CA         20.6210   40.7150    2.1900 C.3       3 GLL5        0.0000 
     36 CA         24.5920   41.6130    2.3540 C.3       2 GLP5        0.0000 
     37 CA         18.8162   40.8393    3.6100 C.3       1 GLC5        0.0000 
     38 CA         16.9880   40.9560    4.1640 C.3       2 GLP5        0.0000 
     39 CA         18.6433   44.6463   -5.3855 C.3       1 GLC5        0.0000 
     40 CA         20.6750   44.7390   -5.7240 C.3       3 GLL5        0.0000 
     41 CA         21.6504   38.8481   -2.1123 C.3       1 GLC5        0.0000 
     42 CA         20.8100   40.2630   -2.0190 C.3       3 GLL5        0.0000 
     43 CA         23.2100   37.5200   -2.2290 C.3       2 GLP5        0.0000 
     44 CA         22.8485   38.9265   -0.1838 C.3       1 GLC5        0.0000 
     45 CA         21.4210   39.7680    0.2140 C.3       3 GLL5        0.0000 
     46 CA         24.2650   38.0680   -1.2640 C.3       2 GLP5        0.0000 
     47 CA         23.0120   40.6990    1.6252 C.3       1 GLC5        0.0000 
     48 CA         18.9490   44.3967   -4.1738 C.3       1 GLC5        0.0000 
     49 CA         21.1970   44.3990   -3.4000 C.3       3 GLL5        0.0000 
     50 CA         20.1745   44.9943   -2.1357 C.3       1 GLC5        0.0000 
     51 CA         19.4020   45.1890   -0.3660 C.3       2 GLP5        0.0000 
     52 CA         19.4421   43.5054    0.1083 C.3       1 GLC5        0.0000 
     53 CA         20.3386   42.9219    3.2157 C.3       1 GLC5        0.0000 
     54 CA         20.4690   44.7010    4.1640 C.3       2 GLP5        0.0000 
     55 CA         18.0061   41.4929    1.6647 C.3       1 GLC5        0.0000 
     56 CA         16.5300   41.1640    2.7470 C.3       2 GLP5        0.0000 
@<TRIPOS>BOND
@<TRIPOS>SUBSTRUCTURE
     1 GLC5        1 GROUP        1 X    GLC  0     ROOT GLC X 6
     2 GLP5        3 GROUP        1 Y    GLP  0     ROOT GLP Y 13
     3 GLL5        2 GROUP        1 Z    GLL  0     ROOT GLL Z 20
@<TRIPOS>SET

