#    Name: 3iw2_EKO_1_ligand
#    Modification time : Tue Mar 25 17:34:04 2014

@<TRIPOS>MOLECULE
3iw2_EKO_1_ligand
   39    41     1     0     0
SMALL
NO_CHARGES


@<TRIPOS>ATOM
      1 O          21.7130   41.0400   -2.8510 O.3       1 EKO665      0.0000 
      2 CL1        18.6390   42.6540   -0.7170 Cl        1 EKO665      0.0000 
      3 CL2        20.6680   40.7300    3.9220 Cl        1 EKO665      0.0000 
      4 CL3        19.9960   45.8580   -6.9340 Cl        1 EKO665      0.0000 
      5 CB         20.8100   40.2630   -2.0190 C.3       1 EKO665      0.0000 
      6 CG         20.6230   40.5960   -0.5510 C.ar      1 EKO665      0.0000 
      7 CZ         20.6210   40.7150    2.1900 C.ar      1 EKO665      0.0000 
      8 CB2        22.2450   42.3160   -2.5730 C.3       1 EKO665      0.0000 
      9 CB3        19.4650   39.9230   -2.7060 C.3       1 EKO665      0.0000 
     10 CD1        19.7460   41.5070    0.0890 C.ar      1 EKO665      0.0000 
     11 ND1        20.4870   39.0620   -4.9750 N.2       1 EKO665      0.0000 
     12 CD2        21.4210   39.7680    0.2140 C.ar      1 EKO665      0.0000 
     13 CD3        21.6850   42.7040   -5.0300 C.ar      1 EKO665      0.0000 
     14 CD4        21.1970   44.3990   -3.4000 C.ar      1 EKO665      0.0000 
     15 CD5        18.8560   40.6020   -4.9420 C.2       1 EKO665      0.0000 
     16 CE1        19.7720   41.5630    1.4790 C.ar      1 EKO665      0.0000 
     17 CE2        21.4430   39.8020    1.5790 C.ar      1 EKO665      0.0000 
     18 NE2        19.1860   40.3780   -6.2470 N.pl3     1 EKO665      0.0000 
     19 CE3        21.1760   43.4860   -6.0600 C.ar      1 EKO665      0.0000 
     20 CE4        20.6970   45.2000   -4.4110 C.ar      1 EKO665      0.0000 
     21 CE5        20.1740   39.4220   -6.2700 C.2       1 EKO665      0.0000 
     22 CG2        21.7040   43.1600   -3.7030 C.ar      1 EKO665      0.0000 
     23 CG4        19.6560   39.7950   -4.1930 C.2       1 EKO665      0.0000 
     24 CZ2        20.6750   44.7390   -5.7240 C.ar      1 EKO665      0.0000 
     25 H          21.3087   39.1677   -1.9744 H         1 EKO665      0.0000 
     26 H          23.3172   42.3350   -2.6176 H         1 EKO665      0.0000 
     27 H          21.8865   42.7196   -1.6454 H         1 EKO665      0.0000 
     28 H          18.7558   40.7167   -2.4857 H         1 EKO665      0.0000 
     29 H          19.0945   38.9881   -2.2934 H         1 EKO665      0.0000 
     30 H          22.0427   39.0765   -0.2876 H         1 EKO665      0.0000 
     31 H          22.0609   41.7607   -5.2410 H         1 EKO665      0.0000 
     32 H          21.1867   44.7351   -2.4263 H         1 EKO665      0.0000 
     33 H          18.1962   41.2043   -4.6211 H         1 EKO665      0.0000 
     34 H          19.1697   42.2248    1.9803 H         1 EKO665      0.0000 
     35 H          22.0379   39.1828    2.1186 H         1 EKO665      0.0000 
     36 H          18.8042   40.8041   -7.0093 H         1 EKO665      0.0000 
     37 H          21.1700   43.1575   -7.0152 H         1 EKO665      0.0000 
     38 H          20.3386   46.1421   -4.1950 H         1 EKO665      0.0000 
     39 H          20.5828   39.0607   -7.0596 H         1 EKO665      0.0000 
@<TRIPOS>BOND
     1    5    1 1    
     2    8    1 1    
     3   10    2 1    
     4    7    3 1    
     5   24    4 1    
     6    6    5 1    
     7    9    5 1    
     8   25    5 1    
     9   10    6 ar   
    10   12    6 ar   
    11   16    7 ar   
    12   17    7 ar   
    13   22    8 1    
    14   26    8 1    
    15   27    8 1    
    16   23    9 1    
    17   28    9 1    
    18   29    9 1    
    19   16   10 ar   
    20   21   11 2    
    21   23   11 1    
    22   17   12 ar   
    23   30   12 1    
    24   19   13 ar   
    25   22   13 ar   
    26   31   13 1    
    27   20   14 ar   
    28   22   14 ar   
    29   32   14 1    
    30   18   15 1    
    31   23   15 2    
    32   33   15 1    
    33   34   16 1    
    34   35   17 1    
    35   21   18 1    
    36   36   18 1    
    37   24   19 ar   
    38   37   19 1    
    39   24   20 ar   
    40   38   20 1    
    41   39   21 1    
@<TRIPOS>SUBSTRUCTURE
     1 EKO665      1 GROUP   
@<TRIPOS>SET

