#    Name: 2euf_LQQ_1_INTS_M
#    Modification time : Tue Mar 25 11:31:46 2014

@<TRIPOS>MOLECULE
2euf_LQQ_1_INTS_M
   72     0     9     0     0
SMALL
NO_CHARGES


@<TRIPOS>ATOM
      1 N          31.2880   28.9590   59.5025 N.am      2 SEC2        0.0000 
      2 N          32.4090   28.5440   60.1410 N.am      8 SEL2        0.0000 
      3 N          30.1670   29.3740   58.8640 N.am      5 SEP2        0.0000 
      4 CA         35.4450   27.4445   57.6185 C.3       3 GLC5        0.0000 
      5 CA         34.3120   27.5070   59.1620 C.3       9 GLL5        0.0000 
      6 CA         36.5780   27.3820   56.0750 C.3       6 GLP5        0.0000 
      7 CA         35.8175   27.9605   59.6430 C.3       3 GLC5        0.0000 
      8 CA         37.3230   28.4140   60.1240 C.3       6 GLP5        0.0000 
      9 CA         34.8330   24.9380   62.9680 C.3       3 GLC5        0.0000 
     10 CA         33.4290   26.4260   62.6690 C.3       9 GLL5        0.0000 
     11 CA         36.2370   23.4500   63.2670 C.3       6 GLP5        0.0000 
     12 CA         35.0355   26.8405   63.1630 C.3       3 GLC5        0.0000 
     13 CA         36.6420   27.2550   63.6570 C.3       6 GLP5        0.0000 
     14 CA         32.8870   21.8545   62.3715 C.3       3 GLC5        0.0000 
     15 CA         32.1990   23.7830   63.2720 C.3       9 GLL5        0.0000 
     16 CA         33.5750   19.9260   61.4710 C.3       6 GLP5        0.0000 
     17 CA         34.2180   23.6165   63.2695 C.3       3 GLC5        0.0000 
     18 CA         33.3530   23.1080   65.0135 C.3       3 GLC5        0.0000 
     19 CA         34.5070   22.4330   66.7550 C.3       6 GLP5        0.0000 
     20 CA         31.0275   23.5155   65.0590 C.3       3 GLC5        0.0000 
     21 CA         29.8560   23.2480   66.8460 C.3       6 GLP5        0.0000 
     22 N          31.8440   22.3800   65.1090 N.am      2 SEC2        0.0000 
     23 N          31.5880   22.6260   63.5420 N.am      8 SEL2        0.0000 
     24 N          32.1000   22.1340   66.6760 N.am      5 SEP2        0.0000 
     25 CA         32.2235   20.9470   62.0390 C.3       3 GLC5        0.0000 
     26 CA         30.8720   21.9680   62.6070 C.3       9 GLL5        0.0000 
     27 CA         30.0455   23.6210   63.1260 C.3       3 GLC5        0.0000 
     28 CA         29.2190   25.2740   63.6450 C.3       6 GLP5        0.0000 
     29 CA         32.4205   21.8030   61.2190 C.3       3 GLC5        0.0000 
     30 CA         31.2660   23.6800   60.9670 C.3       9 GLL5        0.0000 
     31 CA         27.3650   25.4735   58.3015 C.3       3 GLC5        0.0000 
     32 CA         29.2130   24.2680   58.0150 C.3       9 GLL5        0.0000 
     33 CA         25.5170   26.6790   58.5880 C.3       6 GLP5        0.0000 
     34 CA         31.6110   23.7910   54.7305 C.3       3 GLC5        0.0000 
     35 CA         30.5060   22.9550   56.3320 C.3       9 GLL5        0.0000 
     36 CA         32.7160   24.6270   53.1290 C.3       6 GLP5        0.0000 
     37 CA         33.1975   22.5900   57.4810 C.3       3 GLC5        0.0000 
     38 CA         31.2520   22.9450   57.6650 C.3       9 GLL5        0.0000 
     39 CA         35.1430   22.2350   57.2970 C.3       6 GLP5        0.0000 
     40 O          30.4370   20.4885   64.3415 O.2       1 ALC1        0.0000 
     41 O          30.3500   20.7760   63.0170 O.2       7 ALL1        0.0000 
     42 O          30.5240   20.2010   65.6660 O.2       4 ALP1        0.0000 
     43 CA         28.1445   19.2610   63.5000 C.3       3 GLC5        0.0000 
     44 CA         29.6660   19.8610   62.2880 C.3       9 GLL5        0.0000 
     45 CA         26.6230   18.6610   64.7120 C.3       6 GLP5        0.0000 
     46 CA         28.3215   22.1225   61.6670 C.3       3 GLC5        0.0000 
     47 CA         29.1170   20.1840   61.0520 C.3       9 GLL5        0.0000 
     48 CA         27.5260   24.0610   62.2820 C.3       6 GLP5        0.0000 
     49 CA         30.3655   16.3985   60.5175 C.3       3 GLC5        0.0000 
     50 CA         28.4660   15.8000   59.9060 C.3       9 GLL5        0.0000 
     51 CA         32.2650   16.9970   61.1290 C.3       6 GLP5        0.0000 
     52 CA         32.6882   27.2415   63.4455 C.3       3 GLC5        0.0000 
     53 CA         32.6480   25.6900   61.6150 C.3       9 GLL5        0.0000 
     54 CA         32.3380   28.4250   64.7490 C.3       6 GLP5        0.0000 
     55 CA         31.1288   25.6660   62.8935 C.3       3 GLC5        0.0000 
     56 CA         30.7101   26.5332   61.2920 C.3       3 GLC5        0.0000 
     57 CA         31.9290   24.4600   62.0050 C.3       9 GLL5        0.0000 
     58 CA         29.1900   27.8610   61.0930 C.3       6 GLP5        0.0000 
     59 CA         30.4420   24.5874   62.7239 C.3       3 GLC5        0.0000 
     60 CA         31.1890   21.0425   56.1512 C.3       3 GLC5        0.0000 
     61 CA         31.4990   19.1350   55.3040 C.3       6 GLP5        0.0000 
     62 CA         30.4135   17.4027   61.3195 C.3       3 GLC5        0.0000 
     63 CA         28.8440   17.6710   62.1330 C.3       9 GLL5        0.0000 
     64 CA         27.5925   18.2347   63.1110 C.3       3 GLC5        0.0000 
     65 CA         30.6659   18.8656   60.5603 C.3       3 GLC5        0.0000 
     66 CA         28.4240   19.2200   60.3470 C.3       9 GLL5        0.0000 
     67 CA         32.4240   18.1100   60.1120 C.3       6 GLP5        0.0000 
     68 CA         26.8962   20.4645   60.8503 C.3       3 GLC5        0.0000 
     69 CA         25.0220   21.2270   61.0010 C.3       6 GLP5        0.0000 
     70 CA         25.1068   16.5520   59.9555 C.3       3 GLC5        0.0000 
     71 CA         26.9860   17.5260   58.9330 C.3       9 GLL5        0.0000 
     72 CA         23.5500   16.1030   61.4320 C.3       6 GLP5        0.0000 
@<TRIPOS>BOND
@<TRIPOS>SUBSTRUCTURE
     1 ALC1       40 GROUP        1 X    ALC  0     ROOT ALC X 1
     2 SEC2        1 GROUP        1 X    SEC  0     **** SEC X 2
     3 GLC5        4 GROUP        1 X    GLC  0     **** GLC X 6
     4 ALP1       42 GROUP        1 Y    ALP  0     ROOT ALP Y 8
     5 SEP2        3 GROUP        1 Y    SEP  0     **** SEP Y 9
     6 GLP5        6 GROUP        1 Y    GLP  0     **** GLP Y 13
     7 ALL1       41 GROUP        1 Z    ALL  0     ROOT ALL Z 15
     8 SEL2        2 GROUP        1 Z    SEL  0     **** SEL Z 16
     9 GLL5        5 GROUP        1 Z    GLL  0     **** GLL Z 20
@<TRIPOS>SET

