#    Name: 2euf_LQQ_1_ligand
#    Modification time : Tue Mar 25 11:31:46 2014

@<TRIPOS>MOLECULE
2euf_LQQ_1_ligand
   61    65     1     0     0
SMALL
NO_CHARGES


@<TRIPOS>ATOM
      1 O01        32.4090   28.5440   60.1410 O.2       1 LQQ401      0.0000 
      2 C02        33.0080   27.5190   59.9010 C.2       1 LQQ401      0.0000 
      3 C01        34.3120   27.5070   59.1620 C.3       1 LQQ401      0.0000 
      4 C03        32.4150   26.2120   60.3390 C.2       1 LQQ401      0.0000 
      5 C04        32.6480   25.6900   61.6150 C.2       1 LQQ401      0.0000 
      6 C05        33.4290   26.4260   62.6690 C.3       1 LQQ401      0.0000 
      7 C06        31.9290   24.4600   62.0050 C.ar      1 LQQ401      0.0000 
      8 C07        32.1990   23.7830   63.2720 C.ar      1 LQQ401      0.0000 
      9 N01        31.5880   22.6260   63.5420 N.ar      1 LQQ401      0.0000 
     10 C08        30.8720   21.9680   62.6070 C.ar      1 LQQ401      0.0000 
     11 N02        30.7030   22.5010   61.3540 N.ar      1 LQQ401      0.0000 
     12 C09        31.2660   23.6800   60.9670 C.ar      1 LQQ401      0.0000 
     13 N03        31.0700   24.2300   59.7410 N.am      1 LQQ401      0.0000 
     14 C10        30.2950   23.4750   58.7390 C.3       1 LQQ401      0.0000 
     15 C11        29.2130   24.2680   58.0150 C.3       1 LQQ401      0.0000 
     16 C12        29.2870   23.8720   56.5360 C.3       1 LQQ401      0.0000 
     17 C13        30.5060   22.9550   56.3320 C.3       1 LQQ401      0.0000 
     18 C14        31.2520   22.9450   57.6650 C.3       1 LQQ401      0.0000 
     19 C15        31.6630   25.4930   59.4060 C.2       1 LQQ401      0.0000 
     20 O02        31.5220   26.0010   58.2620 O.2       1 LQQ401      0.0000 
     21 N04        30.3500   20.7760   63.0170 N.pl3     1 LQQ401      0.0000 
     22 C16        29.6660   19.8610   62.2880 C.ar      1 LQQ401      0.0000 
     23 N05        29.5140   18.6170   62.8010 N.ar      1 LQQ401      0.0000 
     24 C17        28.8440   17.6710   62.1330 C.ar      1 LQQ401      0.0000 
     25 C18        28.2800   17.9460   60.8870 C.ar      1 LQQ401      0.0000 
     26 C19        28.4240   19.2200   60.3470 C.ar      1 LQQ401      0.0000 
     27 C20        29.1170   20.1840   61.0520 C.ar      1 LQQ401      0.0000 
     28 N06        27.5710   16.9530   60.1740 N.3       1 LQQ401      0.0000 
     29 C21        28.4660   15.8000   59.9060 C.3       1 LQQ401      0.0000 
     30 C22        27.7120   14.6830   59.1890 C.3       1 LQQ401      0.0000 
     31 N07        27.0440   15.1960   58.0030 N.4       1 LQQ401      0.0000 
     32 C23        26.3410   16.4760   58.0250 C.3       1 LQQ401      0.0000 
     33 C24        26.9860   17.5260   58.9330 C.3       1 LQQ401      0.0000 
     34 H          32.8590   24.2372   63.9086 H         1 LQQ401      0.0000 
     35 H          29.8315   22.6018   59.1946 H         1 LQQ401      0.0000 
     36 H          29.4058   25.3180   58.1132 H         1 LQQ401      0.0000 
     37 H          28.2494   24.0077   58.4061 H         1 LQQ401      0.0000 
     38 H          29.4025   24.7570   55.9316 H         1 LQQ401      0.0000 
     39 H          28.3912   23.3395   56.2605 H         1 LQQ401      0.0000 
     40 H          31.1321   23.3621   55.5692 H         1 LQQ401      0.0000 
     41 H          30.1722   21.9689   56.0959 H         1 LQQ401      0.0000 
     42 H          31.5415   21.9387   57.9094 H         1 LQQ401      0.0000 
     43 H          32.1112   23.5884   57.6030 H         1 LQQ401      0.0000 
     44 H          30.5060   20.5292   64.0748 H         1 LQQ401      0.0000 
     45 H          28.7285   16.7137   62.5247 H         1 LQQ401      0.0000 
     46 H          28.0161   19.4373   59.4303 H         1 LQQ401      0.0000 
     47 H          29.2281   21.1296   60.6717 H         1 LQQ401      0.0000 
     48 H          28.8661   15.4043   60.8440 H         1 LQQ401      0.0000 
     49 H          29.3074   16.1104   59.2798 H         1 LQQ401      0.0000 
     50 H          26.9892   14.2530   59.8924 H         1 LQQ401      0.0000 
     51 H          28.4321   13.8989   58.9266 H         1 LQQ401      0.0000 
     52 H          25.2917   16.3379   58.3598 H         1 LQQ401      0.0000 
     53 H          26.2803   16.9042   57.0026 H         1 LQQ401      0.0000 
     54 H          27.7667   18.0505   58.3549 H         1 LQQ401      0.0000 
     55 H          26.2203   18.2789   59.1893 H         1 LQQ401      0.0000 
     56 H          35.0153   28.0320   59.6412 H         1 LQQ401      0.0000 
     57 H          34.6658   26.5786   59.0482 H         1 LQQ401      0.0000 
     58 H          34.2241   27.9014   58.2473 H         1 LQQ401      0.0000 
     59 H          34.3647   26.6169   62.3723 H         1 LQQ401      0.0000 
     60 H          33.0088   27.3043   62.8970 H         1 LQQ401      0.0000 
     61 H          33.4920   25.9019   63.5183 H         1 LQQ401      0.0000 
@<TRIPOS>BOND
     1    2    1 2    
     2    3    2 1    
     3    4    2 1    
     4   56    3 1    
     5   57    3 1    
     6   58    3 1    
     7    5    4 2    
     8   19    4 1    
     9    6    5 1    
    10    7    5 1    
    11   59    6 1    
    12   60    6 1    
    13   61    6 1    
    14    8    7 ar   
    15   12    7 ar   
    16    9    8 ar   
    17   34    8 1    
    18   10    9 ar   
    19   11   10 ar   
    20   21   10 1    
    21   12   11 ar   
    22   13   12 1    
    23   14   13 1    
    24   19   13 am   
    25   15   14 1    
    26   18   14 1    
    27   35   14 1    
    28   16   15 1    
    29   36   15 1    
    30   37   15 1    
    31   17   16 1    
    32   38   16 1    
    33   39   16 1    
    34   18   17 1    
    35   40   17 1    
    36   41   17 1    
    37   42   18 1    
    38   43   18 1    
    39   20   19 2    
    40   22   21 1    
    41   44   21 1    
    42   23   22 ar   
    43   27   22 ar   
    44   24   23 ar   
    45   25   24 ar   
    46   45   24 1    
    47   26   25 ar   
    48   28   25 1    
    49   27   26 ar   
    50   46   26 1    
    51   47   27 1    
    52   29   28 1    
    53   33   28 1    
    54   30   29 1    
    55   48   29 1    
    56   49   29 1    
    57   31   30 1    
    58   50   30 1    
    59   51   30 1    
    60   32   31 1    
    61   33   32 1    
    62   52   32 1    
    63   53   32 1    
    64   54   33 1    
    65   55   33 1    
@<TRIPOS>SUBSTRUCTURE
     1 LQQ401      1 GROUP   
@<TRIPOS>SET

