#    Name: 3qti_3QT_2_INTS_M
#    Modification time : Mon Apr  7 19:50:55 2014

@<TRIPOS>MOLECULE
3qti_3QT_2_INTS_M
   69     0     6     0     0
SMALL
NO_CHARGES


@<TRIPOS>ATOM
      1 CA         33.4205   26.0140   19.7575 C.3       2 GLC5        0.0000 
      2 CA         34.1640   25.2800   21.5400 C.3       6 GLL5        0.0000 
      3 CA         32.6770   26.7480   17.9750 C.3       4 GLP5        0.0000 
      4 N          32.3665   24.7900   19.7345 N.am      1 SEC2        0.0000 
      5 N          33.5270   24.5770   20.5670 N.am      5 SEL2        0.0000 
      6 N          31.2060   25.0030   18.9020 N.am      3 SEP2        0.0000 
      7 CA         32.7990   27.1395   20.4620 C.3       2 GLC5        0.0000 
      8 CA         33.5220   26.3980   22.1310 C.3       6 GLL5        0.0000 
      9 CA         32.0760   27.8810   18.7930 C.3       4 GLP5        0.0000 
     10 CA         33.3845   29.1230   23.1825 C.3       2 GLC5        0.0000 
     11 CA         34.1390   27.1270   23.1700 C.3       6 GLL5        0.0000 
     12 CA         32.6300   31.1190   23.1950 C.3       4 GLP5        0.0000 
     13 CA         36.7720   26.1505   25.8195 C.3       2 GLC5        0.0000 
     14 CA         36.1520   27.6100   24.6650 C.3       6 GLL5        0.0000 
     15 CA         37.3920   24.6910   26.9740 C.3       4 GLP5        0.0000 
     16 CA         37.6850   28.3375   25.6315 C.3       2 GLC5        0.0000 
     17 CA         39.2180   29.0650   26.5980 C.3       4 GLP5        0.0000 
     18 CA         41.7485   27.8475   18.3805 C.3       2 GLC5        0.0000 
     19 CA         43.2220   26.8990   19.6270 C.3       6 GLL5        0.0000 
     20 CA         40.2750   28.7960   17.1340 C.3       4 GLP5        0.0000 
     21 CA         41.0010   29.4420   22.8775 C.3       2 GLC5        0.0000 
     22 CA         39.3800   30.4180   21.7460 C.3       6 GLL5        0.0000 
     23 CA         42.6220   28.4660   24.0090 C.3       4 GLP5        0.0000 
     24 CA         38.8455   32.8500   23.1735 C.3       2 GLC5        0.0000 
     25 CA         38.4460   31.2710   22.2870 C.3       6 GLL5        0.0000 
     26 CA         39.2450   34.4290   24.0600 C.3       4 GLP5        0.0000 
     27 CA         37.6430   32.5580   23.9160 C.3       2 GLC5        0.0000 
     28 CA         37.4330   30.7180   23.1080 C.3       6 GLL5        0.0000 
     29 CA         37.8530   34.3980   24.7240 C.3       4 GLP5        0.0000 
     30 CA         34.2340   30.6470   23.8325 C.3       2 GLC5        0.0000 
     31 CA         35.8380   30.1750   24.4700 C.3       6 GLL5        0.0000 
     32 CA         35.5795   31.6965   22.9975 C.3       2 GLC5        0.0000 
     33 CA         35.3210   33.2180   21.5250 C.3       4 GLP5        0.0000 
     34 CA         35.3240   30.9550   26.0000 C.3       2 GLC5        0.0000 
     35 CA         34.8100   31.7350   27.5300 C.3       4 GLP5        0.0000 
     36 CA         33.7280   24.5130   23.0820 C.3       2 GLC5        0.0000 
     37 CA         35.5030   24.9600   21.9550 C.3       6 GLL5        0.0000 
     38 CA         31.9530   24.0660   24.2090 C.3       4 GLP5        0.0000 
     39 CA         32.9410   24.5905   18.8100 C.3       2 GLC5        0.0000 
     40 CA         34.1990   23.5680   19.9530 C.3       6 GLL5        0.0000 
     41 CA         31.6830   25.6130   17.6670 C.3       4 GLP5        0.0000 
     42 CA         34.4823   23.1795   22.4297 C.3       2 GLC5        0.0000 
     43 CA         34.1310   21.2390   23.1120 C.3       4 GLP5        0.0000 
     44 CA         34.9910   26.6115   20.6463 C.3       2 GLC5        0.0000 
     45 CA         36.1390   27.3840   19.4570 C.3       4 GLP5        0.0000 
     46 CA         32.9720   25.2745   23.3559 C.3       2 GLC5        0.0000 
     47 CA         33.7888   27.7523   25.0108 C.3       2 GLC5        0.0000 
     48 CA         32.7750   28.5310   26.6540 C.3       4 GLP5        0.0000 
     49 CA         35.4708   27.1788   21.4123 C.3       2 GLC5        0.0000 
     50 CA         38.3893   28.7560   20.5185 C.3       2 GLC5        0.0000 
     51 CA         39.3520   29.0100   22.0320 C.3       6 GLL5        0.0000 
     52 CA         36.9340   28.9770   19.2820 C.3       4 GLP5        0.0000 
     53 CA         40.5665   28.4967   19.0968 C.3       2 GLC5        0.0000 
     54 CA         40.3370   28.0600   21.4780 C.3       6 GLL5        0.0000 
     55 CA         41.6169   28.4505   22.6035 C.3       2 GLC5        0.0000 
     56 CA         41.3790   28.3350   20.6410 C.3       6 GLL5        0.0000 
     57 CA         39.6650   32.3577   20.9487 C.3       2 GLC5        0.0000 
     58 CA         40.4170   33.8710   19.8810 C.3       4 GLP5        0.0000 
     59 CA         36.6302   32.1063   22.1112 C.3       2 GLC5        0.0000 
     60 CA         37.5535   29.8791   20.9221 C.3       2 GLC5        0.0000 
     61 CA         34.4255   28.8849   25.5529 C.3       2 GLC5        0.0000 
     62 CA         35.9840   26.3668   20.9540 C.3       2 GLC5        0.0000 
     63 CA         36.1550   25.7390   22.9470 C.3       6 GLL5        0.0000 
     64 CA         35.4334   24.6824   24.3833 C.3       2 GLC5        0.0000 
     65 CA         35.2100   23.7450   26.1610 C.3       4 GLP5        0.0000 
     66 CA         34.5799   22.3966   21.7440 C.3       2 GLC5        0.0000 
     67 CA         36.1890   23.8990   21.3090 C.3       6 GLL5        0.0000 
     68 CA         35.5839   25.4691   19.9165 C.3       2 GLC5        0.0000 
     69 CA         35.5280   23.1820   20.2890 C.3       6 GLL5        0.0000 
@<TRIPOS>BOND
@<TRIPOS>SUBSTRUCTURE
     1 SEC2        4 GROUP        1 X    SEC  0     ROOT SEC X 2
     2 GLC5        1 GROUP        1 X    GLC  0     **** GLC X 6
     3 SEP2        6 GROUP        1 Y    SEP  0     ROOT SEP Y 9
     4 GLP5        3 GROUP        1 Y    GLP  0     **** GLP Y 13
     5 SEL2        5 GROUP        1 Z    SEL  0     ROOT SEL Z 16
     6 GLL5        2 GROUP        1 Z    GLL  0     **** GLL Z 20
@<TRIPOS>SET

