#    Name: 3qti_3QT_2_ligand
#    Modification time : Mon Apr  7 19:50:55 2014

@<TRIPOS>MOLECULE
3qti_3QT_2_ligand
   43    47     1     0     0
SMALL
NO_CHARGES


@<TRIPOS>ATOM
      1 C1         34.1640   25.2800   21.5400 C.ar      1 3QT1        0.0000 
      2 N1         33.5270   24.5770   20.5670 N.ar      1 3QT1        0.0000 
      3 C2         33.5220   26.3980   22.1310 C.ar      1 3QT1        0.0000 
      4 N2         37.5020   29.3170   23.3260 N.pl3     1 3QT1        0.0000 
      5 C3         34.1390   27.1270   23.1700 C.ar      1 3QT1        0.0000 
      6 N3         38.4200   28.4490   22.8200 N.ar      1 3QT1        0.0000 
      7 C4         35.4660   26.8200   23.5650 C.ar      1 3QT1        0.0000 
      8 N4         41.4880   26.1190   21.1190 N.2       1 3QT1        0.0000 
      9 C5         36.1520   27.6100   24.6650 C.3       1 3QT1        0.0000 
     10 N5         42.0450   27.1430   20.4370 N.pl3     1 3QT1        0.0000 
     11 C6         36.4760   28.9950   24.2020 C.2       1 3QT1        0.0000 
     12 N6         36.4470   31.2480   23.8250 N.pl3     1 3QT1        0.0000 
     13 C7         39.3520   29.0100   22.0320 C.ar      1 3QT1        0.0000 
     14 C8         40.3370   28.0600   21.4780 C.2       1 3QT1        0.0000 
     15 C9         40.4650   26.6660   21.7660 C.2       1 3QT1        0.0000 
     16 C10        41.3790   28.3350   20.6410 C.2       1 3QT1        0.0000 
     17 C11        43.2220   26.8990   19.6270 C.3       1 3QT1        0.0000 
     18 C12        39.3800   30.4180   21.7460 C.ar      1 3QT1        0.0000 
     19 C13        38.4460   31.2710   22.2870 C.ar      1 3QT1        0.0000 
     20 C14        37.4330   30.7180   23.1080 C.ar      1 3QT1        0.0000 
     21 C15        35.8380   30.1750   24.4700 C.2       1 3QT1        0.0000 
     22 C16        36.1550   25.7390   22.9470 C.ar      1 3QT1        0.0000 
     23 C17        35.5030   24.9600   21.9550 C.ar      1 3QT1        0.0000 
     24 C18        36.1890   23.8990   21.3090 C.ar      1 3QT1        0.0000 
     25 C19        35.5280   23.1820   20.2890 C.ar      1 3QT1        0.0000 
     26 C20        34.1990   23.5680   19.9530 C.ar      1 3QT1        0.0000 
     27 H          32.5923   26.6795   21.7950 H         1 3QT1        0.0000 
     28 H          33.6313   27.8780   23.6405 H         1 3QT1        0.0000 
     29 H          37.0694   27.0913   24.9562 H         1 3QT1        0.0000 
     30 H          35.4922   27.6540   25.5357 H         1 3QT1        0.0000 
     31 H          36.1851   32.1505   23.9055 H         1 3QT1        0.0000 
     32 H          39.8450   26.2175   22.3752 H         1 3QT1        0.0000 
     33 H          41.6078   29.1728   20.2691 H         1 3QT1        0.0000 
     34 H          40.1224   30.7685   21.1224 H         1 3QT1        0.0000 
     35 H          38.4659   32.2695   22.1144 H         1 3QT1        0.0000 
     36 H          35.0523   30.2670   25.0409 H         1 3QT1        0.0000 
     37 H          37.1123   25.5261   23.2163 H         1 3QT1        0.0000 
     38 H          37.1357   23.6634   21.5777 H         1 3QT1        0.0000 
     39 H          35.9767   22.4205   19.8102 H         1 3QT1        0.0000 
     40 H          33.7322   23.0230   19.1794 H         1 3QT1        0.0000 
     41 H          43.5398   27.7316   19.1734 H         1 3QT1        0.0000 
     42 H          43.9845   26.5541   20.1743 H         1 3QT1        0.0000 
     43 H          43.0464   26.2238   18.9106 H         1 3QT1        0.0000 
@<TRIPOS>BOND
     1    2    1 ar   
     2    3    1 ar   
     3   23    1 ar   
     4   26    2 ar   
     5    5    3 ar   
     6   27    3 1    
     7    6    4 ar   
     8   11    4 1    
     9   20    4 ar   
    10    7    5 ar   
    11   28    5 1    
    12   13    6 ar   
    13    9    7 1    
    14   22    7 ar   
    15   10    8 1    
    16   15    8 2    
    17   11    9 1    
    18   29    9 1    
    19   30    9 1    
    20   16   10 1    
    21   17   10 1    
    22   21   11 2    
    23   20   12 1    
    24   21   12 1    
    25   31   12 1    
    26   14   13 1    
    27   18   13 ar   
    28   15   14 1    
    29   16   14 2    
    30   32   15 1    
    31   33   16 1    
    32   41   17 1    
    33   42   17 1    
    34   43   17 1    
    35   19   18 ar   
    36   34   18 1    
    37   20   19 ar   
    38   35   19 1    
    39   36   21 1    
    40   23   22 ar   
    41   37   22 1    
    42   24   23 ar   
    43   25   24 ar   
    44   38   24 1    
    45   26   25 ar   
    46   39   25 1    
    47   40   26 1    
@<TRIPOS>SUBSTRUCTURE
     1 3QT1        1 GROUP   
@<TRIPOS>SET

