#    Name: 3w10_RO9_1_INTS_M
#    Modification time : Tue Mar 25 01:58:33 2014

@<TRIPOS>MOLECULE
3w10_RO9_1_INTS_M
   61     0     9     0     0
SMALL
NO_CHARGES


@<TRIPOS>ATOM
      1 CA         10.1615  -35.7765   -4.6415 C.3       3 GLC5        0.0000 
      2 CA          8.4320  -36.1920   -3.5310 C.3       9 GLL5        0.0000 
      3 CA         11.8910  -35.3610   -5.7520 C.3       6 GLP5        0.0000 
      4 CA          6.6100  -35.5505   -3.2305 C.3       3 GLC5        0.0000 
      5 CA          4.7880  -34.9090   -2.9300 C.3       6 GLP5        0.0000 
      6 CA         10.9115  -37.1675   -3.5740 C.3       3 GLC5        0.0000 
      7 CA          8.9560  -36.9910   -2.5190 C.3       9 GLL5        0.0000 
      8 CA         12.8670  -37.3440   -4.6290 C.3       6 GLP5        0.0000 
      9 CA          4.1065  -38.7280   -4.2825 C.3       3 GLC5        0.0000 
     10 CA          5.7580  -39.3620   -5.5950 C.3       9 GLL5        0.0000 
     11 CA          2.4550  -38.0940   -2.9700 C.3       6 GLP5        0.0000 
     12 CA          3.9725  -38.0110   -6.8075 C.3       3 GLC5        0.0000 
     13 CA          4.9890  -39.8130   -6.6610 C.3       9 GLL5        0.0000 
     14 CA          2.9560  -36.2090   -6.9540 C.3       6 GLP5        0.0000 
     15 O           8.6135  -34.3985   -2.1095 O.2       1 ALC1        0.0000 
     16 O           8.5600  -34.8510   -3.4560 O.2       7 ALL1        0.0000 
     17 O           8.6670  -33.9460   -0.7630 O.2       4 ALP1        0.0000 
     18 CA          6.7490  -31.4830   -9.0260 C.3       3 GLC5        0.0000 
     19 CA          7.1440  -32.7710   -7.6760 C.3       9 GLL5        0.0000 
     20 CA          6.3540  -30.1950  -10.3760 C.3       6 GLP5        0.0000 
     21 CA          5.0845  -32.6405   -8.5640 C.3       3 GLC5        0.0000 
     22 CA          3.0250  -32.5100   -9.4520 C.3       6 GLP5        0.0000 
     23 CA          9.8350  -34.8140   -5.7160 C.3       3 GLC5        0.0000 
     24 CA          7.7790  -34.2670   -5.6800 C.3       9 GLL5        0.0000 
     25 O           8.2665  -30.7065   -5.3485 O.2       1 ALC1        0.0000 
     26 O           8.0540  -32.1020   -5.4150 O.2       7 ALL1        0.0000 
     27 O           8.4790  -29.3110   -5.2820 O.2       4 ALP1        0.0000 
     28 N           8.7255  -31.9480   -3.1640 N.am      2 SEC2        0.0000 
     29 N           8.4080  -32.6980   -4.3210 N.am      8 SEL2        0.0000 
     30 N           9.0430  -31.1980   -2.0070 N.am      5 SEP2        0.0000 
     31 CA          9.2585  -37.9355   -6.7710 C.3       3 GLC5        0.0000 
     32 CA          7.2450  -38.1640   -7.0520 C.3       9 GLL5        0.0000 
     33 CA         11.2720  -37.7070   -6.4900 C.3       6 GLP5        0.0000 
     34 CA          2.3015  -42.3490   -8.7095 C.3       3 GLC5        0.0000 
     35 CA          3.3510  -41.3840   -7.5360 C.3       9 GLL5        0.0000 
     36 CA          1.2520  -43.3140   -9.8830 C.3       6 GLP5        0.0000 
     37 CA          7.4980  -38.5295   -0.7125 C.3       3 GLC5        0.0000 
     38 CA          8.8150  -38.3740   -2.6060 C.3       9 GLL5        0.0000 
     39 CA          5.9300  -38.2680    0.6850 C.3       6 GLP5        0.0000 
     40 CA          9.5730  -38.1170   -5.3232 C.3       3 GLC5        0.0000 
     41 CA          8.1360  -38.9490   -3.6640 C.3       9 GLL5        0.0000 
     42 CA          6.1155  -31.2435   -6.4743 C.3       3 GLC5        0.0000 
     43 CA          7.6580  -33.0610   -6.2510 C.3       9 GLL5        0.0000 
     44 CA          4.8300  -29.5710   -5.9850 C.3       6 GLP5        0.0000 
     45 CA          6.1253  -33.1620   -4.9592 C.3       3 GLC5        0.0000 
     46 CA          4.5320  -32.6600   -3.9530 C.3       6 GLP5        0.0000 
     47 CA          8.7705  -34.2048   -7.7454 C.3       3 GLC5        0.0000 
     48 CA          9.9510  -34.8180   -9.1690 C.3       6 GLP5        0.0000 
     49 CA          9.1660  -32.6118   -6.8219 C.3       3 GLC5        0.0000 
     50 CA         10.7420  -31.6320   -7.3220 C.3       6 GLP5        0.0000 
     51 CA          5.8745  -34.4862   -6.4849 C.3       3 GLC5        0.0000 
     52 CA          4.1590  -35.3810   -6.6480 C.3       6 GLP5        0.0000 
     53 CA          7.3887  -37.1662   -8.8463 C.3       3 GLC5        0.0000 
     54 CA          6.4900  -38.5910   -8.1210 C.3       9 GLL5        0.0000 
     55 CA          7.9100  -35.9550  -10.1060 C.3       6 GLP5        0.0000 
     56 CA          5.4714  -36.9720   -6.5077 C.3       3 GLC5        0.0000 
     57 CA          4.4155  -37.7575   -8.2492 C.3       3 GLC5        0.0000 
     58 CA          2.9000  -36.5160   -8.4750 C.3       6 GLP5        0.0000 
     59 CA          7.7299  -40.1541   -8.1266 C.3       3 GLC5        0.0000 
     60 CA          5.3720  -39.4070   -7.9260 C.3       9 GLL5        0.0000 
     61 CA          9.3400  -41.4160   -8.4970 C.3       6 GLP5        0.0000 
@<TRIPOS>BOND
@<TRIPOS>SUBSTRUCTURE
     1 ALC1       15 GROUP        1 X    ALC  0     ROOT ALC X 1
     2 SEC2       28 GROUP        1 X    SEC  0     **** SEC X 2
     3 GLC5        1 GROUP        1 X    GLC  0     **** GLC X 6
     4 ALP1       17 GROUP        1 Y    ALP  0     ROOT ALP Y 8
     5 SEP2       30 GROUP        1 Y    SEP  0     **** SEP Y 9
     6 GLP5        3 GROUP        1 Y    GLP  0     **** GLP Y 13
     7 ALL1       16 GROUP        1 Z    ALL  0     ROOT ALL Z 15
     8 SEL2       29 GROUP        1 Z    SEL  0     **** SEL Z 16
     9 GLL5        2 GROUP        1 Z    GLL  0     **** GLL Z 20
@<TRIPOS>SET

