#    Name: 3w10_RO9_1_ligand
#    Modification time : Tue Mar 25 01:58:33 2014

@<TRIPOS>MOLECULE
3w10_RO9_1_ligand
   43    46     1     0     0
SMALL
NO_CHARGES


@<TRIPOS>ATOM
      1 C5          8.4320  -36.1920   -3.5310 C.ar      1 RO9501      0.0000 
      2 C6          8.9560  -36.9910   -2.5190 C.ar      1 RO9501      0.0000 
      3 C10         8.5190  -41.1810   -2.7500 C.ar      1 RO9501      0.0000 
      4 C15         5.7580  -39.3620   -5.5950 C.ar      1 RO9501      0.0000 
      5 C14         4.9890  -39.8130   -6.6610 C.ar      1 RO9501      0.0000 
      6 C12         9.3170  -39.2080   -1.6140 C.ar      1 RO9501      0.0000 
      7 N17         8.5600  -34.8510   -3.4560 N.pl3     1 RO9501      0.0000 
      8 C11         9.1700  -40.6020   -1.6830 C.ar      1 RO9501      0.0000 
      9 C8          8.1360  -38.9490   -3.6640 C.ar      1 RO9501      0.0000 
     10 C21         7.6580  -33.0610   -6.2510 C.2       1 RO9501      0.0000 
     11 C23         7.1440  -32.7710   -7.6760 C.3       1 RO9501      0.0000 
     12 C22         7.7790  -34.2670   -5.6800 C.2       1 RO9501      0.0000 
     13 N20         8.0540  -32.1020   -5.4150 N.pl3     1 RO9501      0.0000 
     14 N19         8.4080  -32.6980   -4.3210 N.2       1 RO9501      0.0000 
     15 C18         8.2570  -34.0130   -4.4590 C.2       1 RO9501      0.0000 
     16 N4          7.7830  -36.7790   -4.5370 N.ar      1 RO9501      0.0000 
     17 C7          8.8150  -38.3740   -2.6060 C.ar      1 RO9501      0.0000 
     18 C9          8.0030  -40.3430   -3.7290 C.ar      1 RO9501      0.0000 
     19 C3          7.6120  -38.1050   -4.6490 C.ar      1 RO9501      0.0000 
     20 C16         6.8870  -38.5620   -5.7710 C.ar      1 RO9501      0.0000 
     21 C29         7.2450  -38.1640   -7.0520 C.ar      1 RO9501      0.0000 
     22 C32         6.4900  -38.5910   -8.1210 C.ar      1 RO9501      0.0000 
     23 C43         5.3720  -39.4070   -7.9260 C.ar      1 RO9501      0.0000 
     24 O24         3.8970  -40.6250   -6.4390 O.3       1 RO9501      0.0000 
     25 C25         3.3510  -41.3840   -7.5360 C.3       1 RO9501      0.0000 
     26 H           9.4376  -36.5694   -1.7230 H         1 RO9501      0.0000 
     27 H           8.4170  -42.1897   -2.8228 H         1 RO9501      0.0000 
     28 H           5.4817  -39.6313   -4.6235 H         1 RO9501      0.0000 
     29 H           9.8128  -38.7962   -0.8014 H         1 RO9501      0.0000 
     30 H           8.9252  -34.4339   -2.5407 H         1 RO9501      0.0000 
     31 H           9.5552  -41.1855   -0.9257 H         1 RO9501      0.0000 
     32 H           7.5716  -35.1085   -6.0590 H         1 RO9501      0.0000 
     33 H           8.0660  -31.1552   -5.6086 H         1 RO9501      0.0000 
     34 H           7.4992  -40.7582   -4.5413 H         1 RO9501      0.0000 
     35 H           8.0609  -37.5607   -7.1942 H         1 RO9501      0.0000 
     36 H           6.7454  -38.3098   -9.0835 H         1 RO9501      0.0000 
     37 H           4.8221  -39.7110   -8.7523 H         1 RO9501      0.0000 
     38 H           7.1424  -31.7916   -7.8781 H         1 RO9501      0.0000 
     39 H           7.7099  -33.2130   -8.3720 H         1 RO9501      0.0000 
     40 H           6.2085  -33.0989   -7.8073 H         1 RO9501      0.0000 
     41 H           4.0235  -42.0158   -7.9216 H         1 RO9501      0.0000 
     42 H           2.5632  -41.9312   -7.2533 H         1 RO9501      0.0000 
     43 H           3.0443  -40.7918   -8.2811 H         1 RO9501      0.0000 
@<TRIPOS>BOND
     1    2    1 ar   
     2    7    1 1    
     3   16    1 ar   
     4   17    2 ar   
     5   26    2 1    
     6    8    3 ar   
     7   18    3 ar   
     8   27    3 1    
     9    5    4 ar   
    10   20    4 ar   
    11   28    4 1    
    12   23    5 ar   
    13   24    5 1    
    14    8    6 ar   
    15   17    6 ar   
    16   29    6 1    
    17   15    7 1    
    18   30    7 1    
    19   31    8 1    
    20   17    9 ar   
    21   18    9 ar   
    22   19    9 ar   
    23   11   10 1    
    24   12   10 2    
    25   13   10 1    
    26   38   11 1    
    27   39   11 1    
    28   40   11 1    
    29   15   12 1    
    30   32   12 1    
    31   14   13 1    
    32   33   13 1    
    33   15   14 2    
    34   19   16 ar   
    35   34   18 1    
    36   20   19 1    
    37   21   20 ar   
    38   22   21 ar   
    39   35   21 1    
    40   23   22 ar   
    41   36   22 1    
    42   37   23 1    
    43   25   24 1    
    44   41   25 1    
    45   42   25 1    
    46   43   25 1    
@<TRIPOS>SUBSTRUCTURE
     1 RO9501      1 GROUP   
@<TRIPOS>SET

