#    Name: 3l3a_625_1_INTS_M
#    Modification time : Mon Mar 24 20:56:00 2014

@<TRIPOS>MOLECULE
3l3a_625_1_INTS_M
   54     0     9     0     0
SMALL
NO_CHARGES


@<TRIPOS>ATOM
      1 CA         11.7425   -2.5530   12.9120 C.3       3 GLC5        0.0000 
      2 CA          9.8340   -1.6630   13.3870 C.3       9 GLL5        0.0000 
      3 CA         13.6510   -3.4430   12.4370 C.3       6 GLP5        0.0000 
      4 CA         11.7255   -1.0850   14.1115 C.3       3 GLC5        0.0000 
      5 CA         13.6170   -0.5070   14.8360 C.3       6 GLP5        0.0000 
      6 CA         14.7010  -14.0425   16.4140 C.3       3 GLC5        0.0000 
      7 CA         15.1490  -12.3300   15.4850 C.3       9 GLL5        0.0000 
      8 CA         14.2530  -15.7550   17.3430 C.3       6 GLP5        0.0000 
      9 CA         13.0795  -12.3405   16.1560 C.3       3 GLC5        0.0000 
     10 CA         11.0100  -12.3510   16.8270 C.3       6 GLP5        0.0000 
     11 CA         13.3985  -11.3595   14.7325 C.3       3 GLC5        0.0000 
     12 CA         11.6480  -10.3890   13.9800 C.3       6 GLP5        0.0000 
     13 N          15.3835   -7.3715   14.2185 N.am      2 SEC2        0.0000 
     14 N          15.4710   -6.9100   15.4190 N.am      8 SEL2        0.0000 
     15 N          15.2960   -7.8330   13.0180 N.am      5 SEP2        0.0000 
     16 O          15.9875   -5.3470   13.4330 O.2       1 ALC1        0.0000 
     17 O          16.2720   -4.8310   14.7030 O.2       7 ALL1        0.0000 
     18 O          15.7030   -5.8630   12.1630 O.2       4 ALP1        0.0000 
     19 O          16.7335   -3.6630   14.8010 O.2       1 ALC1        0.0000 
     20 O          17.1950   -2.4950   14.8990 O.2       4 ALP1        0.0000 
     21 CA         17.5515   -5.5115   14.2930 C.3       3 GLC5        0.0000 
     22 CA         15.8930   -5.6690   15.7380 C.3       9 GLL5        0.0000 
     23 CA         19.2100   -5.3540   12.8480 C.3       6 GLP5        0.0000 
     24 CA         13.1445   -9.7515   15.0135 C.3       3 GLC5        0.0000 
     25 CA         14.6410   -9.1140   16.0470 C.3       9 GLL5        0.0000 
     26 CA          9.3448   -0.1998   14.8727 C.3       3 GLC5        0.0000 
     27 CA          9.2620    1.3430   15.7480 C.3       6 GLP5        0.0000 
     28 CA         17.3708  -13.2120   19.4062 C.3       3 GLC5        0.0000 
     29 CA         18.3370  -12.3510   17.8720 C.3       9 GLL5        0.0000 
     30 CA         16.6040  -14.4600   20.3950 C.3       6 GLP5        0.0000 
     31 CA         19.0250  -14.1140   17.6800 C.3       3 GLC5        0.0000 
     32 CA         20.1510  -15.7690   18.0190 C.3       6 GLP5        0.0000 
     33 CA         16.4087  -12.7898   19.4342 C.3       3 GLC5        0.0000 
     34 CA         16.6620  -11.0170   19.0040 C.3       9 GLL5        0.0000 
     35 CA         10.8063   -9.2267   15.2645 C.3       3 GLC5        0.0000 
     36 CA         10.3880   -8.5330   16.8530 C.3       9 GLL5        0.0000 
     37 CA         10.3999   -6.9648   14.0663 C.3       3 GLC5        0.0000 
     38 CA         10.0480   -6.3980   15.7300 C.3       9 GLL5        0.0000 
     39 CA         10.6620   -6.9950   12.1180 C.3       6 GLP5        0.0000 
     40 CA          7.8682   -6.2765   16.1717 C.3       3 GLC5        0.0000 
     41 CA          5.9420   -5.5560   16.3560 C.3       6 GLP5        0.0000 
     42 CA         17.2500  -11.0359   15.1585 C.3       3 GLC5        0.0000 
     43 CA         17.9380   -9.7040   13.8300 C.3       6 GLP5        0.0000 
     44 CA         16.7115  -13.3735   18.6107 C.3       3 GLC5        0.0000 
     45 CA         16.1770  -12.0070   16.8430 C.3       9 GLL5        0.0000 
     46 CA         11.9885   -9.4336   15.5681 C.3       3 GLC5        0.0000 
     47 CA         12.6440   -9.2720   17.6090 C.3       9 GLL5        0.0000 
     48 CA         16.4072   -9.0658   15.0323 C.3       3 GLC5        0.0000 
     49 CA          6.8920   -2.3788   13.9815 C.3       3 GLC5        0.0000 
     50 CA          8.4410   -3.2250   14.7660 C.3       9 GLL5        0.0000 
     51 CA          5.0530   -2.2340   13.2760 C.3       6 GLP5        0.0000 
     52 CA          8.3491   -2.5469   12.5214 C.3       3 GLC5        0.0000 
     53 CA          7.7640   -2.6100   10.6610 C.3       6 GLP5        0.0000 
     54 CA          7.4028   -4.6092   15.7918 C.3       3 GLC5        0.0000 
@<TRIPOS>BOND
@<TRIPOS>SUBSTRUCTURE
     1 ALC1       16 GROUP        1 X    ALC  0     ROOT ALC X 1
     2 SEC2       13 GROUP        1 X    SEC  0     **** SEC X 2
     3 GLC5        1 GROUP        1 X    GLC  0     **** GLC X 6
     4 ALP1       18 GROUP        1 Y    ALP  0     ROOT ALP Y 8
     5 SEP2       15 GROUP        1 Y    SEP  0     **** SEP Y 9
     6 GLP5        3 GROUP        1 Y    GLP  0     **** GLP Y 13
     7 ALL1       17 GROUP        1 Z    ALL  0     ROOT ALL Z 15
     8 SEL2       14 GROUP        1 Z    SEL  0     **** SEL Z 16
     9 GLL5        2 GROUP        1 Z    GLL  0     **** GLL Z 20
@<TRIPOS>SET

