#    Name: 3l3a_625_1_ligand
#    Modification time : Mon Mar 24 20:56:00 2014

@<TRIPOS>MOLECULE
3l3a_625_1_ligand
   55    58     1     0     0
SMALL
NO_CHARGES


@<TRIPOS>ATOM
      1 C1          9.8340   -1.6630   13.3870 C.1       1 6251        0.0000 
      2 N1         10.4770   -1.5020   12.4290 N.1       1 6251        0.0000 
      3 O1          9.3100   -5.4120   15.1150 O.3       1 6251        0.0000 
      4 CL1        15.1490  -12.3300   15.4850 Cl        1 6251        0.0000 
      5 C2         17.9380  -11.5770   18.9630 C.ar      1 6251        0.0000 
      6 N2         15.4710   -6.9100   15.4190 N.ar      1 6251        0.0000 
      7 C3         18.3370  -12.3510   17.8720 C.ar      1 6251        0.0000 
      8 N3         13.9250   -9.6470   17.1980 N.pl3     1 6251        0.0000 
      9 C4         15.5930   -6.0930   18.0760 C.ar      1 6251        0.0000 
     10 N4         16.2720   -4.8310   14.7030 N.pl3     1 6251        0.0000 
     11 C5         16.6620  -11.0170   19.0040 C.ar      1 6251        0.0000 
     12 C6         12.2630   -7.0830   16.4450 C.ar      1 6251        0.0000 
     13 C7         10.3880   -8.5330   16.8530 C.ar      1 6251        0.0000 
     14 C8         11.4210   -6.1480   15.8380 C.ar      1 6251        0.0000 
     15 C9          9.5410   -7.5960   16.2450 C.ar      1 6251        0.0000 
     16 C10        17.4610  -12.5670   16.8100 C.ar      1 6251        0.0000 
     17 C11        12.3710  -10.0190   18.7440 C.2       1 6251        0.0000 
     18 C12        13.4860  -10.8390   19.0300 C.2       1 6251        0.0000 
     19 C13        15.1540   -7.3710   17.7610 C.ar      1 6251        0.0000 
     20 C14        15.9720   -5.2250   17.0560 C.ar      1 6251        0.0000 
     21 C15        11.7650   -8.2860   16.9620 C.ar      1 6251        0.0000 
     22 C16        15.7650  -11.2220   17.9430 C.ar      1 6251        0.0000 
     23 C17        10.0480   -6.3980   15.7300 C.ar      1 6251        0.0000 
     24 C18        16.1770  -12.0070   16.8430 C.ar      1 6251        0.0000 
     25 C19        12.6440   -9.2720   17.6090 C.2       1 6251        0.0000 
     26 C20        14.4410  -10.6030   18.0600 C.2       1 6251        0.0000 
     27 C21        15.1120   -7.7410   16.4220 C.ar      1 6251        0.0000 
     28 C22        15.8930   -5.6690   15.7380 C.ar      1 6251        0.0000 
     29 C23         9.0210   -1.8220   14.6080 C.3       1 6251        0.0000 
     30 C24        14.6410   -9.1140   16.0470 C.3       1 6251        0.0000 
     31 C25         8.4410   -3.2250   14.7660 C.3       1 6251        0.0000 
     32 C26         9.2860   -4.1000   15.6890 C.3       1 6251        0.0000 
     33 H          18.5919  -11.4189   19.7433 H         1 6251        0.0000 
     34 H          19.2789  -12.7619   17.8529 H         1 6251        0.0000 
     35 H          15.6387   -5.7877   19.0543 H         1 6251        0.0000 
     36 H          15.7890   -4.9560   13.8363 H         1 6251        0.0000 
     37 H          16.9959   -4.1734   14.9118 H         1 6251        0.0000 
     38 H          16.3724  -10.4516   19.8112 H         1 6251        0.0000 
     39 H          13.2766   -6.8843   16.5151 H         1 6251        0.0000 
     40 H           9.9973   -9.4096   17.2227 H         1 6251        0.0000 
     41 H          11.8106   -5.2714   15.4683 H         1 6251        0.0000 
     42 H           8.5312   -7.7934   16.1770 H         1 6251        0.0000 
     43 H          17.7513  -13.1324   16.0068 H         1 6251        0.0000 
     44 H          11.5721   -9.9951   19.2557 H         1 6251        0.0000 
     45 H          13.5489  -11.4347   19.7576 H         1 6251        0.0000 
     46 H          14.8702   -8.0206   18.4899 H         1 6251        0.0000 
     47 H          16.3002   -4.2850   17.2683 H         1 6251        0.0000 
     48 H           8.1837   -1.1008   14.6057 H         1 6251        0.0000 
     49 H           9.6287   -1.5971   15.5032 H         1 6251        0.0000 
     50 H          13.9886   -9.0434   15.1839 H         1 6251        0.0000 
     51 H          15.4990   -9.7312   15.8050 H         1 6251        0.0000 
     52 H           8.3770   -3.7000   13.7812 H         1 6251        0.0000 
     53 H           7.4267   -3.1504   15.1722 H         1 6251        0.0000 
     54 H          10.2779   -3.6658   15.7499 H         1 6251        0.0000 
     55 H           8.8265   -4.0955   16.6713 H         1 6251        0.0000 
@<TRIPOS>BOND
     1    2    1 3    
     2   29    1 1    
     3   23    3 1    
     4   32    3 1    
     5   24    4 1    
     6    7    5 ar   
     7   11    5 ar   
     8   33    5 1    
     9   27    6 ar   
    10   28    6 ar   
    11   16    7 ar   
    12   34    7 1    
    13   25    8 1    
    14   26    8 1    
    15   30    8 1    
    16   19    9 ar   
    17   20    9 ar   
    18   35    9 1    
    19   28   10 1    
    20   36   10 1    
    21   37   10 1    
    22   22   11 ar   
    23   38   11 1    
    24   14   12 ar   
    25   21   12 ar   
    26   39   12 1    
    27   15   13 ar   
    28   21   13 ar   
    29   40   13 1    
    30   23   14 ar   
    31   41   14 1    
    32   23   15 ar   
    33   42   15 1    
    34   24   16 ar   
    35   43   16 1    
    36   18   17 1    
    37   25   17 2    
    38   44   17 1    
    39   26   18 2    
    40   45   18 1    
    41   27   19 ar   
    42   46   19 1    
    43   28   20 ar   
    44   47   20 1    
    45   25   21 1    
    46   24   22 ar   
    47   26   22 1    
    48   30   27 1    
    49   31   29 1    
    50   48   29 1    
    51   49   29 1    
    52   50   30 1    
    53   51   30 1    
    54   32   31 1    
    55   52   31 1    
    56   53   31 1    
    57   54   32 1    
    58   55   32 1    
@<TRIPOS>SUBSTRUCTURE
     1 6251        1 GROUP   
@<TRIPOS>SET

