#    Name: 1d1s_NAD_3_INTS_M
#    Modification time : Mon Mar 24 21:13:09 2014

@<TRIPOS>MOLECULE
1d1s_NAD_3_INTS_M
  102     0    15     0     0
SMALL
NO_CHARGES


@<TRIPOS>ATOM
      1 NZ         36.6475   -8.5885  113.5130 N.4       3 LYC4        0.0000 
      2 NZ         35.8450   -8.4480  112.1240 N.4      13 LYL4        0.0000 
      3 NZ         37.3550  -10.0080  115.2610 N.4       8 LYP4        0.0000 
      4 N          36.6475   -8.5885  113.5130 N.am      2 SEC2        0.0000 
      5 N          35.8450   -8.4480  112.1240 N.am     12 SEL2        0.0000 
      6 N          37.4500   -8.7290  114.9020 N.am      7 SEP2        0.0000 
      7 CA         35.7725   -9.1085  106.2935 C.3       5 GLC5        0.0000 
      8 CA         35.6940   -9.6070  108.3440 C.3      15 GLL5        0.0000 
      9 CA         35.8510   -8.6100  104.2430 C.3      10 GLP5        0.0000 
     10 CA         34.0590   -8.0765  108.5010 C.3       5 GLC5        0.0000 
     11 CA         32.4240   -6.5460  108.6580 C.3      10 GLP5        0.0000 
     12 N          32.3450  -11.1155  109.0230 N.am      2 SEC2        0.0000 
     13 N          33.4890  -10.5780  108.0050 N.am     12 SEL2        0.0000 
     14 N          31.2010  -11.6530  110.0410 N.am      7 SEP2        0.0000 
     15 O          33.0665  -10.8750  106.7265 O.2       1 ALC1        0.0000 
     16 O          33.4890  -10.5780  108.0050 O.2      11 ALL1        0.0000 
     17 O          32.6440  -11.1720  105.4480 O.2       6 ALP1        0.0000 
     18 O          33.4475  -11.8910  106.8570 O.2       1 ALC1        0.0000 
     19 O          33.4060  -13.2040  105.7090 O.2       6 ALP1        0.0000 
     20 O          33.9615  -13.0990  106.9910 O.2       1 ALC1        0.0000 
     21 O          34.5170  -12.9940  108.2730 O.2      11 ALL1        0.0000 
     22 CA         36.0035  -10.0600  105.7585 C.3       5 GLC5        0.0000 
     23 CA         36.1560  -11.5100  107.2740 C.3      15 GLL5        0.0000 
     24 Zn         39.9810  -14.3820  107.7235 Zn        4 ZIC7        0.0000 
     25 Zn         39.1290  -13.6790  107.2490 Zn       14 ZIL7        0.0000 
     26 Zn         40.8330  -15.0850  108.1980 Zn        9 ZIP7        0.0000 
     27 CA         41.0120  -13.2965  103.6040 C.3       5 GLC5        0.0000 
     28 CA         39.3500  -14.1800  104.8020 C.3      15 GLL5        0.0000 
     29 CA         42.6740  -12.4130  102.4060 C.3      10 GLP5        0.0000 
     30 CA         35.7595  -13.1180  103.1150 C.3       5 GLC5        0.0000 
     31 CA         37.6540  -13.0740  103.4210 C.3      15 GLL5        0.0000 
     32 CA         33.8650  -13.1620  102.8090 C.3      10 GLP5        0.0000 
     33 CA         37.3140  -15.1525  103.8565 C.3       5 GLC5        0.0000 
     34 CA         36.9740  -17.2310  104.2920 C.3      10 GLP5        0.0000 
     35 CA         38.7480  -11.7910  103.7550 C.3       5 GLC5        0.0000 
     36 CA         39.8420  -10.5080  104.0890 C.3      10 GLP5        0.0000 
     37 NZ         34.3390   -3.2210  113.2130 N.4       3 LYC4        0.0000 
     38 NZ         35.3650   -3.7420  112.2570 N.4      13 LYL4        0.0000 
     39 NZ         33.2730   -1.3760  114.3060 N.4       8 LYP4        0.0000 
     40 N          34.3390   -3.2210  113.2130 N.am      2 SEC2        0.0000 
     41 N          35.3650   -3.7420  112.2570 N.am     12 SEL2        0.0000 
     42 N          33.3130   -2.7000  114.1690 N.am      7 SEP2        0.0000 
     43 N          34.1880   -3.3015  109.4105 N.am      2 SEC2        0.0000 
     44 N          35.0310   -4.2620  109.9690 N.am     12 SEL2        0.0000 
     45 N          33.3450   -2.3410  108.8520 N.am      7 SEP2        0.0000 
     46 CA         37.0425   -3.0255  109.8570 C.3       5 GLC5        0.0000 
     47 CA         38.2730   -4.7990  109.9140 C.3      15 GLL5        0.0000 
     48 CA         35.8120   -1.2520  109.8000 C.3      10 GLP5        0.0000 
     49 CA         37.8620   -4.0100  107.9070 C.3       5 GLC5        0.0000 
     50 CA         37.4510   -3.2210  105.9000 C.3      10 GLP5        0.0000 
     51 CA         40.0085   -6.1600  108.2705 C.3       5 GLC5        0.0000 
     52 CA         39.7590   -4.4960  109.7100 C.3      15 GLL5        0.0000 
     53 CA         40.2580   -7.8240  106.8310 C.3      10 GLP5        0.0000 
     54 CA         39.6885   -5.8560  112.4965 C.3       5 GLC5        0.0000 
     55 CA         40.5730   -4.9210  110.9520 C.3      15 GLL5        0.0000 
     56 CA         38.8040   -6.7910  114.0410 C.3      10 GLP5        0.0000 
     57 N          43.0215   -4.3155  109.9010 N.am      2 SEC2        0.0000 
     58 N          41.9270   -5.2060  110.5690 N.am     12 SEL2        0.0000 
     59 N          44.1160   -3.4250  109.2330 N.am      7 SEP2        0.0000 
     60 O          41.5685   -6.3860  109.8010 O.2       1 ALC1        0.0000 
     61 O          41.9270   -5.2060  110.5690 O.2      11 ALL1        0.0000 
     62 O          41.2100   -7.5660  109.0330 O.2       6 ALP1        0.0000 
     63 CA         39.2080   -4.6120  113.0680 C.3       5 GLC5        0.0000 
     64 CA         40.5370   -3.6120  111.7810 C.3      15 GLL5        0.0000 
     65 CA         37.8790   -5.6120  114.3550 C.3      10 GLP5        0.0000 
     66 N          41.4940   -2.6495  113.6590 N.am      2 SEC2        0.0000 
     67 N          41.6430   -3.6110  112.6910 N.am     12 SEL2        0.0000 
     68 N          41.3450   -1.6880  114.6270 N.am      7 SEP2        0.0000 
     69 CA         41.7240   -3.0885  108.9760 C.3       5 GLC5        0.0000 
     70 CA         40.7550   -2.5490  110.6810 C.3      15 GLL5        0.0000 
     71 CA         42.6930   -3.6280  107.2710 C.3      10 GLP5        0.0000 
     72 N          41.6165    4.6185  109.3900 N.am      2 SEC2        0.0000 
     73 N          41.5680    3.2310  109.8720 N.am     12 SEL2        0.0000 
     74 N          41.6650    6.0060  108.9080 N.am      7 SEP2        0.0000 
     75 O          42.5160    0.3080  108.1515 O.2       1 ALC1        0.0000 
     76 O          42.4680    1.5090  108.8210 O.2      11 ALL1        0.0000 
     77 O          42.5640   -0.8930  107.4820 O.2       6 ALP1        0.0000 
     78 O          43.3840    2.4170  107.7585 O.2       1 ALC1        0.0000 
     79 O          44.3000    3.3250  106.6960 O.2       6 ALP1        0.0000 
     80 CA         38.5220  -15.7528  105.3570 C.3       5 GLC5        0.0000 
     81 CA         38.6920  -13.6790  105.9240 C.3      15 GLL5        0.0000 
     82 CA         38.0230  -17.5760  105.3510 C.3      10 GLP5        0.0000 
     83 CA         40.9055  -13.4757  106.1800 C.3       5 GLC5        0.0000 
     84 CA         42.7900  -13.0220  106.9970 C.3      10 GLP5        0.0000 
     85 CA         39.0655  -11.9679  104.8285 C.3       5 GLC5        0.0000 
     86 CA         41.4295   -4.1683  108.8010 C.3       5 GLC5        0.0000 
     87 CA         42.5125   -2.2612  111.3150 C.3       5 GLC5        0.0000 
     88 CA         44.3790   -1.4420  111.3990 C.3      10 GLP5        0.0000 
     89 CA         39.7458    1.5348  109.3783 C.3       5 GLC5        0.0000 
     90 CA         41.1300   -0.2110  110.4190 C.3      15 GLL5        0.0000 
     91 CA         38.5010    2.6280  108.3370 C.3      10 GLP5        0.0000 
     92 CA         42.6847   -0.5002  110.9093 C.3       5 GLC5        0.0000 
     93 CA         40.8510    1.0940  110.4200 C.3      15 GLL5        0.0000 
     94 CA         38.2027    1.7715  112.6325 C.3       5 GLC5        0.0000 
     95 CA         39.6810    1.4840  110.9710 C.3      15 GLL5        0.0000 
     96 CA         37.1660    2.5100  114.0370 C.3      10 GLP5        0.0000 
     97 CA         38.8702    1.8305  109.7825 C.3       5 GLC5        0.0000 
     98 CA         38.7980    0.5820  111.4850 C.3      15 GLL5        0.0000 
     99 CA         38.3065   -0.5192  113.3862 C.3       5 GLC5        0.0000 
    100 CA         37.6470   -0.9410  115.3090 C.3      10 GLP5        0.0000 
    101 CA         37.3890   -0.6747  110.6317 C.3       5 GLC5        0.0000 
    102 CA         39.1340   -0.7770  111.4420 C.3      15 GLL5        0.0000 
@<TRIPOS>BOND
@<TRIPOS>SUBSTRUCTURE
     1 ALC1       15 GROUP        1 X    ALC  0     ROOT ALC X 1
     2 SEC2        4 GROUP        1 X    SEC  0     **** SEC X 2
     3 LYC4        1 GROUP        1 X    LYC  0     **** LYC X 4
     4 ZIC7       24 GROUP        1 X    ZIC  0     **** ZIC X 5
     5 GLC5        7 GROUP        1 X    GLC  0     **** GLC X 6
     6 ALP1       17 GROUP        1 Y    ALP  0     ROOT ALP Y 8
     7 SEP2        6 GROUP        1 Y    SEP  0     **** SEP Y 9
     8 LYP4        3 GROUP        1 Y    LYP  0     **** LYP Y 11
     9 ZIP7       26 GROUP        1 Y    ZIP  0     **** ZIP Y 12
    10 GLP5        9 GROUP        1 Y    GLP  0     **** GLP Y 13
    11 ALL1       16 GROUP        1 Z    ALL  0     ROOT ALL Z 15
    12 SEL2        5 GROUP        1 Z    SEL  0     **** SEL Z 16
    13 LYL4        2 GROUP        1 Z    LYL  0     **** LYL Z 18
    14 ZIL7       25 GROUP        1 Z    ZIL  0     **** ZIL Z 19
    15 GLL5        8 GROUP        1 Z    GLL  0     **** GLL Z 20
@<TRIPOS>SET

