#    Name: 1d1s_NAD_3_ligand
#    Modification time : Mon Mar 24 21:13:09 2014

@<TRIPOS>MOLECULE
1d1s_NAD_3_ligand
   70    74     1     0     0
SMALL
NO_CHARGES


@<TRIPOS>ATOM
      1 PA         35.2780   -7.3080  111.3690 P.3       1 NAD3377     0.0000 
      2 O1A        35.8450   -8.4480  112.1240 O.co2     1 NAD3377     0.0000 
      3 O2A        33.8890   -7.0620  111.8510 O.co2     1 NAD3377     0.0000 
      4 O5B        35.2470   -7.8870  109.9070 O.3       1 NAD3377     0.0000 
      5 C5B        36.2790   -8.8250  109.5140 C.3       1 NAD3377     0.0000 
      6 C4B        35.6940   -9.6070  108.3440 C.3       1 NAD3377     0.0000 
      7 O4B        36.7540  -10.3010  107.6780 O.3       1 NAD3377     0.0000 
      8 C3B        34.6450  -10.6300  108.8450 C.3       1 NAD3377     0.0000 
      9 O3B        33.4890  -10.5780  108.0050 O.3       1 NAD3377     0.0000 
     10 C2B        35.4270  -11.9200  108.5550 C.3       1 NAD3377     0.0000 
     11 O2B        34.5170  -12.9940  108.2730 O.3       1 NAD3377     0.0000 
     12 C1B        36.1560  -11.5100  107.2740 C.3       1 NAD3377     0.0000 
     13 N9A        37.2280  -12.3950  106.9850 N.pl3     1 NAD3377     0.0000 
     14 C8A        38.1920  -12.8670  107.8650 C.2       1 NAD3377     0.0000 
     15 N7A        39.1290  -13.6790  107.2490 N.2       1 NAD3377     0.0000 
     16 C5A        38.6920  -13.6790  105.9240 C.ar      1 NAD3377     0.0000 
     17 C6A        39.3500  -14.1800  104.8020 C.ar      1 NAD3377     0.0000 
     18 N6A        40.4540  -14.9630  104.9050 N.pl3     1 NAD3377     0.0000 
     19 N1A        38.8220  -13.8530  103.5360 N.ar      1 NAD3377     0.0000 
     20 C2A        37.6540  -13.0740  103.4210 C.ar      1 NAD3377     0.0000 
     21 N3A        36.9920  -12.5770  104.5480 N.ar      1 NAD3377     0.0000 
     22 C4A        37.5570  -12.9260  105.7730 C.ar      1 NAD3377     0.0000 
     23 O3         36.2350   -6.0640  111.4570 O.3       1 NAD3377     0.0000 
     24 PN         35.9130   -4.5540  111.1280 P.3       1 NAD3377     0.0000 
     25 O1N        35.3650   -3.7420  112.2570 O.co2     1 NAD3377     0.0000 
     26 O2N        35.0310   -4.2620  109.9690 O.co2     1 NAD3377     0.0000 
     27 O5D        37.3980   -3.9250  110.7570 O.3       1 NAD3377     0.0000 
     28 C5D        38.2730   -4.7990  109.9140 C.3       1 NAD3377     0.0000 
     29 C4D        39.7590   -4.4960  109.7100 C.3       1 NAD3377     0.0000 
     30 O4D        39.9580   -3.0770  109.5890 O.3       1 NAD3377     0.0000 
     31 C3D        40.5730   -4.9210  110.9520 C.3       1 NAD3377     0.0000 
     32 O3D        41.9270   -5.2060  110.5690 O.3       1 NAD3377     0.0000 
     33 C2D        40.5370   -3.6120  111.7810 C.3       1 NAD3377     0.0000 
     34 O2D        41.6430   -3.6110  112.6910 O.3       1 NAD3377     0.0000 
     35 C1D        40.7550   -2.5490  110.6810 C.3       1 NAD3377     0.0000 
     36 N1N        40.2800   -1.1430  110.9000 N.pl3     1 NAD3377     0.0000 
     37 C2N        41.1300   -0.2110  110.4190 C.ar      1 NAD3377     0.0000 
     38 C3N        40.8510    1.0940  110.4200 C.ar      1 NAD3377     0.0000 
     39 C7N        41.7590    1.9770  109.8620 C.2       1 NAD3377     0.0000 
     40 O7N        41.5680    3.2310  109.8720 O.2       1 NAD3377     0.0000 
     41 N7N        42.4680    1.5090  108.8210 N.am      1 NAD3377     0.0000 
     42 C4N        39.6810    1.4840  110.9710 C.ar      1 NAD3377     0.0000 
     43 C5N        38.7980    0.5820  111.4850 C.ar      1 NAD3377     0.0000 
     44 C6N        39.1340   -0.7770  111.4420 C.ar      1 NAD3377     0.0000 
     45 H          36.5101   -9.5160  110.3067 H         1 NAD3377     0.0000 
     46 H          37.1681   -8.3191  109.1778 H         1 NAD3377     0.0000 
     47 H          35.2004   -8.9200  107.6835 H         1 NAD3377     0.0000 
     48 H          34.5095  -10.5211  109.8419 H         1 NAD3377     0.0000 
     49 H          36.1084  -12.0850  109.3037 H         1 NAD3377     0.0000 
     50 H          35.4765  -11.3798  106.5129 H         1 NAD3377     0.0000 
     51 H          38.2063  -12.6478  108.8204 H         1 NAD3377     0.0000 
     52 H          40.7553  -15.1787  105.8338 H         1 NAD3377     0.0000 
     53 H          40.8684  -15.2549  104.0430 H         1 NAD3377     0.0000 
     54 H          37.2805  -12.8670  102.4782 H         1 NAD3377     0.0000 
     55 H          37.8015   -4.8922  108.8781 H         1 NAD3377     0.0000 
     56 H          38.1964   -5.8703  110.3020 H         1 NAD3377     0.0000 
     57 H          40.1277   -5.0193  108.8706 H         1 NAD3377     0.0000 
     58 H          40.0749   -5.6580  111.4560 H         1 NAD3377     0.0000 
     59 H          39.6064   -3.4981  112.1948 H         1 NAD3377     0.0000 
     60 H          41.7839   -2.5716  110.3806 H         1 NAD3377     0.0000 
     61 H          42.0620   -0.5380  110.0229 H         1 NAD3377     0.0000 
     62 H          42.2642    0.5726  108.5352 H         1 NAD3377     0.0000 
     63 H          43.1362    2.1389  108.4250 H         1 NAD3377     0.0000 
     64 H          39.4410    2.5061  111.0067 H         1 NAD3377     0.0000 
     65 H          37.9099    0.8718  111.8947 H         1 NAD3377     0.0000 
     66 H          38.4653   -1.4582  111.8411 H         1 NAD3377     0.0000 
     67 H          33.7773  -10.9934  107.1422 H         1 NAD3377     0.0000 
     68 H          34.2910  -12.8938  107.3040 H         1 NAD3377     0.0000 
     69 H          41.9556   -6.1969  110.4378 H         1 NAD3377     0.0000 
     70 H          42.4311   -3.8868  112.1407 H         1 NAD3377     0.0000 
@<TRIPOS>BOND
     1    2    1 ar   
     2    3    1 ar   
     3    4    1 1    
     4   23    1 1    
     5    5    4 1    
     6    6    5 1    
     7   45    5 1    
     8   46    5 1    
     9    7    6 1    
    10    8    6 1    
    11   47    6 1    
    12   12    7 1    
    13    9    8 1    
    14   10    8 1    
    15   48    8 1    
    16   67    9 1    
    17   11   10 1    
    18   12   10 1    
    19   49   10 1    
    20   68   11 1    
    21   13   12 1    
    22   50   12 1    
    23   14   13 1    
    24   22   13 1    
    25   15   14 2    
    26   51   14 1    
    27   16   15 1    
    28   17   16 ar   
    29   22   16 ar   
    30   18   17 1    
    31   19   17 ar   
    32   52   18 1    
    33   53   18 1    
    34   20   19 ar   
    35   21   20 ar   
    36   54   20 1    
    37   22   21 ar   
    38   24   23 1    
    39   25   24 ar   
    40   26   24 ar   
    41   27   24 1    
    42   28   27 1    
    43   29   28 1    
    44   55   28 1    
    45   56   28 1    
    46   30   29 1    
    47   31   29 1    
    48   57   29 1    
    49   35   30 1    
    50   32   31 1    
    51   33   31 1    
    52   58   31 1    
    53   69   32 1    
    54   34   33 1    
    55   35   33 1    
    56   59   33 1    
    57   70   34 1    
    58   36   35 1    
    59   60   35 1    
    60   37   36 ar   
    61   44   36 ar   
    62   38   37 ar   
    63   61   37 1    
    64   39   38 1    
    65   42   38 ar   
    66   40   39 2    
    67   41   39 am   
    68   62   41 1    
    69   63   41 1    
    70   43   42 ar   
    71   64   42 1    
    72   44   43 ar   
    73   65   43 1    
    74   66   44 1    
@<TRIPOS>SUBSTRUCTURE
     1 NAD3377     1 GROUP   
@<TRIPOS>SET

