#    Name: 1g3m_PCQ_1_INTS_M
#    Modification time : Tue Mar 25 02:31:25 2014

@<TRIPOS>MOLECULE
1g3m_PCQ_1_INTS_M
   48     0     9     0     0
SMALL
NO_CHARGES


@<TRIPOS>ATOM
      1 CA         -9.2630   -8.8670   32.5745 C.3       3 GLC5        0.0000 
      2 CA         -8.1240   -9.4560   34.1260 C.3       9 GLL5        0.0000 
      3 CA        -10.4020   -8.2780   31.0230 C.3       6 GLP5        0.0000 
      4 CA         -7.6150   -7.7840   34.8420 C.3       3 GLC5        0.0000 
      5 CA         -7.1060   -6.1120   35.5580 C.3       6 GLP5        0.0000 
      6 CA         -9.8445  -10.3615   35.0070 C.3       3 GLC5        0.0000 
      7 CA        -11.5650  -11.2670   35.8880 C.3       6 GLP5        0.0000 
      8 CA         -6.7185  -10.3280   32.7130 C.3       3 GLC5        0.0000 
      9 CA         -5.3130  -11.2000   31.3000 C.3       6 GLP5        0.0000 
     10 CA         -9.5365   -8.1090   34.3630 C.3       3 GLC5        0.0000 
     11 CA        -10.9490   -6.7620   34.6000 C.3       6 GLP5        0.0000 
     12 CA         -8.0680  -13.8980   36.9810 C.3       3 GLC5        0.0000 
     13 CA         -7.2150  -14.7870   35.1060 C.3       9 GLL5        0.0000 
     14 CA         -8.9210  -13.0090   38.8560 C.3       6 GLP5        0.0000 
     15 CA         -6.1590  -13.6010   33.5260 C.3       3 GLC5        0.0000 
     16 CA         -5.1030  -12.4150   31.9460 C.3       6 GLP5        0.0000 
     17 CA         -6.7215  -16.5890   35.3770 C.3       3 GLC5        0.0000 
     18 CA         -6.2280  -18.3910   35.6480 C.3       6 GLP5        0.0000 
     19 CA         -6.4355  -15.8445   33.5000 C.3       3 GLC5        0.0000 
     20 CA         -5.6560  -16.9020   31.8940 C.3       6 GLP5        0.0000 
     21 CA         -5.0760  -15.1085   34.9880 C.3       3 GLC5        0.0000 
     22 CA         -2.9370  -15.4300   34.8700 C.3       6 GLP5        0.0000 
     23 NZ         -7.5815  -12.8265   36.8770 N.4       2 LYC4        0.0000 
     24 NZ         -7.1510  -11.8580   35.7760 N.4       8 LYL4        0.0000 
     25 NZ         -8.0120  -13.7950   37.9780 N.4       5 LYP4        0.0000 
     26 N          -6.0950  -11.1450   36.4015 N.am      1 SEC2        0.0000 
     27 N          -7.1510  -11.8580   35.7760 N.am      7 SEL2        0.0000 
     28 N          -5.0390  -10.4320   37.0270 N.am      4 SEP2        0.0000 
     29 CA         -7.0325  -15.3855   32.3845 C.3       3 GLC5        0.0000 
     30 CA         -8.4090  -13.8690   32.8750 C.3       9 GLL5        0.0000 
     31 CA         -8.6545  -15.9905   25.7590 C.3       3 GLC5        0.0000 
     32 CA         -9.1830  -16.2480   27.9290 C.3       9 GLL5        0.0000 
     33 CA         -8.1260  -15.7330   23.5890 C.3       6 GLP5        0.0000 
     34 CA         -8.7900  -17.8295   27.8735 C.3       3 GLC5        0.0000 
     35 CA         -8.3970  -19.4110   27.8180 C.3       6 GLP5        0.0000 
     36 CA        -11.7145  -10.2665   28.1810 C.3       3 GLC5        0.0000 
     37 CA        -12.3370  -11.8260   27.9930 C.3       9 GLL5        0.0000 
     38 CA        -11.0920   -8.7070   28.3690 C.3       6 GLP5        0.0000 
     39 CA        -13.4645  -11.8705   29.5105 C.3       3 GLC5        0.0000 
     40 CA        -14.5920  -11.9150   31.0280 C.3       6 GLP5        0.0000 
     41 CA         -8.7052   -9.7055   35.5292 C.3       3 GLC5        0.0000 
     42 CA         -8.2330  -11.1120   33.6770 C.3       9 GLL5        0.0000 
     43 CA         -9.2320   -9.1270   37.1570 C.3       6 GLP5        0.0000 
     44 CA         -7.9335  -14.7538   28.2065 C.3       3 GLC5        0.0000 
     45 CA         -9.7270  -14.8070   28.6890 C.3       9 GLL5        0.0000 
     46 CA         -6.4120  -13.9800   28.1040 C.3       6 GLP5        0.0000 
     47 CA         -7.8850  -13.9160   29.1965 C.3       3 GLC5        0.0000 
     48 CA         -9.1570  -14.4520   29.9390 C.3       9 GLL5        0.0000 
@<TRIPOS>BOND
@<TRIPOS>SUBSTRUCTURE
     1 SEC2       26 GROUP        1 X    SEC  0     ROOT SEC X 2
     2 LYC4       23 GROUP        1 X    LYC  0     **** LYC X 4
     3 GLC5        1 GROUP        1 X    GLC  0     **** GLC X 6
     4 SEP2       28 GROUP        1 Y    SEP  0     ROOT SEP Y 9
     5 LYP4       25 GROUP        1 Y    LYP  0     **** LYP Y 11
     6 GLP5        3 GROUP        1 Y    GLP  0     **** GLP Y 13
     7 SEL2       27 GROUP        1 Z    SEL  0     ROOT SEL Z 16
     8 LYL4       24 GROUP        1 Z    LYL  0     **** LYL Z 18
     9 GLL5        2 GROUP        1 Z    GLL  0     **** GLL Z 20
@<TRIPOS>SET

