#    Name: 1g3m_PCQ_1_ligand
#    Modification time : Tue Mar 25 02:31:26 2014

@<TRIPOS>MOLECULE
1g3m_PCQ_1_ligand
   22    23     1     0     0
SMALL
NO_CHARGES


@<TRIPOS>ATOM
      1 CL1        -8.1240   -9.4560   34.1260 Cl        1 PCQ712      0.0000 
      2 CL2        -7.2150  -14.7870   35.1060 Cl        1 PCQ712      0.0000 
      3 O1         -7.1510  -11.8580   35.7760 O.co2     1 PCQ712      0.0000 
      4 C1         -8.9380  -12.8800   31.9690 C.ar      1 PCQ712      0.0000 
      5 C2         -8.8220  -11.4180   32.4330 C.ar      1 PCQ712      0.0000 
      6 C3         -8.2330  -11.1120   33.6770 C.ar      1 PCQ712      0.0000 
      7 C4         -7.7200  -12.1330   34.5670 C.ar      1 PCQ712      0.0000 
      8 C5         -7.8260  -13.5150   34.1140 C.ar      1 PCQ712      0.0000 
      9 C6         -8.4090  -13.8690   32.8750 C.ar      1 PCQ712      0.0000 
     10 CL3        -9.1830  -16.2480   27.9290 Cl        1 PCQ712      0.0000 
     11 CL4       -12.3370  -11.8260   27.9930 Cl        1 PCQ712      0.0000 
     12 O1'       -11.2920  -14.3350   26.8340 O.co2     1 PCQ712      0.0000 
     13 C1'        -9.5590  -13.2520   30.6390 C.ar      1 PCQ712      0.0000 
     14 C2'        -9.1570  -14.4520   29.9390 C.ar      1 PCQ712      0.0000 
     15 C3'        -9.7270  -14.8070   28.6890 C.ar      1 PCQ712      0.0000 
     16 C4'       -10.7280  -14.0130   28.0410 C.ar      1 PCQ712      0.0000 
     17 C5'       -11.1400  -12.8130   28.7280 C.ar      1 PCQ712      0.0000 
     18 C6'       -10.5830  -12.4290   29.9880 C.ar      1 PCQ712      0.0000 
     19 H          -9.1833  -10.7201   31.8083 H         1 PCQ712      0.0000 
     20 H          -8.4628  -14.8608   32.6009 H         1 PCQ712      0.0000 
     21 H          -8.4433  -15.0520   30.3651 H         1 PCQ712      0.0000 
     22 H         -10.8902  -11.5787   30.4500 H         1 PCQ712      0.0000 
@<TRIPOS>BOND
     1    6    1 1    
     2    8    2 1    
     3    7    3 ar   
     4    5    4 ar   
     5    9    4 ar   
     6   13    4 1    
     7    6    5 ar   
     8   19    5 1    
     9    7    6 ar   
    10    8    7 ar   
    11    9    8 ar   
    12   20    9 1    
    13   15   10 1    
    14   17   11 1    
    15   16   12 ar   
    16   14   13 ar   
    17   18   13 ar   
    18   15   14 ar   
    19   21   14 1    
    20   16   15 ar   
    21   17   16 ar   
    22   18   17 ar   
    23   22   18 1    
@<TRIPOS>SUBSTRUCTURE
     1 PCQ712      1 GROUP   
@<TRIPOS>SET

