#    Name: 1odw_0E8_1_INTS_M
#    Modification time : Mon Mar 24 19:58:56 2014

@<TRIPOS>MOLECULE
1odw_0E8_1_INTS_M
   93     0     9     0     0
SMALL
NO_CHARGES


@<TRIPOS>ATOM
      1 CA         -1.3710    3.5050   11.6040 C.3       3 GLC5        0.0000 
      2 CA          0.2170    2.0840   11.6520 C.3       9 GLL5        0.0000 
      3 CA         -2.9590    4.9260   11.5560 C.3       6 GLP5        0.0000 
      4 CA         -1.5130    1.0275   11.8555 C.3       3 GLC5        0.0000 
      5 CA         -3.2430   -0.0290   12.0590 C.3       6 GLP5        0.0000 
      6 CA         -0.3585   -0.0965    9.4885 C.3       3 GLC5        0.0000 
      7 CA          1.3680    0.2730   10.3480 C.3       9 GLL5        0.0000 
      8 CA         -2.0850   -0.4660    8.6290 C.3       6 GLP5        0.0000 
      9 CA          2.9325   -0.6645    9.7220 C.3       3 GLC5        0.0000 
     10 CA          4.4970   -1.6020    9.0960 C.3       6 GLP5        0.0000 
     11 CA          1.3115   -1.7120    9.9700 C.3       3 GLC5        0.0000 
     12 CA          1.2550   -3.6970    9.5920 C.3       6 GLP5        0.0000 
     13 CA         -1.2125   -0.0520   12.3855 C.3       3 GLC5        0.0000 
     14 CA          0.8180   -0.0750   12.7120 C.3       9 GLL5        0.0000 
     15 O           7.6095    0.3230   16.1675 O.2       1 ALC1        0.0000 
     16 O           7.1850    0.0250   14.9380 O.2       7 ALL1        0.0000 
     17 O           8.0340    0.6210   17.3970 O.2       4 ALP1        0.0000 
     18 O           4.7600    2.8925   13.8950 O.2       1 ALC1        0.0000 
     19 O           4.6250    1.4910   12.9120 O.2       7 ALL1        0.0000 
     20 O           4.8950    4.2940   14.8780 O.2       4 ALP1        0.0000 
     21 CA          7.9755    3.3005   14.1370 C.3       3 GLC5        0.0000 
     22 CA          7.0130    2.0030   12.8360 C.3       9 GLL5        0.0000 
     23 CA          8.9380    4.5980   15.4380 C.3       6 GLP5        0.0000 
     24 CA          9.4890    0.4695   12.5040 C.3       3 GLC5        0.0000 
     25 CA          8.1190    0.9330   10.8250 C.3       9 GLL5        0.0000 
     26 CA         10.8590    0.0060   14.1830 C.3       6 GLP5        0.0000 
     27 OD1         4.2555    0.8045   17.7165 O.co2     2 ASC3        0.0000 
     28 OD1         5.0070   -0.1100   16.7710 O.co2     8 ASL3        0.0000 
     29 OD1         3.5040    1.7190   18.6620 O.co2     5 ASP3        0.0000 
     30 OD1         3.6615   -0.0045   17.3355 O.co2     2 ASC3        0.0000 
     31 OD1         2.3160    0.1010   17.9000 O.co2     5 ASP3        0.0000 
     32 OD1         5.7480    0.6240   17.7705 O.co2     2 ASC3        0.0000 
     33 OD1         6.4890    1.3580   18.7700 O.co2     5 ASP3        0.0000 
     34 OD1         6.5205    0.2555   17.0840 O.co2     2 ASC3        0.0000 
     35 OD1         8.0340    0.6210   17.3970 O.co2     5 ASP3        0.0000 
     36 CA          6.6250   -2.0560   18.4470 C.3       3 GLC5        0.0000 
     37 CA          5.3390   -1.5560   16.7800 C.3       9 GLL5        0.0000 
     38 CA          7.9110   -2.5560   20.1140 C.3       6 GLP5        0.0000 
     39 O           2.6690   -0.8725   17.1465 O.2       1 ALC1        0.0000 
     40 O           3.0220   -1.8460   16.3930 O.2       7 ALL1        0.0000 
     41 O           2.3160    0.1010   17.9000 O.2       4 ALP1        0.0000 
     42 O           5.4290   -3.6930   18.6745 O.2       1 ALC1        0.0000 
     43 O           5.7100   -4.2830   17.0770 O.2       7 ALL1        0.0000 
     44 O           5.1480   -3.1030   20.2720 O.2       4 ALP1        0.0000 
     45 CA          2.3390   -3.9650   19.1485 C.3       3 GLC5        0.0000 
     46 CA          3.2550   -4.7770   17.4420 C.3       9 GLL5        0.0000 
     47 CA          1.4230   -3.1530   20.8550 C.3       6 GLP5        0.0000 
     48 CA          8.9240   -3.7540   13.6305 C.3       3 GLC5        0.0000 
     49 CA          9.4940   -3.2350   15.6810 C.3       9 GLL5        0.0000 
     50 CA          8.3540   -4.2730   11.5800 C.3       6 GLP5        0.0000 
     51 CA         10.1765   -1.6145   14.9320 C.3       3 GLC5        0.0000 
     52 CA          8.7590   -4.9485   13.3135 C.3       3 GLC5        0.0000 
     53 CA          9.1640   -5.6240   15.0470 C.3       9 GLL5        0.0000 
     54 CA          7.4410   -6.1815   13.8495 C.3       3 GLC5        0.0000 
     55 CA          5.7180   -6.7390   12.6520 C.3       6 GLP5        0.0000 
     56 CA         11.4980   -5.7420   18.6820 C.3       3 GLC5        0.0000 
     57 CA         10.1570   -5.0680   17.2630 C.3       9 GLL5        0.0000 
     58 CA         12.8390   -6.4160   20.1010 C.3       6 GLP5        0.0000 
     59 CA          0.3450   -1.3315   12.0933 C.3       3 GLC5        0.0000 
     60 CA         -0.3700   -3.1180   11.9920 C.3       6 GLP5        0.0000 
     61 CA          0.9524    1.8124   13.8001 C.3       3 GLC5        0.0000 
     62 CA          1.1160    2.8950   15.4120 C.3       6 GLP5        0.0000 
     63 CA          0.0304    0.1219   13.7011 C.3       3 GLC5        0.0000 
     64 CA         -0.7280   -0.4860   15.2140 C.3       6 GLP5        0.0000 
     65 CA          5.4123    2.2627   16.1460 C.3       3 GLC5        0.0000 
     66 CA          4.7860    0.2340   15.3630 C.3       9 GLL5        0.0000 
     67 CA          5.4090    4.0070   17.2240 C.3       6 GLP5        0.0000 
     68 CA          8.9585   -0.6030   10.7122 C.3       3 GLC5        0.0000 
     69 CA          9.7400   -2.0860   11.3040 C.3       6 GLP5        0.0000 
     70 CA          6.1650   -0.1980    9.0482 C.3       3 GLC5        0.0000 
     71 CA          8.2350    0.8270    9.4160 C.3       9 GLL5        0.0000 
     72 CA          9.5030    1.1225    8.1803 C.3       3 GLC5        0.0000 
     73 CA          7.4310    1.5850    8.5850 C.3       9 GLL5        0.0000 
     74 CA         11.1730    1.0390    7.3600 C.3       6 GLP5        0.0000 
     75 CA          9.5786    2.2561   10.7615 C.3       3 GLC5        0.0000 
     76 CA         11.2110    3.4000   11.2790 C.3       6 GLP5        0.0000 
     77 CA          4.6288   -1.3920   18.8148 C.3       3 GLC5        0.0000 
     78 CA          4.5480   -0.7970   20.6780 C.3       6 GLP5        0.0000 
     79 CA          1.5530   -7.9090   15.0390 C.3       3 GLC5        0.0000 
     80 CA          2.9780   -6.4110   15.5280 C.3       9 GLL5        0.0000 
     81 CA          0.1040   -8.7660   14.8350 C.3       6 GLP5        0.0000 
     82 CA          1.3772   -6.3384   17.3479 C.3       3 GLC5        0.0000 
     83 CA         -0.4220   -6.2790   18.2180 C.3       6 GLP5        0.0000 
     84 CA          1.7680   -8.7270   15.6528 C.3       3 GLC5        0.0000 
     85 CA          3.3250   -8.7810   15.7900 C.3       9 GLL5        0.0000 
     86 CA          4.4407   -7.3277   14.0843 C.3       3 GLC5        0.0000 
     87 CA          9.4036   -3.1495   18.0243 C.3       3 GLC5        0.0000 
     88 CA          9.1610   -4.6250   16.2110 C.3       9 GLL5        0.0000 
     89 CA          9.0650   -1.8000   19.4440 C.3       6 GLP5        0.0000 
     90 CA         11.6341   -4.3255   16.1998 C.3       3 GLC5        0.0000 
     91 CA         13.5260   -4.1520   15.7950 C.3       6 GLP5        0.0000 
     92 CA         10.6419   -6.1421   15.0330 C.3       3 GLC5        0.0000 
     93 CA         11.6240   -7.1880   13.6200 C.3       6 GLP5        0.0000 
@<TRIPOS>BOND
@<TRIPOS>SUBSTRUCTURE
     1 ALC1       15 GROUP        1 X    ALC  0     ROOT ALC X 1
     2 ASC3       27 GROUP        1 X    ASC  0     **** ASC X 3
     3 GLC5        1 GROUP        1 X    GLC  0     **** GLC X 6
     4 ALP1       17 GROUP        1 Y    ALP  0     ROOT ALP Y 8
     5 ASP3       29 GROUP        1 Y    ASP  0     **** ASP Y 10
     6 GLP5        3 GROUP        1 Y    GLP  0     **** GLP Y 13
     7 ALL1       16 GROUP        1 Z    ALL  0     ROOT ALL Z 15
     8 ASL3       28 GROUP        1 Z    ASL  0     **** ASL Z 17
     9 GLL5        2 GROUP        1 Z    GLL  0     **** GLL Z 20
@<TRIPOS>SET

