#    Name: 1odw_0E8_1_ligand
#    Modification time : Mon Mar 24 19:58:56 2014

@<TRIPOS>MOLECULE
1odw_0E8_1_ligand
   83    84     1     0     0
SMALL
NO_CHARGES


@<TRIPOS>ATOM
      1 O1          3.7540   -0.4600   12.0380 O.2       1 0E8201      0.0000 
      2 C           3.6900    0.7250   12.3900 C.2       1 0E8201      0.0000 
      3 O2          2.5330    1.5590   12.1720 O.3       1 0E8201      0.0000 
      4 CT          1.3020    0.9850   11.6770 C.3       1 0E8201      0.0000 
      5 C1          0.2170    2.0840   11.6520 C.3       1 0E8201      0.0000 
      6 C2          1.3680    0.2730   10.3480 C.3       1 0E8201      0.0000 
      7 C3          0.8180   -0.0750   12.7120 C.3       1 0E8201      0.0000 
      8 C4          6.0450    0.8030   14.7730 C.3       1 0E8201      0.0000 
      9 O           7.1850    0.0250   14.9380 O.3       1 0E8201      0.0000 
     10 CA          5.9250    1.0190   13.2460 C.3       1 0E8201      0.0000 
     11 N           4.6250    1.4910   12.9120 N.am      1 0E8201      0.0000 
     12 CB          7.0130    2.0030   12.8360 C.3       1 0E8201      0.0000 
     13 CG          7.1960    1.8620   11.3190 C.ar      1 0E8201      0.0000 
     14 CD1         6.3950    2.6890   10.5110 C.ar      1 0E8201      0.0000 
     15 CD2         8.1190    0.9330   10.8250 C.ar      1 0E8201      0.0000 
     16 CE1         6.5260    2.5200    9.1130 C.ar      1 0E8201      0.0000 
     17 CE2         8.2350    0.8270    9.4160 C.ar      1 0E8201      0.0000 
     18 CZ          7.4310    1.5850    8.5850 C.ar      1 0E8201      0.0000 
     19 N1          5.0070   -0.1100   16.7710 N.4       1 0E8201      0.0000 
     20 C21         4.7860    0.2340   15.3630 C.3       1 0E8201      0.0000 
     21 C31         5.3390   -1.5560   16.7800 C.3       1 0E8201      0.0000 
     22 C5          4.0800   -2.4180   17.1230 C.3       1 0E8201      0.0000 
     23 O3          3.0220   -1.8460   16.3930 O.3       1 0E8201      0.0000 
     24 CA1         4.3360   -3.8870   16.7660 C.3       1 0E8201      0.0000 
     25 N2          5.7100   -4.2830   17.0770 N.am      1 0E8201      0.0000 
     26 CB1         3.2550   -4.7770   17.4420 C.3       1 0E8201      0.0000 
     27 CG1         3.2540   -6.1910   16.8820 C.ar      1 0E8201      0.0000 
     28 CD11        3.4950   -7.2850   17.6930 C.ar      1 0E8201      0.0000 
     29 CD21        2.9780   -6.4110   15.5280 C.ar      1 0E8201      0.0000 
     30 CE11        3.5390   -8.5950   17.1510 C.ar      1 0E8201      0.0000 
     31 CE21        3.0260   -7.6930   14.9580 C.ar      1 0E8201      0.0000 
     32 CZ1         3.3250   -8.7810   15.7900 C.ar      1 0E8201      0.0000 
     33 O11         6.6370   -4.1410   15.0120 O.2       1 0E8201      0.0000 
     34 C6          6.7060   -4.3570   16.1980 C.2       1 0E8201      0.0000 
     35 O21         7.8730   -4.6800   16.8670 O.3       1 0E8201      0.0000 
     36 CT1         9.1610   -4.6250   16.2110 C.3       1 0E8201      0.0000 
     37 C11         9.4940   -3.2350   15.6810 C.3       1 0E8201      0.0000 
     38 C22         9.1640   -5.6240   15.0470 C.3       1 0E8201      0.0000 
     39 C32        10.1570   -5.0680   17.2630 C.3       1 0E8201      0.0000 
     40 H           6.2066    1.8130   15.1898 H         1 0E8201      0.0000 
     41 H           6.1437    0.0670   12.7777 H         1 0E8201      0.0000 
     42 H           4.4438    2.5156   13.1099 H         1 0E8201      0.0000 
     43 H           7.9324    1.7551   13.3297 H         1 0E8201      0.0000 
     44 H           6.7033    3.0040   13.0653 H         1 0E8201      0.0000 
     45 H           5.7678    3.3590   10.8991 H         1 0E8201      0.0000 
     46 H           8.6765    0.3647   11.4324 H         1 0E8201      0.0000 
     47 H           5.9509    3.0895    8.4805 H         1 0E8201      0.0000 
     48 H           8.9285    0.1756    9.0233 H         1 0E8201      0.0000 
     49 H           7.4898    1.4689    7.5594 H         1 0E8201      0.0000 
     50 H           4.4959   -0.6545   14.7935 H         1 0E8201      0.0000 
     51 H           3.9842    0.9733   15.2715 H         1 0E8201      0.0000 
     52 H           6.1035   -1.7747   17.5268 H         1 0E8201      0.0000 
     53 H           5.7041   -1.8771   15.8035 H         1 0E8201      0.0000 
     54 H           3.9339   -2.3310   18.1850 H         1 0E8201      0.0000 
     55 H           4.1655   -3.9724   15.6728 H         1 0E8201      0.0000 
     56 H           5.8730   -4.5207   18.1026 H         1 0E8201      0.0000 
     57 H           2.2793   -4.3159   17.2810 H         1 0E8201      0.0000 
     58 H           3.4536   -4.8053   18.5145 H         1 0E8201      0.0000 
     59 H           3.6464   -7.1632   18.7051 H         1 0E8201      0.0000 
     60 H           2.7299   -5.6026   14.9248 H         1 0E8201      0.0000 
     61 H           3.7273   -9.3871   17.7662 H         1 0E8201      0.0000 
     62 H           2.8489   -7.8277   13.9701 H         1 0E8201      0.0000 
     63 H           3.3856   -9.7267   15.3835 H         1 0E8201      0.0000 
     64 H           0.0483    2.4602   12.5631 H         1 0E8201      0.0000 
     65 H           0.4767    2.8489   11.0626 H         1 0E8201      0.0000 
     66 H          -0.6567    1.7357   11.3123 H         1 0E8201      0.0000 
     67 H           1.6672    0.8830    9.6143 H         1 0E8201      0.0000 
     68 H           2.0078   -0.4953   10.3696 H         1 0E8201      0.0000 
     69 H           0.4777   -0.0944   10.0789 H         1 0E8201      0.0000 
     70 H           1.4892   -0.8057   12.8368 H         1 0E8201      0.0000 
     71 H           0.6561    0.3310   13.6114 H         1 0E8201      0.0000 
     72 H          -0.0373   -0.5081   12.4277 H         1 0E8201      0.0000 
     73 H          10.3873   -3.2129   15.2321 H         1 0E8201      0.0000 
     74 H           8.8212   -2.9222   15.0105 H         1 0E8201      0.0000 
     75 H           9.5168   -2.5541   16.4130 H         1 0E8201      0.0000 
     76 H          10.0367   -5.6226   14.5587 H         1 0E8201      0.0000 
     77 H           9.0051   -6.5602   15.3606 H         1 0E8201      0.0000 
     78 H           8.4524   -5.4148   14.3762 H         1 0E8201      0.0000 
     79 H          11.0928   -5.0709   16.9106 H         1 0E8201      0.0000 
     80 H          10.1464   -4.4660   18.0614 H         1 0E8201      0.0000 
     81 H           9.9643   -5.9929   17.5907 H         1 0E8201      0.0000 
     82 H           7.5294    0.2602   15.8469 H         1 0E8201      0.0000 
     83 H           3.0401   -0.8745   16.6294 H         1 0E8201      0.0000 
@<TRIPOS>BOND
     1    2    1 2    
     2    3    2 1    
     3   11    2 am   
     4    4    3 1    
     5    5    4 1    
     6    6    4 1    
     7    7    4 1    
     8   64    5 1    
     9   65    5 1    
    10   66    5 1    
    11   67    6 1    
    12   68    6 1    
    13   69    6 1    
    14   70    7 1    
    15   71    7 1    
    16   72    7 1    
    17    9    8 1    
    18   10    8 1    
    19   20    8 1    
    20   40    8 1    
    21   82    9 1    
    22   11   10 1    
    23   12   10 1    
    24   41   10 1    
    25   42   11 1    
    26   13   12 1    
    27   43   12 1    
    28   44   12 1    
    29   14   13 ar   
    30   15   13 ar   
    31   16   14 ar   
    32   45   14 1    
    33   17   15 ar   
    34   46   15 1    
    35   18   16 ar   
    36   47   16 1    
    37   18   17 ar   
    38   48   17 1    
    39   49   18 1    
    40   20   19 1    
    41   21   19 1    
    42   50   20 1    
    43   51   20 1    
    44   22   21 1    
    45   52   21 1    
    46   53   21 1    
    47   23   22 1    
    48   24   22 1    
    49   54   22 1    
    50   83   23 1    
    51   25   24 1    
    52   26   24 1    
    53   55   24 1    
    54   34   25 am   
    55   56   25 1    
    56   27   26 1    
    57   57   26 1    
    58   58   26 1    
    59   28   27 ar   
    60   29   27 ar   
    61   30   28 ar   
    62   59   28 1    
    63   31   29 ar   
    64   60   29 1    
    65   32   30 ar   
    66   61   30 1    
    67   32   31 ar   
    68   62   31 1    
    69   63   32 1    
    70   34   33 2    
    71   35   34 1    
    72   36   35 1    
    73   37   36 1    
    74   38   36 1    
    75   39   36 1    
    76   73   37 1    
    77   74   37 1    
    78   75   37 1    
    79   76   38 1    
    80   77   38 1    
    81   78   38 1    
    82   79   39 1    
    83   80   39 1    
    84   81   39 1    
@<TRIPOS>SUBSTRUCTURE
     1 0E8201      1 GROUP   
@<TRIPOS>SET

