#    Name: 2OKE_2_CAVITY_N1_6.mol2
#    Modification time : Tue Mar 11 03:02:27 2014

@<TRIPOS>MOLECULE
2OKE_2_CAVITY_N1_6.mol2
   60     0     5     0     0
SMALL
NO_CHARGES


@<TRIPOS>ATOM
      1 O         -11.8173  -34.0053   16.1478 O.2       2 ALA2        0.0000 
      2 N         -11.3593  -35.2256   16.8903 N.2       2 ALA2        0.0000 
      3 DU        -12.8961  -34.8118   15.4878 H         5 CUB7        0.0000 
      4 O         -12.4382  -36.0321   16.2303 O.2       2 ALA2        0.0000 
      5 O         -11.9802  -37.2523   16.9727 O.2       2 ALA2        0.0000 
      6 O         -11.0643  -39.6928   18.4577 O.2       2 ALA2        0.0000 
      7 DU        -13.9750  -35.6184   14.8277 H         5 CUB7        0.0000 
      8 DU        -13.5170  -36.8386   15.5702 H         5 CUB7        0.0000 
      9 O         -13.0590  -38.0588   16.3127 O.2       2 ALA2        0.0000 
     10 O         -12.6011  -39.2791   17.0552 O.2       2 ALA2        0.0000 
     11 NZ        -12.1431  -40.4993   17.7977 N.2       3 LYS4        0.0000 
     12 NZ        -13.6799  -40.0856   16.3952 N.2       3 LYS4        0.0000 
     13 O         -10.8811  -34.3378   15.0239 O.2       2 ALA2        0.0000 
     14 N         -10.4232  -35.5580   15.7664 N.2       2 ALA2        0.0000 
     15 O         -12.8759  -32.7039   12.8789 O.2       2 ALA2        0.0000 
     16 O         -12.4179  -33.9241   13.6214 O.2       2 ALA2        0.0000 
     17 DU        -11.9600  -35.1443   14.3639 H         5 CUB7        0.0000 
     18 DU        -11.5020  -36.3646   15.1064 H         5 CUB7        0.0000 
     19 O         -11.0440  -37.5848   15.8489 O.2       2 ALA2        0.0000 
     20 O         -10.5861  -38.8050   16.5914 O.2       2 ALA2        0.0000 
     21 O         -10.1281  -40.0253   17.3339 O.2       2 ALA2        0.0000 
     22 OG        -13.4968  -34.7306   12.9614 O.2       1 SER1        0.0000 
     23 OG        -13.0388  -35.9509   13.7039 O.2       1 SER1        0.0000 
     24 DU        -12.5808  -37.1711   14.4464 H         5 CUB7        0.0000 
     25 NZ        -12.1229  -38.3913   15.1888 N.2       3 LYS4        0.0000 
     26 NZ        -11.6649  -39.6116   15.9313 N.2       3 LYS4        0.0000 
     27 NZ        -11.2069  -40.8318   16.6738 N.2       3 LYS4        0.0000 
     28 OG        -14.1176  -36.7574   13.0438 O.2       1 SER1        0.0000 
     29 NZ        -13.6597  -37.9776   13.7863 N.2       3 LYS4        0.0000 
     30 NZ        -13.2017  -39.1978   14.5288 N.2       3 LYS4        0.0000 
     31 N          -7.4923  -37.5245   16.7876 N.2       2 ALA2        0.0000 
     32 CA         -9.9450  -34.6703   13.9001 C.3       4 GLY6        0.0000 
     33 N          -9.4870  -35.8905   14.6426 N.2       2 ALA2        0.0000 
     34 N          -9.0291  -37.1108   15.3851 N.2       2 ALA2        0.0000 
     35 O          -8.5711  -38.3310   16.1276 O.2       2 ALA2        0.0000 
     36 CA         -8.1131  -39.5512   16.8701 C.3       4 GLY6        0.0000 
     37 CA        -11.4818  -34.2566   12.4976 C.3       4 GLY6        0.0000 
     38 CA        -11.0238  -35.4768   13.2401 C.3       4 GLY6        0.0000 
     39 N         -10.5658  -36.6971   13.9825 N.2       2 ALA2        0.0000 
     40 NZ        -10.1079  -37.9173   14.7250 N.2       3 LYS4        0.0000 
     41 NZ         -9.6499  -39.1375   15.4675 N.2       3 LYS4        0.0000 
     42 CA         -9.1919  -40.3578   16.2100 C.3       4 GLY6        0.0000 
     43 O         -12.1026  -36.2833   12.5800 O.2       2 ALA2        0.0000 
     44 N         -11.6447  -37.5036   13.3225 N.2       2 ALA2        0.0000 
     45 NZ        -11.1867  -38.7238   14.0650 N.2       3 LYS4        0.0000 
     46 OG        -13.1815  -37.0899   11.9200 O.2       1 SER1        0.0000 
     47 NZ        -12.7235  -38.3101   12.6625 N.2       3 LYS4        0.0000 
     48 N         -13.8023  -39.1166   12.0024 N.2       2 ALA2        0.0000 
     49 NZ         -6.5561  -37.8570   15.6637 N.2       3 LYS4        0.0000 
     50 CA         -9.0088  -35.0028   12.7762 C.3       4 GLY6        0.0000 
     51 N          -8.5509  -36.2230   13.5187 N.2       2 ALA2        0.0000 
     52 O          -8.0929  -37.4433   14.2612 O.2       2 ALA2        0.0000 
     53 O          -7.6349  -38.6635   15.0037 O.2       2 ALA2        0.0000 
     54 N         -10.0877  -35.8093   12.1162 N.2       2 ALA2        0.0000 
     55 N          -9.6297  -37.0296   12.8587 N.2       2 ALA2        0.0000 
     56 O          -9.1717  -38.2498   13.6012 O.2       2 ALA2        0.0000 
     57 O          -8.7138  -39.4700   14.3437 O.2       2 ALA2        0.0000 
     58 N         -11.1665  -36.6158   11.4562 N.2       2 ALA2        0.0000 
     59 NZ        -10.2506  -39.0563   12.9411 N.2       3 LYS4        0.0000 
     60 N         -11.7873  -38.6426   11.5386 N.2       2 ALA2        0.0000 
@<TRIPOS>BOND
@<TRIPOS>SUBSTRUCTURE
     1 SER1       22 GROUP   
     2 ALA2        1 GROUP   
     3 LYS4       11 GROUP   
     4 GLY6       32 GROUP   
     5 CUB7        3 GROUP   
@<TRIPOS>SET

