#    Name: 2oke_DUP_2_INTS_M
#    Modification time : Tue Mar 25 22:52:08 2014

@<TRIPOS>MOLECULE
2oke_DUP_2_INTS_M
   40     0     9     0     0
SMALL
NO_CHARGES


@<TRIPOS>ATOM
      1 N         -15.7295  -39.0980    5.8115 N.am      2 SEC2        0.0000 
      2 N         -17.1850  -39.1020    6.3330 N.am      8 SEL2        0.0000 
      3 N         -14.2740  -39.0940    5.2900 N.am      5 SEP2        0.0000 
      4 CA        -15.2065  -39.6500    6.6500 C.3       3 GLC5        0.0000 
      5 CA        -16.1530  -38.7800    8.3490 C.3       9 GLL5        0.0000 
      6 CA        -14.2600  -40.5200    4.9510 C.3       6 GLP5        0.0000 
      7 O         -19.0130  -40.3595    7.1255 O.2       1 ALC1        0.0000 
      8 O         -18.1770  -40.0040    8.1420 O.2       7 ALL1        0.0000 
      9 O         -19.8490  -40.7150    6.1090 O.2       4 ALP1        0.0000 
     10 N         -20.3505  -41.2720    9.0755 N.am      2 SEC2        0.0000 
     11 N         -19.1240  -40.8820    9.9580 N.am      8 SEL2        0.0000 
     12 N         -21.5770  -41.6620    8.1930 N.am      5 SEP2        0.0000 
     13 CA        -18.3685  -40.9885   12.7680 C.3       3 GLC5        0.0000 
     14 CA        -17.1640  -39.9480   11.7430 C.3       9 GLL5        0.0000 
     15 CA        -19.5730  -42.0290   13.7930 C.3       6 GLP5        0.0000 
     16 CA        -16.2675  -41.9350   10.4175 C.3       3 GLC5        0.0000 
     17 CA        -15.9130  -40.6850   12.2050 C.3       9 GLL5        0.0000 
     18 CA        -16.6220  -43.1850    8.6300 C.3       6 GLP5        0.0000 
     19 O         -13.9010  -41.1255   13.9450 O.2       1 ALC1        0.0000 
     20 O         -14.9720  -40.5270   14.4190 O.2       7 ALL1        0.0000 
     21 O         -12.8300  -41.7240   13.4710 O.2       4 ALP1        0.0000 
     22 CA        -17.5140  -40.1605   14.1745 C.3       3 GLC5        0.0000 
     23 CA        -16.3120  -38.7140   13.5560 C.3       9 GLL5        0.0000 
     24 CA        -18.7160  -41.6070   14.7930 C.3       6 GLP5        0.0000 
     25 CA        -15.5645  -36.3770   11.8085 C.3       3 GLC5        0.0000 
     26 CA        -15.6810  -37.3360   13.7390 C.3       9 GLL5        0.0000 
     27 CA        -15.4480  -35.4180    9.8780 C.3       6 GLP5        0.0000 
     28 N         -14.0970  -32.6215   11.8535 N.am      2 SEC2        0.0000 
     29 N         -13.3400  -32.8530   13.0610 N.am      8 SEL2        0.0000 
     30 N         -14.8540  -32.3900   10.6460 N.am      5 SEP2        0.0000 
     31 N         -13.2435  -35.1625   10.8250 N.am      2 SEC2        0.0000 
     32 N         -13.2940  -35.8890   11.9900 N.am      8 SEL2        0.0000 
     33 N         -13.1930  -34.4360    9.6600 N.am      5 SEP2        0.0000 
     34 N         -14.5130  -35.4815   11.6075 N.am      2 SEC2        0.0000 
     35 N         -15.7320  -35.0740   11.2250 N.am      5 SEP2        0.0000 
     36 CA        -15.8023  -37.1543    9.4565 C.3       3 GLC5        0.0000 
     37 CA        -16.1600  -39.0010    9.7210 C.3       9 GLL5        0.0000 
     38 CA        -16.3892  -41.0378    8.8325 C.3       3 GLC5        0.0000 
     39 CA        -16.5898  -41.2948   13.9025 C.3       3 GLC5        0.0000 
     40 CA        -17.5840  -42.3570   15.0810 C.3       6 GLP5        0.0000 
@<TRIPOS>BOND
@<TRIPOS>SUBSTRUCTURE
     1 ALC1        7 GROUP        1 X    ALC  0     ROOT ALC X 1
     2 SEC2        1 GROUP        1 X    SEC  0     **** SEC X 2
     3 GLC5        4 GROUP        1 X    GLC  0     **** GLC X 6
     4 ALP1        9 GROUP        1 Y    ALP  0     ROOT ALP Y 8
     5 SEP2        3 GROUP        1 Y    SEP  0     **** SEP Y 9
     6 GLP5        6 GROUP        1 Y    GLP  0     **** GLP Y 13
     7 ALL1        8 GROUP        1 Z    ALL  0     ROOT ALL Z 15
     8 SEL2        2 GROUP        1 Z    SEL  0     **** SEL Z 16
     9 GLL5        5 GROUP        1 Z    GLL  0     **** GLL Z 20
@<TRIPOS>SET

