#    Name: 2oke_DUP_2_ligand
#    Modification time : Tue Mar 25 22:52:08 2014

@<TRIPOS>MOLECULE
2oke_DUP_2_ligand
   39    40     1     0     0
SMALL
NO_CHARGES


@<TRIPOS>ATOM
      1 O4        -17.1850  -39.1020    6.3330 O.2       1 DUP201      0.0000 
      2 C4        -17.1820  -39.2940    7.5690 C.2       1 DUP201      0.0000 
      3 C5        -16.1530  -38.7800    8.3490 C.2       1 DUP201      0.0000 
      4 C6        -16.1600  -39.0010    9.7210 C.2       1 DUP201      0.0000 
      5 N3        -18.1770  -40.0040    8.1420 N.am      1 DUP201      0.0000 
      6 C2        -18.1890  -40.2200    9.4710 C.2       1 DUP201      0.0000 
      7 O2        -19.1240  -40.8820    9.9580 O.2       1 DUP201      0.0000 
      8 N1        -17.1510  -39.7090   10.2880 N.am      1 DUP201      0.0000 
      9 C1'       -17.1640  -39.9480   11.7430 C.3       1 DUP201      0.0000 
     10 C2'       -15.9130  -40.6850   12.2050 C.3       1 DUP201      0.0000 
     11 C3'       -15.2780  -39.7800   13.2430 C.3       1 DUP201      0.0000 
     12 O3'       -14.9720  -40.5270   14.4190 O.3       1 DUP201      0.0000 
     13 O4'       -17.2290  -38.7120   12.4600 O.3       1 DUP201      0.0000 
     14 C4'       -16.3120  -38.7140   13.5560 C.3       1 DUP201      0.0000 
     15 C5'       -15.6810  -37.3360   13.7390 C.3       1 DUP201      0.0000 
     16 O5'       -15.4740  -37.0670   15.1290 O.3       1 DUP201      0.0000 
     17 PA        -14.7340  -35.7280   15.6560 P.3       1 DUP201      0.0000 
     18 O1A       -15.6600  -35.0410   16.6330 O.co2     1 DUP201      0.0000 
     19 O2A       -13.3670  -36.1370   16.1680 O.co2     1 DUP201      0.0000 
     20 N3A       -14.5610  -34.6900   14.3620 N.4       1 DUP201      0.0000 
     21 PB        -13.1510  -33.8230   14.2060 P.3       1 DUP201      0.0000 
     22 O1B       -13.3400  -32.8530   13.0610 O.co2     1 DUP201      0.0000 
     23 O2B       -12.8120  -33.2680   15.5720 O.co2     1 DUP201      0.0000 
     24 O3B       -11.9540  -34.8470   13.8220 O.3       1 DUP201      0.0000 
     25 PG        -12.1250  -36.1720   12.9010 P.3       1 DUP201      0.0000 
     26 O2G       -13.2940  -35.8890   11.9900 O.co2     1 DUP201      0.0000 
     27 O1G       -10.8140  -36.2850   12.1600 O.co2     1 DUP201      0.0000 
     28 O3G       -12.3450  -37.2950   13.8900 O.co2     1 DUP201      0.0000 
     29 H         -15.3955  -38.2426    7.9161 H         1 DUP201      0.0000 
     30 H         -15.3868  -38.6087   10.2924 H         1 DUP201      0.0000 
     31 H         -18.9462  -40.3898    7.5458 H         1 DUP201      0.0000 
     32 H         -18.0186  -40.5708   12.0022 H         1 DUP201      0.0000 
     33 H         -15.2480  -40.8157   11.3801 H         1 DUP201      0.0000 
     34 H         -16.1884  -41.6146   12.6519 H         1 DUP201      0.0000 
     35 H         -14.4260  -39.3136   12.8139 H         1 DUP201      0.0000 
     36 H         -16.8151  -38.9939   14.4691 H         1 DUP201      0.0000 
     37 H         -16.3502  -36.5970   13.2790 H         1 DUP201      0.0000 
     38 H         -14.7366  -37.3226   13.1791 H         1 DUP201      0.0000 
     39 H         -14.4838  -41.3361   14.0918 H         1 DUP201      0.0000 
@<TRIPOS>BOND
     1    2    1 2    
     2    3    2 1    
     3    5    2 1    
     4    4    3 2    
     5   29    3 1    
     6    8    4 1    
     7   30    4 1    
     8    6    5 1    
     9   31    5 1    
    10    7    6 2    
    11    8    6 1    
    12    9    8 1    
    13   10    9 1    
    14   13    9 1    
    15   32    9 1    
    16   11   10 1    
    17   33   10 1    
    18   34   10 1    
    19   12   11 1    
    20   14   11 1    
    21   35   11 1    
    22   39   12 1    
    23   14   13 1    
    24   15   14 1    
    25   36   14 1    
    26   16   15 1    
    27   37   15 1    
    28   38   15 1    
    29   17   16 1    
    30   18   17 ar   
    31   19   17 ar   
    32   20   17 1    
    33   21   20 1    
    34   22   21 ar   
    35   23   21 ar   
    36   24   21 1    
    37   25   24 1    
    38   26   25 ar   
    39   27   25 ar   
    40   28   25 ar   
@<TRIPOS>SUBSTRUCTURE
     1 DUP201      1 GROUP   
@<TRIPOS>SET

