#    Name: 1oi9_N20_1_INTS_M
#    Modification time : Mon Mar 24 20:11:45 2014

@<TRIPOS>MOLECULE
1oi9_N20_1_INTS_M
   58     0     9     0     0
SMALL
NO_CHARGES


@<TRIPOS>ATOM
      1 CA          7.1315   44.6790   48.2785 C.3       3 GLC5        0.0000 
      2 CA          7.9430   43.7940   49.8040 C.3       9 GLL5        0.0000 
      3 CA          6.3200   45.5640   46.7530 C.3       6 GLP5        0.0000 
      4 CA          9.0115   45.6065   49.0175 C.3       3 GLC5        0.0000 
      5 CA         10.0800   47.4190   48.2310 C.3       6 GLP5        0.0000 
      6 CA          8.2700   43.3115   51.5485 C.3       3 GLC5        0.0000 
      7 CA          8.5970   42.8290   53.2930 C.3       6 GLP5        0.0000 
      8 O           2.4630   39.6610   50.4775 O.2       1 ALC1        0.0000 
      9 O           2.8750   40.0740   48.9520 O.2       7 ALL1        0.0000 
     10 O           2.0510   39.2480   52.0030 O.2       4 ALP1        0.0000 
     11 CA          4.3705   45.3010   49.9755 C.3       3 GLC5        0.0000 
     12 CA          4.9330   45.9430   51.6860 C.3       9 GLL5        0.0000 
     13 CA          3.8080   44.6590   48.2650 C.3       6 GLP5        0.0000 
     14 CA          5.6600   47.3355   50.4520 C.3       3 GLC5        0.0000 
     15 CA          6.3870   48.7280   49.2180 C.3       6 GLP5        0.0000 
     16 CA          4.7145   48.0890   52.0460 C.3       3 GLC5        0.0000 
     17 CA          4.0360   46.1890   52.8930 C.3       9 GLL5        0.0000 
     18 CA          5.3930   49.9890   51.1990 C.3       6 GLP5        0.0000 
     19 CA          1.4265   46.6525   50.9920 C.3       3 GLC5        0.0000 
     20 CA          2.6070   45.7530   52.5480 C.3       9 GLL5        0.0000 
     21 CA          0.2460   47.5520   49.4360 C.3       6 GLP5        0.0000 
     22 CA          4.8905   46.5795   56.8225 C.3       3 GLC5        0.0000 
     23 CA          3.6340   45.8150   55.3170 C.3       9 GLL5        0.0000 
     24 CA          6.1470   47.3440   58.3280 C.3       6 GLP5        0.0000 
     25 CA          4.1600   40.1665   51.8445 C.3       3 GLC5        0.0000 
     26 CA          4.4640   41.3480   50.0690 C.3       9 GLL5        0.0000 
     27 CA          3.8560   38.9850   53.6200 C.3       6 GLP5        0.0000 
     28 CA          7.4645   39.9325   47.4075 C.3       3 GLC5        0.0000 
     29 CA          5.9740   41.5130   47.7500 C.3       9 GLL5        0.0000 
     30 CA          8.9550   38.3520   47.0650 C.3       6 GLP5        0.0000 
     31 O          12.1190   45.3920   50.3525 O.2       1 ALC1        0.0000 
     32 O          10.9380   45.4970   51.0720 O.2       7 ALL1        0.0000 
     33 O          13.3000   45.2870   49.6330 O.2       4 ALP1        0.0000 
     34 N          10.3525   43.1385   49.2555 N.am      2 SEC2        0.0000 
     35 N           9.2660   44.0820   49.9480 N.am      8 SEL2        0.0000 
     36 N          11.4390   42.1950   48.5630 N.am      5 SEP2        0.0000 
     37 O           8.3300   41.9195   48.3815 O.2       1 ALC1        0.0000 
     38 O           7.5750   42.8240   48.9260 O.2       7 ALL1        0.0000 
     39 O           9.0850   41.0150   47.8370 O.2       4 ALP1        0.0000 
     40 CA          2.1766   47.5484   55.3044 C.3       3 GLC5        0.0000 
     41 CA          2.1950   45.3580   55.0540 C.3       9 GLL5        0.0000 
     42 CA          1.5790   49.3770   55.7540 C.3       6 GLP5        0.0000 
     43 CA          4.0270   42.8475   48.8770 C.3       3 GLC5        0.0000 
     44 CA          5.1570   39.4555   49.4765 C.3       3 GLC5        0.0000 
     45 CA          6.0680   37.8750   49.4640 C.3       6 GLP5        0.0000 
     46 CA          5.9055   41.4548   51.9295 C.3       3 GLC5        0.0000 
     47 CA          6.7580   41.2070   53.7830 C.3       6 GLP5        0.0000 
     48 CA          4.5890   42.9095   48.0035 C.3       3 GLC5        0.0000 
     49 CA          5.7190   39.5175   48.6030 C.3       3 GLC5        0.0000 
     50 CA          7.1832   47.1718   50.3500 C.3       3 GLC5        0.0000 
     51 CA          7.2750   45.4390   51.3880 C.3       9 GLL5        0.0000 
     52 CA          9.6217   46.4225   49.7097 C.3       3 GLC5        0.0000 
     53 CA          8.6840   45.7920   51.5760 C.3       9 GLL5        0.0000 
     54 CA          8.7041   44.0834   52.2172 C.3       3 GLC5        0.0000 
     55 CA          9.6430   45.0600   50.8010 C.3       9 GLL5        0.0000 
     56 CA          4.9152   43.3798   48.8845 C.3       3 GLC5        0.0000 
     57 CA          5.6420   42.0570   50.0830 C.3       9 GLL5        0.0000 
     58 CA          6.0453   39.9878   49.4840 C.3       3 GLC5        0.0000 
@<TRIPOS>BOND
@<TRIPOS>SUBSTRUCTURE
     1 ALC1        8 GROUP        1 X    ALC  0     ROOT ALC X 1
     2 SEC2       34 GROUP        1 X    SEC  0     **** SEC X 2
     3 GLC5        1 GROUP        1 X    GLC  0     **** GLC X 6
     4 ALP1       10 GROUP        1 Y    ALP  0     ROOT ALP Y 8
     5 SEP2       36 GROUP        1 Y    SEP  0     **** SEP Y 9
     6 GLP5        3 GROUP        1 Y    GLP  0     **** GLP Y 13
     7 ALL1        9 GROUP        1 Z    ALL  0     ROOT ALL Z 15
     8 SEL2       35 GROUP        1 Z    SEL  0     **** SEL Z 16
     9 GLL5        2 GROUP        1 Z    GLL  0     **** GLL Z 20
@<TRIPOS>SET

