#    Name: 1oi9_N20_1_ligand
#    Modification time : Mon Mar 24 20:11:45 2014

@<TRIPOS>MOLECULE
1oi9_N20_1_ligand
   46    49     1     0     0
SMALL
NO_CHARGES


@<TRIPOS>ATOM
      1 C2          7.9430   43.7940   49.8040 C.ar      1 N201298     0.0000 
      2 O23         2.8750   40.0740   48.9520 O.3       1 N201298     0.0000 
      3 C8         10.6830   46.4870   52.0230 C.2       1 N201298     0.0000 
      4 C10         4.9330   45.9430   51.6860 C.3       1 N201298     0.0000 
      5 C11         4.0360   46.1890   52.8930 C.3       1 N201298     0.0000 
      6 C12         2.6070   45.7530   52.5480 C.3       1 N201298     0.0000 
      7 C13         1.6340   45.8910   53.7310 C.3       1 N201298     0.0000 
      8 C14         2.1950   45.3580   55.0540 C.3       1 N201298     0.0000 
      9 C15         3.6340   45.8150   55.3170 C.3       1 N201298     0.0000 
     10 C16         4.5400   45.4600   54.1420 C.3       1 N201298     0.0000 
     11 C19         4.4640   41.3480   50.0690 C.ar      1 N201298     0.0000 
     12 C20         4.0280   40.7240   48.9090 C.ar      1 N201298     0.0000 
     13 C21         4.7660   40.8070   47.7340 C.ar      1 N201298     0.0000 
     14 C22         5.9740   41.5130   47.7500 C.ar      1 N201298     0.0000 
     15 N1          6.9900   44.4610   50.5040 N.ar      1 N201298     0.0000 
     16 C6          7.2750   45.4390   51.3880 C.ar      1 N201298     0.0000 
     17 O6          6.2950   46.1090   52.0700 O.3       1 N201298     0.0000 
     18 C5          8.6840   45.7920   51.5760 C.ar      1 N201298     0.0000 
     19 N7          9.3440   46.7070   52.3490 N.2       1 N201298     0.0000 
     20 N9         10.9380   45.4970   51.0720 N.pl3     1 N201298     0.0000 
     21 C4          9.6430   45.0600   50.8010 C.ar      1 N201298     0.0000 
     22 N3          9.2660   44.0820   49.9480 N.ar      1 N201298     0.0000 
     23 N2          7.5750   42.8240   48.9260 N.pl3     1 N201298     0.0000 
     24 C17         6.4030   42.1440   48.9250 C.ar      1 N201298     0.0000 
     25 C18         5.6420   42.0570   50.0830 C.ar      1 N201298     0.0000 
     26 H          11.4228   47.0118   52.4489 H         1 N201298     0.0000 
     27 H           4.6417   46.6497   50.9018 H         1 N201298     0.0000 
     28 H           4.7333   44.9303   51.3203 H         1 N201298     0.0000 
     29 H           4.0178   47.2556   53.0956 H         1 N201298     0.0000 
     30 H           2.6211   44.7067   52.2204 H         1 N201298     0.0000 
     31 H           2.2388   46.3609   51.7130 H         1 N201298     0.0000 
     32 H           0.7067   45.3510   53.4919 H         1 N201298     0.0000 
     33 H           1.3740   46.9521   53.8540 H         1 N201298     0.0000 
     34 H           2.1654   44.2621   55.0388 H         1 N201298     0.0000 
     35 H           1.5557   45.6997   55.8765 H         1 N201298     0.0000 
     36 H           4.0034   45.3285   56.2180 H         1 N201298     0.0000 
     37 H           3.6436   46.8930   55.4679 H         1 N201298     0.0000 
     38 H           5.5505   45.7750   54.3564 H         1 N201298     0.0000 
     39 H           4.5092   44.3941   53.9707 H         1 N201298     0.0000 
     40 H           3.8926   41.2758   50.9300 H         1 N201298     0.0000 
     41 H           4.4385   40.3653   46.8783 H         1 N201298     0.0000 
     42 H           6.5466   41.5691   46.9010 H         1 N201298     0.0000 
     43 H          11.7212   45.2198   50.7305 H         1 N201298     0.0000 
     44 H           8.2897   42.5709   48.1518 H         1 N201298     0.0000 
     45 H           5.9625   42.5219   50.9423 H         1 N201298     0.0000 
     46 H           2.7168   39.8917   49.9224 H         1 N201298     0.0000 
@<TRIPOS>BOND
     1   15    1 ar   
     2   22    1 ar   
     3   23    1 1    
     4   12    2 1    
     5   46    2 1    
     6   19    3 2    
     7   20    3 1    
     8   26    3 1    
     9    5    4 1    
    10   17    4 1    
    11   27    4 1    
    12   28    4 1    
    13    6    5 1    
    14   10    5 1    
    15   29    5 1    
    16    7    6 1    
    17   30    6 1    
    18   31    6 1    
    19    8    7 1    
    20   32    7 1    
    21   33    7 1    
    22    9    8 1    
    23   34    8 1    
    24   35    8 1    
    25   10    9 1    
    26   36    9 1    
    27   37    9 1    
    28   38   10 1    
    29   39   10 1    
    30   12   11 ar   
    31   25   11 ar   
    32   40   11 1    
    33   13   12 ar   
    34   14   13 ar   
    35   41   13 1    
    36   24   14 ar   
    37   42   14 1    
    38   16   15 ar   
    39   17   16 1    
    40   18   16 ar   
    41   19   18 1    
    42   21   18 ar   
    43   21   20 1    
    44   43   20 1    
    45   22   21 ar   
    46   24   23 1    
    47   44   23 1    
    48   25   24 ar   
    49   45   25 1    
@<TRIPOS>SUBSTRUCTURE
     1 N201298     1 GROUP   
@<TRIPOS>SET

