#    Name: 2jl1_NAP_1_INTS_M
#    Modification time : Tue Mar 25 21:06:40 2014

@<TRIPOS>MOLECULE
2jl1_NAP_1_INTS_M
   93     0    12     0     0
SMALL
NO_CHARGES


@<TRIPOS>ATOM
      1 N          -7.2255  -26.7910   -2.8485 N.am      2 SEC2        0.0000 
      2 N          -8.2220  -26.9450   -1.7970 N.am     10 SEL2        0.0000 
      3 N          -6.2290  -26.6370   -3.9000 N.am      6 SEP2        0.0000 
      4 CA         -3.4625  -29.0865    1.1295 C.3       4 GLC5        0.0000 
      5 CA         -5.4950  -28.9830    1.5100 C.3      12 GLL5        0.0000 
      6 CA         -1.4300  -29.1900    0.7490 C.3       8 GLP5        0.0000 
      7 CA         -7.1165  -30.1450    3.2065 C.3       4 GLC5        0.0000 
      8 CA         -5.9820  -31.3140    1.6850 C.3      12 GLL5        0.0000 
      9 CA         -8.2510  -28.9760    4.7280 C.3       8 GLP5        0.0000 
     10 CA         -3.2285  -30.0130    1.7540 C.3       4 GLC5        0.0000 
     11 CA         -5.0270  -30.8360    2.7590 C.3      12 GLL5        0.0000 
     12 CA         -6.0395  -29.7765    4.1850 C.3       4 GLC5        0.0000 
     13 CA         -7.0520  -28.7170    5.6110 C.3       8 GLP5        0.0000 
     14 CA         -2.8475  -32.7785    8.1645 C.3       4 GLC5        0.0000 
     15 CA         -4.2530  -33.5220    6.7340 C.3      12 GLL5        0.0000 
     16 CA         -1.4420  -32.0350    9.5950 C.3       8 GLP5        0.0000 
     17 O          -3.8460  -35.2100    8.1045 O.2       1 ALC1        0.0000 
     18 O          -4.8220  -34.0550    7.8120 O.2       9 ALL1        0.0000 
     19 O          -2.8700  -36.3650    8.3970 O.2       5 ALP1        0.0000 
     20 N          -1.8845  -33.9790    7.5095 N.am      2 SEC2        0.0000 
     21 N          -2.9120  -33.7200    6.4980 N.am     10 SEL2        0.0000 
     22 N          -0.8570  -34.2380    8.5210 N.am      6 SEP2        0.0000 
     23 CA         -2.8250  -34.6595    4.3265 C.3       4 GLC5        0.0000 
     24 CA         -2.3130  -33.1860    5.3780 C.3      12 GLL5        0.0000 
     25 CA         -3.3370  -36.1330    3.2750 C.3       8 GLP5        0.0000 
     26 CA         -1.3415  -34.6745    6.2185 C.3       4 GLC5        0.0000 
     27 CA         -0.3700  -36.1630    7.0590 C.3       8 GLP5        0.0000 
     28 CA         -1.8775  -32.6105    7.4865 C.3       4 GLC5        0.0000 
     29 CA         -3.8520  -34.1810    3.9960 C.3       4 GLC5        0.0000 
     30 CA         -4.3670  -32.2290    4.7170 C.3      12 GLL5        0.0000 
     31 N          -5.4220  -24.4035   -2.6500 N.am      2 SEC2        0.0000 
     32 N          -6.0090  -24.6330   -1.5330 N.am     10 SEL2        0.0000 
     33 N          -4.8350  -24.1740   -3.7670 N.am      6 SEP2        0.0000 
     34 NZ         -8.3915  -22.5340   -2.5345 N.4       3 LYC4        0.0000 
     35 NZ         -8.2760  -23.4370   -1.5130 N.4      11 LYL4        0.0000 
     36 NZ         -9.7710  -21.6650   -3.9590 N.4       7 LYP4        0.0000 
     37 N          -8.3915  -22.5340   -2.5345 N.am      2 SEC2        0.0000 
     38 N          -8.2760  -23.4370   -1.5130 N.am     10 SEL2        0.0000 
     39 N          -8.5070  -21.6310   -3.5560 N.am      6 SEP2        0.0000 
     40 N          -6.2005  -21.7165    0.2955 N.am      2 SEC2        0.0000 
     41 N          -6.5520  -23.1050    0.3790 N.am     10 SEL2        0.0000 
     42 N          -5.8490  -20.3280    0.2120 N.am      6 SEP2        0.0000 
     43 CA         -4.5505  -23.0400   -0.5650 C.3       4 GLC5        0.0000 
     44 CA         -5.4290  -23.5160    1.1470 C.3      12 GLL5        0.0000 
     45 CA         -3.6720  -22.5640   -2.2770 C.3       8 GLP5        0.0000 
     46 CA         -6.1320  -21.5440    0.3980 C.3       4 GLC5        0.0000 
     47 CA         -6.8350  -19.5720   -0.3510 C.3       8 GLP5        0.0000 
     48 O          -5.1390  -25.3270    4.3855 O.2       1 ALC1        0.0000 
     49 O          -6.2860  -25.2550    3.8650 O.2       9 ALL1        0.0000 
     50 O          -3.9920  -25.3990    4.9060 O.2       5 ALP1        0.0000 
     51 CA         -7.9745  -25.0450    5.1915 C.3       4 GLC5        0.0000 
     52 CA         -7.2230  -23.0920    4.3800 C.3      12 GLL5        0.0000 
     53 CA         -8.7260  -26.9980    6.0030 C.3       8 GLP5        0.0000 
     54 N          -5.2250  -22.6745    5.7780 N.am      2 SEC2        0.0000 
     55 N          -6.5890  -23.2170    5.6360 N.am     10 SEL2        0.0000 
     56 N          -3.8610  -22.1320    5.9200 N.am      6 SEP2        0.0000 
     57 O          -6.6010  -24.2760    6.2560 O.2       1 ALC1        0.0000 
     58 O          -6.5890  -23.2170    5.6360 O.2       9 ALL1        0.0000 
     59 O          -6.6130  -25.3350    6.8760 O.2       5 ALP1        0.0000 
     60 N         -10.1070  -16.2350    0.6505 N.am      2 SEC2        0.0000 
     61 N         -10.3170  -17.1110    1.7790 N.am     10 SEL2        0.0000 
     62 N          -9.8970  -15.3590   -0.4780 N.am      6 SEP2        0.0000 
     63 O          -7.4895  -15.7480    1.9805 O.2       1 ALC1        0.0000 
     64 O          -8.0160  -17.0160    2.6550 O.2       9 ALL1        0.0000 
     65 O          -6.9630  -14.4800    1.3060 O.2       5 ALP1        0.0000 
     66 N          -5.2600  -33.2420   -1.7290 N.am      2 SEC2        0.0000 
     67 N          -6.4460  -33.3940   -1.0040 N.am     10 SEL2        0.0000 
     68 N          -4.0740  -33.0900   -2.4540 N.am      6 SEP2        0.0000 
     69 NZ         -8.0430  -33.9985    2.3005 N.4       3 LYC4        0.0000 
     70 NZ         -7.9210  -33.4670    0.9830 N.4      11 LYL4        0.0000 
     71 NZ         -7.3810  -35.2310    4.4400 N.4       7 LYP4        0.0000 
     72 N          -8.0430  -33.9985    2.3005 N.am      2 SEC2        0.0000 
     73 N          -7.9210  -33.4670    0.9830 N.am     10 SEL2        0.0000 
     74 N          -8.1650  -34.5300    3.6180 N.am      6 SEP2        0.0000 
     75 NZ         -6.0505  -35.3050    2.4635 N.4       3 LYC4        0.0000 
     76 NZ         -5.9140  -34.9510    0.8950 N.4      11 LYL4        0.0000 
     77 N          -6.0505  -35.3050    2.4635 N.am      2 SEC2        0.0000 
     78 N          -5.9140  -34.9510    0.8950 N.am     10 SEL2        0.0000 
     79 N          -6.1870  -35.6590    4.0320 N.am      6 SEP2        0.0000 
     80 CA         -7.1695  -28.7415    3.1282 C.3       4 GLC5        0.0000 
     81 CA         -5.5248  -29.1165   -0.8783 C.3       4 GLC5        0.0000 
     82 CA         -5.3660  -28.6380   -2.8490 C.3       8 GLP5        0.0000 
     83 CA         -4.9458  -34.7843    5.5755 C.3       4 GLC5        0.0000 
     84 CA         -4.9940  -32.7610    5.8300 C.3      12 GLL5        0.0000 
     85 CA         -5.2680  -36.4270    4.8690 C.3       8 GLP5        0.0000 
     86 CA         -3.7450  -23.9042    1.9113 C.3       4 GLC5        0.0000 
     87 CA         -5.5550  -23.2310    2.6480 C.3      12 GLL5        0.0000 
     88 CA         -1.9980  -24.4350    1.9250 C.3       8 GLP5        0.0000 
     89 CA         -8.4775  -22.4625    5.4263 C.3       4 GLC5        0.0000 
     90 CA         -6.8750  -21.7220    3.8390 C.3      12 GLL5        0.0000 
     91 CA         -9.9060  -22.5180    6.7430 C.3       8 GLP5        0.0000 
     92 CA         -9.8618  -22.0120    4.8042 C.3       4 GLC5        0.0000 
     93 CA         -9.2510  -21.8180    3.1320 C.3      12 GLL5        0.0000 
@<TRIPOS>BOND
@<TRIPOS>SUBSTRUCTURE
     1 ALC1       17 GROUP        1 X    ALC  0     ROOT ALC X 1
     2 SEC2        1 GROUP        1 X    SEC  0     **** SEC X 2
     3 LYC4       34 GROUP        1 X    LYC  0     **** LYC X 4
     4 GLC5        4 GROUP        1 X    GLC  0     **** GLC X 6
     5 ALP1       19 GROUP        1 Y    ALP  0     ROOT ALP Y 8
     6 SEP2        3 GROUP        1 Y    SEP  0     **** SEP Y 9
     7 LYP4       36 GROUP        1 Y    LYP  0     **** LYP Y 11
     8 GLP5        6 GROUP        1 Y    GLP  0     **** GLP Y 13
     9 ALL1       18 GROUP        1 Z    ALL  0     ROOT ALL Z 15
    10 SEL2        2 GROUP        1 Z    SEL  0     **** SEL Z 16
    11 LYL4       35 GROUP        1 Z    LYL  0     **** LYL Z 18
    12 GLL5        5 GROUP        1 Z    GLL  0     **** GLL Z 20
@<TRIPOS>SET

