#    Name: 2jl1_NAP_1_ligand
#    Modification time : Tue Mar 25 21:06:40 2014

@<TRIPOS>MOLECULE
2jl1_NAP_1_ligand
   73    77     1     0     0
SMALL
NO_CHARGES


@<TRIPOS>ATOM
      1 PA         -8.1350  -26.8290   -0.3260 P.3       1 NAP1288     0.0000 
      2 O1A        -9.3810  -27.1750    0.4120 O.co2     1 NAP1288     0.0000 
      3 O2A        -8.2220  -26.9450   -1.7970 O.co2     1 NAP1288     0.0000 
      4 O5B        -6.8950  -27.6850    0.1960 O.3       1 NAP1288     0.0000 
      5 C5B        -6.6810  -28.0310    1.5470 C.3       1 NAP1288     0.0000 
      6 C4B        -5.4950  -28.9830    1.5100 C.3       1 NAP1288     0.0000 
      7 O4B        -5.1620  -29.4300    2.8180 O.3       1 NAP1288     0.0000 
      8 C3B        -5.8720  -30.2070    0.6750 C.3       1 NAP1288     0.0000 
      9 O3B        -4.8320  -30.5020   -0.2210 O.3       1 NAP1288     0.0000 
     10 C2B        -5.9820  -31.3140    1.6850 C.3       1 NAP1288     0.0000 
     11 O2B        -5.5040  -32.5130    1.1620 O.3       1 NAP1288     0.0000 
     12 C1B        -5.0270  -30.8360    2.7590 C.3       1 NAP1288     0.0000 
     13 N9A        -5.3100  -31.5360    4.0190 N.pl3     1 NAP1288     0.0000 
     14 C8A        -6.5050  -31.6530    4.6740 C.2       1 NAP1288     0.0000 
     15 N7A        -6.2960  -32.3920    5.7890 N.2       1 NAP1288     0.0000 
     16 C5A        -4.9940  -32.7610    5.8300 C.ar      1 NAP1288     0.0000 
     17 C6A        -4.2530  -33.5220    6.7340 C.ar      1 NAP1288     0.0000 
     18 N6A        -4.8220  -34.0550    7.8120 N.pl3     1 NAP1288     0.0000 
     19 N1A        -2.9120  -33.7200    6.4980 N.ar      1 NAP1288     0.0000 
     20 C2A        -2.3130  -33.1860    5.3780 C.ar      1 NAP1288     0.0000 
     21 N3A        -3.0440  -32.4290    4.4910 N.ar      1 NAP1288     0.0000 
     22 C4A        -4.3670  -32.2290    4.7170 C.ar      1 NAP1288     0.0000 
     23 O3         -7.7480  -25.3080    0.0960 O.3       1 NAP1288     0.0000 
     24 PN         -7.1570  -24.0960   -0.7840 P.3       1 NAP1288     0.0000 
     25 O1N        -6.0090  -24.6330   -1.5330 O.co2     1 NAP1288     0.0000 
     26 O2N        -8.2760  -23.4370   -1.5130 O.co2     1 NAP1288     0.0000 
     27 O5D        -6.5520  -23.1050    0.3790 O.3       1 NAP1288     0.0000 
     28 C5D        -5.4290  -23.5160    1.1470 C.3       1 NAP1288     0.0000 
     29 C4D        -5.5550  -23.2310    2.6480 C.3       1 NAP1288     0.0000 
     30 O4D        -5.8770  -21.8640    2.8400 O.3       1 NAP1288     0.0000 
     31 C3D        -6.6820  -24.0250    3.3130 C.3       1 NAP1288     0.0000 
     32 O3D        -6.2860  -25.2550    3.8650 O.3       1 NAP1288     0.0000 
     33 C2D        -7.2230  -23.0920    4.3800 C.3       1 NAP1288     0.0000 
     34 O2D        -6.5890  -23.2170    5.6360 O.3       1 NAP1288     0.0000 
     35 C1D        -6.8750  -21.7220    3.8390 C.3       1 NAP1288     0.0000 
     36 N1N        -8.1120  -21.0980    3.3410 N.pl3     1 NAP1288     0.0000 
     37 C2N        -8.0580  -19.7710    3.0540 C.ar      1 NAP1288     0.0000 
     38 C3N        -9.1790  -19.1160    2.6320 C.ar      1 NAP1288     0.0000 
     39 C7N        -9.1350  -17.6780    2.3380 C.2       1 NAP1288     0.0000 
     40 O7N       -10.3170  -17.1110    1.7790 O.2       1 NAP1288     0.0000 
     41 N7N        -8.0160  -17.0160    2.6550 N.am      1 NAP1288     0.0000 
     42 C4N       -10.3690  -19.8360    2.3960 C.ar      1 NAP1288     0.0000 
     43 C5N       -10.3840  -21.1940    2.5990 C.ar      1 NAP1288     0.0000 
     44 C6N        -9.2510  -21.8180    3.1320 C.ar      1 NAP1288     0.0000 
     45 P2B        -6.4880  -33.6070    0.4970 P.3       1 NAP1288     0.0000 
     46 O1X        -6.4460  -33.3940   -1.0040 O.co2     1 NAP1288     0.0000 
     47 O2X        -7.9210  -33.4670    0.9830 O.co2     1 NAP1288     0.0000 
     48 O3X        -5.9140  -34.9510    0.8950 O.co2     1 NAP1288     0.0000 
     49 H          -7.5179  -28.5553    1.9786 H         1 NAP1288     0.0000 
     50 H          -6.4108  -27.1829    2.1547 H         1 NAP1288     0.0000 
     51 H          -4.6721  -28.4959    1.0295 H         1 NAP1288     0.0000 
     52 H          -6.8034  -30.0410    0.2304 H         1 NAP1288     0.0000 
     53 H          -6.9452  -31.3378    2.0781 H         1 NAP1288     0.0000 
     54 H          -4.0226  -31.1070    2.4100 H         1 NAP1288     0.0000 
     55 H          -7.3374  -31.2760    4.3880 H         1 NAP1288     0.0000 
     56 H          -5.6118  -33.5647    8.1806 H         1 NAP1288     0.0000 
     57 H          -4.4086  -34.8979    8.1565 H         1 NAP1288     0.0000 
     58 H          -1.3065  -33.3557    5.2031 H         1 NAP1288     0.0000 
     59 H          -4.4927  -23.0199    0.7980 H         1 NAP1288     0.0000 
     60 H          -5.2382  -24.6096    1.0372 H         1 NAP1288     0.0000 
     61 H          -4.6326  -23.4809    3.1336 H         1 NAP1288     0.0000 
     62 H          -7.4728  -24.1312    2.5692 H         1 NAP1288     0.0000 
     63 H          -8.2755  -23.1673    4.4120 H         1 NAP1288     0.0000 
     64 H          -6.4998  -21.1401    4.6833 H         1 NAP1288     0.0000 
     65 H          -7.1644  -19.2519    3.1548 H         1 NAP1288     0.0000 
     66 H          -8.0208  -16.0323    2.4753 H         1 NAP1288     0.0000 
     67 H          -7.2753  -17.5644    3.0432 H         1 NAP1288     0.0000 
     68 H         -11.2027  -19.3361    2.0773 H         1 NAP1288     0.0000 
     69 H         -11.2098  -21.7543    2.3666 H         1 NAP1288     0.0000 
     70 H          -9.2932  -22.8225    3.3614 H         1 NAP1288     0.0000 
     71 H          -4.6287  -31.4697   -0.0718 H         1 NAP1288     0.0000 
     72 H          -5.2905  -25.2714    3.7726 H         1 NAP1288     0.0000 
     73 H          -7.0962  -23.9359    6.1113 H         1 NAP1288     0.0000 
@<TRIPOS>BOND
     1    2    1 ar   
     2    3    1 ar   
     3    4    1 1    
     4   23    1 1    
     5    5    4 1    
     6    6    5 1    
     7   49    5 1    
     8   50    5 1    
     9    7    6 1    
    10    8    6 1    
    11   51    6 1    
    12   12    7 1    
    13    9    8 1    
    14   10    8 1    
    15   52    8 1    
    16   71    9 1    
    17   11   10 1    
    18   12   10 1    
    19   53   10 1    
    20   45   11 1    
    21   13   12 1    
    22   54   12 1    
    23   14   13 1    
    24   22   13 1    
    25   15   14 2    
    26   55   14 1    
    27   16   15 1    
    28   17   16 ar   
    29   22   16 ar   
    30   18   17 1    
    31   19   17 ar   
    32   56   18 1    
    33   57   18 1    
    34   20   19 ar   
    35   21   20 ar   
    36   58   20 1    
    37   22   21 ar   
    38   24   23 1    
    39   25   24 ar   
    40   26   24 ar   
    41   27   24 1    
    42   28   27 1    
    43   29   28 1    
    44   59   28 1    
    45   60   28 1    
    46   30   29 1    
    47   31   29 1    
    48   61   29 1    
    49   35   30 1    
    50   32   31 1    
    51   33   31 1    
    52   62   31 1    
    53   72   32 1    
    54   34   33 1    
    55   35   33 1    
    56   63   33 1    
    57   73   34 1    
    58   36   35 1    
    59   64   35 1    
    60   37   36 ar   
    61   44   36 ar   
    62   38   37 ar   
    63   65   37 1    
    64   39   38 1    
    65   42   38 ar   
    66   40   39 2    
    67   41   39 am   
    68   66   41 1    
    69   67   41 1    
    70   43   42 ar   
    71   68   42 1    
    72   44   43 ar   
    73   69   43 1    
    74   70   44 1    
    75   46   45 ar   
    76   47   45 ar   
    77   48   45 ar   
@<TRIPOS>SUBSTRUCTURE
     1 NAP1288     1 GROUP   
@<TRIPOS>SET

