#    Name: 3wff_WFF_1_INTS_M
#    Modification time : Tue Mar 25 02:32:16 2014

@<TRIPOS>MOLECULE
3wff_WFF_1_INTS_M
   79     0     9     0     0
SMALL
NO_CHARGES


@<TRIPOS>ATOM
      1 CA          3.3795   11.5080   57.0810 C.3       3 GLC5        0.0000 
      2 CA          2.7020    9.7150   58.1390 C.3       9 GLL5        0.0000 
      3 CA          4.0570   13.3010   56.0230 C.3       6 GLP5        0.0000 
      4 CA          3.5655   12.0175   58.2050 C.3       3 GLC5        0.0000 
      5 CA          2.2180   10.5500   59.1300 C.3       9 GLL5        0.0000 
      6 CA          4.9130   13.4850   57.2800 C.3       6 GLP5        0.0000 
      7 CA          2.0390   12.4580   59.1455 C.3       3 GLC5        0.0000 
      8 CA          1.8600   14.3660   59.1610 C.3       6 GLP5        0.0000 
      9 CA          1.7440    3.5165   57.2240 C.3       3 GLC5        0.0000 
     10 CA          3.6730    4.0730   58.1490 C.3       9 GLL5        0.0000 
     11 CA         -0.1850    2.9600   56.2990 C.3       6 GLP5        0.0000 
     12 CA         -0.7185    8.6235   61.3675 C.3       3 GLC5        0.0000 
     13 CA          0.8740    8.7980   60.0430 C.3       9 GLL5        0.0000 
     14 CA         -2.3110    8.4490   62.6920 C.3       6 GLP5        0.0000 
     15 CA          6.1105    2.8330   59.0790 C.3       3 GLC5        0.0000 
     16 CA          4.0650    3.2670   59.1960 C.3       9 GLL5        0.0000 
     17 CA          8.1560    2.3990   58.9620 C.3       6 GLP5        0.0000 
     18 CA          0.6975    7.9345   56.9560 C.3       3 GLC5        0.0000 
     19 CA          2.6950    7.4810   57.0840 C.3       9 GLL5        0.0000 
     20 CA         -1.3000    8.3880   56.8280 C.3       6 GLP5        0.0000 
     21 CA          3.8535    5.0920   54.1130 C.3       3 GLC5        0.0000 
     22 CA          3.5120    5.7480   55.7660 C.3       9 GLL5        0.0000 
     23 CA          4.1950    4.4360   52.4600 C.3       6 GLP5        0.0000 
     24 CA          4.7115    6.6975   54.2140 C.3       3 GLC5        0.0000 
     25 CA          5.9110    7.6470   52.6620 C.3       6 GLP5        0.0000 
     26 CA          2.2650    1.5775   61.3570 C.3       3 GLC5        0.0000 
     27 CA          4.1520    1.7770   61.4460 C.3       9 GLL5        0.0000 
     28 CA          0.3780    1.3780   61.2680 C.3       6 GLP5        0.0000 
     29 CA          2.7345    3.4120   61.9890 C.3       3 GLC5        0.0000 
     30 CA          1.3170    5.0470   62.5320 C.3       6 GLP5        0.0000 
     31 CA          3.9360    2.4060   63.0060 C.3       3 GLC5        0.0000 
     32 CA          3.7200    3.0350   64.5660 C.3       6 GLP5        0.0000 
     33 CA          6.0870    2.0120   61.5615 C.3       3 GLC5        0.0000 
     34 CA          8.0220    2.2470   61.6770 C.3       6 GLP5        0.0000 
     35 CA          4.5450    0.2905   62.6560 C.3       3 GLC5        0.0000 
     36 CA          4.9380   -1.1960   63.8660 C.3       6 GLP5        0.0000 
     37 O           4.0125    1.4250   57.8030 O.2       1 ALC1        0.0000 
     38 O           4.0590    1.8830   59.0580 O.2       7 ALL1        0.0000 
     39 O           3.9660    0.9670   56.5480 O.2       4 ALP1        0.0000 
     40 N           4.0920   -0.6810   58.6030 N.am      2 SEC2        0.0000 
     41 N           4.3070   -0.1800   60.0490 N.am      8 SEL2        0.0000 
     42 N           3.8770   -1.1820   57.1570 N.am      5 SEP2        0.0000 
     43 N           5.2025   -0.6190   60.9005 N.am      2 SEC2        0.0000 
     44 N           6.0980   -1.0580   61.7520 N.am      5 SEP2        0.0000 
     45 CA         -1.3380   11.2170   60.8080 C.3       3 GLC5        0.0000 
     46 CA          0.8310   10.8630   61.0530 C.3       9 GLL5        0.0000 
     47 CA         -3.5070   11.5710   60.5630 C.3       6 GLP5        0.0000 
     48 CA         -0.3775   10.8685   62.4680 C.3       3 GLC5        0.0000 
     49 CA         -1.5860   10.8740   63.8830 C.3       6 GLP5        0.0000 
     50 CA         -0.1530    5.3370   58.6790 C.3       3 GLC5        0.0000 
     51 CA          0.9020    6.7210   58.9970 C.3       9 GLL5        0.0000 
     52 CA         -1.2080    3.9530   58.3610 C.3       6 GLP5        0.0000 
     53 CA         -0.1990    7.5545   57.9125 C.3       3 GLC5        0.0000 
     54 CA          5.8148    6.1550   59.1753 C.3       3 GLC5        0.0000 
     55 CA          4.1330    6.0110   59.4660 C.3       9 GLL5        0.0000 
     56 CA          7.2990    6.7050   58.3630 C.3       6 GLP5        0.0000 
     57 CA          4.1477    7.2485   61.0978 C.3       3 GLC5        0.0000 
     58 CA          4.5280    5.1990   60.5090 C.3       9 GLL5        0.0000 
     59 CA          3.9650    8.8920   62.2080 C.3       6 GLP5        0.0000 
     60 CA          4.5278    8.6635   57.9915 C.3       3 GLC5        0.0000 
     61 CA          2.2490    8.4070   58.1050 C.3       9 GLL5        0.0000 
     62 CA          6.5800    8.2660   57.8610 C.3       6 GLP5        0.0000 
     63 CA          3.7500   10.4772   59.8257 C.3       3 GLC5        0.0000 
     64 CA          5.0400   10.8220   61.0170 C.3       6 GLP5        0.0000 
     65 CA          6.3753    3.8638   60.4873 C.3       3 GLC5        0.0000 
     66 CA          8.2460    3.2140   60.5330 C.3       6 GLP5        0.0000 
     67 CA          5.4923    5.7335   58.2870 C.3       3 GLC5        0.0000 
     68 CA          1.0068   10.5174   57.6659 C.3       3 GLC5        0.0000 
     69 CA         -0.3410   11.7650   56.9620 C.3       6 GLP5        0.0000 
     70 CA          2.8807    8.5427   60.3910 C.3       3 GLC5        0.0000 
     71 CA          2.8614    4.8818   61.3564 C.3       3 GLC5        0.0000 
     72 CA          0.7582   12.1758   60.9865 C.3       3 GLC5        0.0000 
     73 CA          1.3220   10.0920   60.0690 C.3       9 GLL5        0.0000 
     74 CA          0.4400   13.8740   61.4120 C.3       6 GLP5        0.0000 
     75 CA          4.9140    7.2899   57.1499 C.3       3 GLC5        0.0000 
     76 CA          0.3117   10.9595   58.7583 C.3       3 GLC5        0.0000 
     77 CA          2.4647    9.5230   61.3813 C.3       3 GLC5        0.0000 
     78 CA          0.6122    6.3255   60.2140 C.3       3 GLC5        0.0000 
     79 CA          0.2190    5.0960   61.1580 C.3       6 GLP5        0.0000 
@<TRIPOS>BOND
@<TRIPOS>SUBSTRUCTURE
     1 ALC1       37 GROUP        1 X    ALC  0     ROOT ALC X 1
     2 SEC2       40 GROUP        1 X    SEC  0     **** SEC X 2
     3 GLC5        1 GROUP        1 X    GLC  0     **** GLC X 6
     4 ALP1       39 GROUP        1 Y    ALP  0     ROOT ALP Y 8
     5 SEP2       42 GROUP        1 Y    SEP  0     **** SEP Y 9
     6 GLP5        3 GROUP        1 Y    GLP  0     **** GLP Y 13
     7 ALL1       38 GROUP        1 Z    ALL  0     ROOT ALL Z 15
     8 SEL2       41 GROUP        1 Z    SEL  0     **** SEL Z 16
     9 GLL5        2 GROUP        1 Z    GLL  0     **** GLL Z 20
@<TRIPOS>SET

