#    Name: 3wff_WFF_1_ligand
#    Modification time : Tue Mar 25 02:32:16 2014

@<TRIPOS>MOLECULE
3wff_WFF_1_ligand
   36    39     1     0     0
SMALL
NO_CHARGES


@<TRIPOS>ATOM
      1 C1          4.1330    6.0110   59.4660 C.ar      1 WFF1001     0.0000 
      2 C2          2.7020    9.7150   58.1390 C.ar      1 WFF1001     0.0000 
      3 C3          4.5280    5.1990   60.5090 C.ar      1 WFF1001     0.0000 
      4 C4          2.2180   10.5500   59.1300 C.ar      1 WFF1001     0.0000 
      5 C5          3.6730    4.0730   58.1490 C.ar      1 WFF1001     0.0000 
      6 C6          0.8740    8.7980   60.0430 C.ar      1 WFF1001     0.0000 
      7 C7          3.6980    5.4510   58.2730 C.ar      1 WFF1001     0.0000 
      8 C8          2.2490    8.4070   58.1050 C.ar      1 WFF1001     0.0000 
      9 C9          4.0650    3.2670   59.1960 C.ar      1 WFF1001     0.0000 
     10 C10         4.4810    3.8280   60.3740 C.ar      1 WFF1001     0.0000 
     11 C11         1.3220   10.0920   60.0690 C.ar      1 WFF1001     0.0000 
     12 C12         1.3440    7.9800   59.0430 C.ar      1 WFF1001     0.0000 
     13 C13         2.6950    7.4810   57.0840 C.2       1 WFF1001     0.0000 
     14 C14         3.2730    6.2780   57.1390 C.2       1 WFF1001     0.0000 
     15 C15         2.5250    7.7900   55.6580 C.2       1 WFF1001     0.0000 
     16 C16         4.1830    1.0400   60.1270 C.2       1 WFF1001     0.0000 
     17 C17         3.5120    5.7480   55.7660 C.3       1 WFF1001     0.0000 
     18 C18         4.1520    1.7770   61.4460 C.3       1 WFF1001     0.0000 
     19 N19         4.0590    1.8830   59.0580 N.am      1 WFF1001     0.0000 
     20 O20         2.0280    8.8120   55.2280 O.2       1 WFF1001     0.0000 
     21 O21         4.3070   -0.1800   60.0490 O.2       1 WFF1001     0.0000 
     22 O22         4.9080    3.0120   61.3930 O.3       1 WFF1001     0.0000 
     23 O23         3.0240    6.7740   54.9110 O.3       1 WFF1001     0.0000 
     24 F24         0.8310   10.8630   61.0530 F         1 WFF1001     0.0000 
     25 F25         0.9020    6.7210   58.9970 F         1 WFF1001     0.0000 
     26 H           4.1597    7.0370   59.5694 H         1 WFF1001     0.0000 
     27 H           3.3738   10.0528   57.4523 H         1 WFF1001     0.0000 
     28 H           4.8594    5.6195   61.3923 H         1 WFF1001     0.0000 
     29 H           2.5378   11.5381   59.1634 H         1 WFF1001     0.0000 
     30 H           3.3564    3.6458   57.2602 H         1 WFF1001     0.0000 
     31 H           0.2160    8.4517   60.7387 H         1 WFF1001     0.0000 
     32 H           2.9645    4.8276   55.6434 H         1 WFF1001     0.0000 
     33 H           4.5684    5.5808   55.6318 H         1 WFF1001     0.0000 
     34 H           4.5523    1.1064   62.2266 H         1 WFF1001     0.0000 
     35 H           3.0975    1.9747   61.7072 H         1 WFF1001     0.0000 
     36 H           3.9550    1.4814   58.0946 H         1 WFF1001     0.0000 
@<TRIPOS>BOND
     1    3    1 ar   
     2    7    1 ar   
     3   26    1 1    
     4    4    2 ar   
     5    8    2 ar   
     6   27    2 1    
     7   10    3 ar   
     8   28    3 1    
     9   11    4 ar   
    10   29    4 1    
    11    7    5 ar   
    12    9    5 ar   
    13   30    5 1    
    14   11    6 ar   
    15   12    6 ar   
    16   31    6 1    
    17   14    7 1    
    18   12    8 ar   
    19   13    8 1    
    20   10    9 ar   
    21   19    9 1    
    22   22   10 1    
    23   24   11 1    
    24   25   12 1    
    25   14   13 2    
    26   15   13 1    
    27   17   14 1    
    28   20   15 2    
    29   23   15 1    
    30   18   16 1    
    31   19   16 am   
    32   21   16 2    
    33   23   17 1    
    34   32   17 1    
    35   33   17 1    
    36   22   18 1    
    37   34   18 1    
    38   35   18 1    
    39   36   19 1    
@<TRIPOS>SUBSTRUCTURE
     1 WFF1001     1 GROUP   
@<TRIPOS>SET

