#    Name: 3qlz_QLZ_2_INTS_M
#    Modification time : Tue Mar 25 09:56:39 2014

@<TRIPOS>MOLECULE
3qlz_QLZ_2_INTS_M
   78     0     9     0     0
SMALL
NO_CHARGES


@<TRIPOS>ATOM
      1 CA         33.0435    5.0245   32.5935 C.3       3 GLC5        0.0000 
      2 CA         31.8600    4.9110   34.3860 C.3       9 GLL5        0.0000 
      3 CA         34.2270    5.1380   30.8010 C.3       6 GLP5        0.0000 
      4 CA         31.4475    3.4405   33.1200 C.3       3 GLC5        0.0000 
      5 CA         31.0350    1.9700   31.8540 C.3       6 GLP5        0.0000 
      6 CA         31.5605    3.3280   35.4965 C.3       3 GLC5        0.0000 
      7 CA         31.2610    1.7450   36.6070 C.3       6 GLP5        0.0000 
      8 CA         32.6280    6.7785   34.7425 C.3       3 GLC5        0.0000 
      9 CA         33.3960    8.6460   35.0990 C.3       6 GLP5        0.0000 
     10 N          31.8850    5.2685   36.6620 N.am      2 SEC2        0.0000 
     11 N          31.2930    5.4970   35.4600 N.am      8 SEL2        0.0000 
     12 N          32.4770    5.0400   37.8640 N.am      5 SEP2        0.0000 
     13 CA         30.6405    3.8830   32.4180 C.3       3 GLC5        0.0000 
     14 CA         30.2460    5.7960   32.9820 C.3       9 GLL5        0.0000 
     15 CA         27.7760    7.5220   38.3820 C.3       3 GLC5        0.0000 
     16 CA         29.0730    8.9870   37.8390 C.3       9 GLL5        0.0000 
     17 CA         26.4790    6.0570   38.9250 C.3       6 GLP5        0.0000 
     18 CA         30.2485   10.0860   38.8975 C.3       3 GLC5        0.0000 
     19 CA         31.4240   11.1850   39.9560 C.3       6 GLP5        0.0000 
     20 CA         28.5970   12.6220   38.1315 C.3       3 GLC5        0.0000 
     21 CA         28.0250   12.4330   36.3140 C.3       9 GLL5        0.0000 
     22 CA         29.1690   12.8110   39.9490 C.3       6 GLP5        0.0000 
     23 CA         29.4190   11.6260   34.8140 C.3       3 GLC5        0.0000 
     24 CA         30.8130   10.8190   33.3140 C.3       6 GLP5        0.0000 
     25 CA         26.0260   13.2660   35.8245 C.3       3 GLC5        0.0000 
     26 CA         24.0270   14.0990   35.3350 C.3       6 GLP5        0.0000 
     27 CA         27.8880   13.6385   34.8285 C.3       3 GLC5        0.0000 
     28 CA         27.7510   14.8440   33.3430 C.3       6 GLP5        0.0000 
     29 CA         24.5115    5.6440   36.7095 C.3       3 GLC5        0.0000 
     30 CA         23.5540    6.9190   36.0680 C.3       9 GLL5        0.0000 
     31 CA         25.4690    4.3690   37.3510 C.3       6 GLP5        0.0000 
     32 CA         22.5865    5.4005   35.3825 C.3       3 GLC5        0.0000 
     33 CA         21.6190    3.8820   34.6970 C.3       6 GLP5        0.0000 
     34 O          33.5885    4.1555   35.7015 O.2       1 ALC1        0.0000 
     35 O          32.9700    4.2070   34.5410 O.2       7 ALL1        0.0000 
     36 O          34.2070    4.1040   36.8620 O.2       4 ALP1        0.0000 
     37 O          30.1755    4.9120   30.8445 O.2       1 ALC1        0.0000 
     38 O          29.7100    5.9150   31.7720 O.2       7 ALL1        0.0000 
     39 O          30.6410    3.9090   29.9170 O.2       4 ALP1        0.0000 
     40 O          28.9015    4.5790   31.0015 O.2       1 ALC1        0.0000 
     41 O          28.0930    3.2430   30.2310 O.2       4 ALP1        0.0000 
     42 CA         29.0995    9.0085   32.9250 C.3       3 GLC5        0.0000 
     43 CA         27.5750    7.9050   33.7210 C.3       9 GLL5        0.0000 
     44 CA         30.6240   10.1120   32.1290 C.3       6 GLP5        0.0000 
     45 CA         29.9240    8.0790   32.9035 C.3       3 GLC5        0.0000 
     46 CA         28.5200    7.2350   33.8990 C.3       9 GLL5        0.0000 
     47 CA         31.3280    8.9230   31.9080 C.3       6 GLP5        0.0000 
     48 CA         31.5310    8.7255   38.2125 C.3       3 GLC5        0.0000 
     49 CA         30.0710    8.2690   36.9170 C.3       9 GLL5        0.0000 
     50 CA         32.9910    9.1820   39.5080 C.3       6 GLP5        0.0000 
     51 CA         30.8885    9.3005   35.5950 C.3       3 GLC5        0.0000 
     52 CA         31.7060   10.3320   34.2730 C.3       6 GLP5        0.0000 
     53 CA         24.8035    8.3560   32.5175 C.3       3 GLC5        0.0000 
     54 CA         26.4050    8.7420   33.5540 C.3       9 GLL5        0.0000 
     55 CA         23.2020    7.9700   31.4810 C.3       6 GLP5        0.0000 
     56 CA         26.9555    9.4910   31.6670 C.3       3 GLC5        0.0000 
     57 CA         27.5060   10.2400   29.7800 C.3       6 GLP5        0.0000 
     58 CA         25.7845    6.8585   32.9810 C.3       3 GLC5        0.0000 
     59 CA         25.1640    4.9750   32.4080 C.3       6 GLP5        0.0000 
     60 CA         28.0450    6.4515   37.7945 C.3       3 GLC5        0.0000 
     61 CA         29.6110    6.8460   36.6640 C.3       9 GLL5        0.0000 
     62 CA         27.1878    6.0205   33.4140 C.3       3 GLC5        0.0000 
     63 CA         26.3280    4.4710   33.0180 C.3       6 GLP5        0.0000 
     64 CA         24.3723   11.9268   37.8280 C.3       3 GLC5        0.0000 
     65 CA         25.2330   10.3620   37.3600 C.3       9 GLL5        0.0000 
     66 CA         22.9910   13.1960   38.6540 C.3       6 GLP5        0.0000 
     67 CA         25.6270    7.5150   37.5840 C.3       3 GLC5        0.0000 
     68 CA         24.5800    9.2380   36.8580 C.3       9 GLL5        0.0000 
     69 CA         25.0415   11.3637   35.0088 C.3       3 GLC5        0.0000 
     70 CA         26.2740   10.9530   36.6440 C.3       9 GLL5        0.0000 
     71 CA         23.6180   12.0410   33.9900 C.3       6 GLP5        0.0000 
     72 CA         24.9057   10.5300   34.1083 C.3       3 GLC5        0.0000 
     73 CA         25.9820    9.2960   34.8990 C.3       9 GLL5        0.0000 
     74 CA         31.3356    7.7445   35.1378 C.3       3 GLC5        0.0000 
     75 CA         29.6640    6.4330   34.0820 C.3       9 GLL5        0.0000 
     76 CA         32.4020    9.1390   34.0700 C.3       6 GLP5        0.0000 
     77 CA         24.2781   10.6475   35.1792 C.3       3 GLC5        0.0000 
     78 CA         24.9700    8.7080   35.6280 C.3       9 GLL5        0.0000 
@<TRIPOS>BOND
@<TRIPOS>SUBSTRUCTURE
     1 ALC1       34 GROUP        1 X    ALC  0     ROOT ALC X 1
     2 SEC2       10 GROUP        1 X    SEC  0     **** SEC X 2
     3 GLC5        1 GROUP        1 X    GLC  0     **** GLC X 6
     4 ALP1       36 GROUP        1 Y    ALP  0     ROOT ALP Y 8
     5 SEP2       12 GROUP        1 Y    SEP  0     **** SEP Y 9
     6 GLP5        3 GROUP        1 Y    GLP  0     **** GLP Y 13
     7 ALL1       35 GROUP        1 Z    ALL  0     ROOT ALL Z 15
     8 SEL2       11 GROUP        1 Z    SEL  0     **** SEL Z 16
     9 GLL5        2 GROUP        1 Z    GLL  0     **** GLL Z 20
@<TRIPOS>SET

