#    Name: 3qlz_QLZ_2_ligand
#    Modification time : Tue Mar 25 09:56:39 2014

@<TRIPOS>MOLECULE
3qlz_QLZ_2_ligand
   46    47     1     0     0
SMALL
NO_CHARGES


@<TRIPOS>ATOM
      1 N1         31.3400    5.0550   33.1630 N.ar      1 QLZ229      0.0000 
      2 C2         31.8600    4.9110   34.3860 C.ar      1 QLZ229      0.0000 
      3 N3         31.2930    5.4970   35.4600 N.ar      1 QLZ229      0.0000 
      4 C4         30.2030    6.2610   35.3540 C.ar      1 QLZ229      0.0000 
      5 C5         29.6640    6.4330   34.0820 C.ar      1 QLZ229      0.0000 
      6 C6         30.2460    5.7960   32.9820 C.ar      1 QLZ229      0.0000 
      7 CAA        29.0730    8.9870   37.8390 C.3       1 QLZ229      0.0000 
      8 CAB        28.0250   12.4330   36.3140 C.3       1 QLZ229      0.0000 
      9 CAC        23.5540    6.9190   36.0680 C.3       1 QLZ229      0.0000 
     10 NAD        32.9700    4.2070   34.5410 N.pl3     1 QLZ229      0.0000 
     11 NAE        29.7100    5.9150   31.7720 N.pl3     1 QLZ229      0.0000 
     12 CAF        27.5750    7.9050   33.7210 C.1       1 QLZ229      0.0000 
     13 CAG        28.5200    7.2350   33.8990 C.1       1 QLZ229      0.0000 
     14 CAH        25.2330   10.3620   37.3600 C.ar      1 QLZ229      0.0000 
     15 CAI        24.5800    9.2380   36.8580 C.ar      1 QLZ229      0.0000 
     16 CAJ        26.6560   10.4200   35.4110 C.ar      1 QLZ229      0.0000 
     17 CAK        30.0710    8.2690   36.9170 C.3       1 QLZ229      0.0000 
     18 CAL        26.4050    8.7420   33.5540 C.3       1 QLZ229      0.0000 
     19 CAM        29.6110    6.8460   36.6640 C.3       1 QLZ229      0.0000 
     20 OAP        26.9000   12.0630   37.1540 O.3       1 QLZ229      0.0000 
     21 OAQ        24.3550    7.6130   35.0990 O.3       1 QLZ229      0.0000 
     22 CAT        26.2740   10.9530   36.6440 C.ar      1 QLZ229      0.0000 
     23 CAU        25.9820    9.2960   34.8990 C.ar      1 QLZ229      0.0000 
     24 CAW        24.9700    8.7080   35.6280 C.ar      1 QLZ229      0.0000 
     25 H          33.0944    3.4380   33.9140 H         1 QLZ229      0.0000 
     26 H          33.5835    4.5079   35.2711 H         1 QLZ229      0.0000 
     27 H          29.6599    6.8428   31.4022 H         1 QLZ229      0.0000 
     28 H          29.4052    5.0661   31.3404 H         1 QLZ229      0.0000 
     29 H          24.9455   10.7595   38.2658 H         1 QLZ229      0.0000 
     30 H          23.8191    8.8036   37.3878 H         1 QLZ229      0.0000 
     31 H          27.4210   10.8410   34.8794 H         1 QLZ229      0.0000 
     32 H          31.0467    8.2601   37.3924 H         1 QLZ229      0.0000 
     33 H          30.1324    8.8074   35.9766 H         1 QLZ229      0.0000 
     34 H          25.5694    8.1724   33.1365 H         1 QLZ229      0.0000 
     35 H          26.6136    9.5817   32.8844 H         1 QLZ229      0.0000 
     36 H          29.9160    6.2053   37.4961 H         1 QLZ229      0.0000 
     37 H          28.5202    6.8173   36.5920 H         1 QLZ229      0.0000 
     38 H          28.9859    8.5265   38.7224 H         1 QLZ229      0.0000 
     39 H          29.3515    9.9291   38.0258 H         1 QLZ229      0.0000 
     40 H          28.1581    9.0260   37.4373 H         1 QLZ229      0.0000 
     41 H          28.4974   13.2430   36.6615 H         1 QLZ229      0.0000 
     42 H          28.7030   11.7001   36.2572 H         1 QLZ229      0.0000 
     43 H          27.7379   12.6398   35.3787 H         1 QLZ229      0.0000 
     44 H          24.1007    6.6013   36.8427 H         1 QLZ229      0.0000 
     45 H          22.8313    7.5023   36.4388 H         1 QLZ229      0.0000 
     46 H          23.1085    6.1149   35.6743 H         1 QLZ229      0.0000 
@<TRIPOS>BOND
     1    2    1 ar   
     2    6    1 ar   
     3    3    2 ar   
     4   10    2 1    
     5    4    3 ar   
     6    5    4 ar   
     7   19    4 1    
     8    6    5 ar   
     9   13    5 1    
    10   11    6 1    
    11   17    7 1    
    12   38    7 1    
    13   39    7 1    
    14   40    7 1    
    15   20    8 1    
    16   41    8 1    
    17   42    8 1    
    18   43    8 1    
    19   21    9 1    
    20   44    9 1    
    21   45    9 1    
    22   46    9 1    
    23   25   10 1    
    24   26   10 1    
    25   27   11 1    
    26   28   11 1    
    27   13   12 3    
    28   18   12 1    
    29   15   14 ar   
    30   22   14 ar   
    31   29   14 1    
    32   24   15 ar   
    33   30   15 1    
    34   22   16 ar   
    35   23   16 ar   
    36   31   16 1    
    37   19   17 1    
    38   32   17 1    
    39   33   17 1    
    40   23   18 1    
    41   34   18 1    
    42   35   18 1    
    43   36   19 1    
    44   37   19 1    
    45   22   20 1    
    46   24   21 1    
    47   24   23 ar   
@<TRIPOS>SUBSTRUCTURE
     1 QLZ229      1 GROUP   
@<TRIPOS>SET

