#    Name: 1qf4_RPD_1_INTS_M
#    Modification time : Mon Mar 24 23:23:26 2014

@<TRIPOS>MOLECULE
1qf4_RPD_1_INTS_M
   74     0    15     0     0
SMALL
NO_CHARGES


@<TRIPOS>ATOM
      1 N          27.9550   12.6515   21.9770 N.am      2 SEC2        0.0000 
      2 N          27.2380   12.8770   23.0980 N.am     12 SEL2        0.0000 
      3 N          28.6720   12.4260   20.8560 N.am      7 SEP2        0.0000 
      4 N          28.2025   12.0295   23.6290 N.am      2 SEC2        0.0000 
      5 N          29.1670   11.1820   24.1600 N.am      7 SEP2        0.0000 
      6 N          24.4140   14.8980   22.2050 N.am      2 SEC2        0.0000 
      7 N          25.0680   13.5940   22.2750 N.am     12 SEL2        0.0000 
      8 N          23.7600   16.2020   22.1350 N.am      7 SEP2        0.0000 
      9 N          25.2185   14.4665   21.0410 N.am      2 SEC2        0.0000 
     10 N          25.3690   15.3390   19.8070 N.am      7 SEP2        0.0000 
     11 CA         24.3000   13.6980   25.6325 C.3       5 GLC5        0.0000 
     12 CA         26.2400   13.7950   25.9570 C.3      15 GLL5        0.0000 
     13 CA         22.3600   13.6010   25.3080 C.3      10 GLP5        0.0000 
     14 CA         27.5145   12.2760   26.2410 C.3       5 GLC5        0.0000 
     15 CA         28.7890   10.7570   26.5250 C.3      10 GLP5        0.0000 
     16 N          26.3755   19.0960   24.0845 N.am      2 SEC2        0.0000 
     17 N          27.1060   18.1810   24.7780 N.am     12 SEL2        0.0000 
     18 N          25.6450   20.0110   23.3910 N.am      7 SEP2        0.0000 
     19 CA         30.3560   15.9415   25.6655 C.3       5 GLC5        0.0000 
     20 CA         28.3510   16.0740   24.6910 C.3      15 GLL5        0.0000 
     21 CA         32.3610   15.8090   26.6400 C.3      10 GLP5        0.0000 
     22 CA         31.9775   15.4595   23.0820 C.3       5 GLC5        0.0000 
     23 CA         31.4540   17.4470   23.0390 C.3      15 GLL5        0.0000 
     24 CA         32.5010   13.4720   23.1250 C.3      10 GLP5        0.0000 
     25 CA         31.9075   16.6280   24.8395 C.3       5 GLC5        0.0000 
     26 CA         28.1510   18.0545   21.2965 C.3       5 GLC5        0.0000 
     27 CA         30.0010   18.9310   21.5550 C.3      15 GLL5        0.0000 
     28 CA         26.3010   17.1780   21.0380 C.3      10 GLP5        0.0000 
     29 CA         29.5770   22.4435   20.2695 C.3       5 GLC5        0.0000 
     30 CA         29.7780   20.4020   21.1120 C.3      15 GLL5        0.0000 
     31 CA         29.3760   24.4850   19.4270 C.3      10 GLP5        0.0000 
     32 NZ         26.4765   20.0235   22.3615 N.4       3 LYC4        0.0000 
     33 NZ         27.3080   20.0360   21.3320 N.4      13 LYL4        0.0000 
     34 NZ         24.7590   20.9620   23.6530 N.4       8 LYP4        0.0000 
     35 N          26.4765   20.0235   22.3615 N.am      2 SEC2        0.0000 
     36 N          27.3080   20.0360   21.3320 N.am     12 SEL2        0.0000 
     37 N          28.6175   21.5820   18.0960 N.am      2 SEC2        0.0000 
     38 N          28.0870   21.5190   19.6850 N.am     12 SEL2        0.0000 
     39 N          29.1480   21.6450   16.5070 N.am      7 SEP2        0.0000 
     40 N          27.2780   21.6840   18.5380 N.am      2 SEC2        0.0000 
     41 N          26.4690   21.8490   17.3910 N.am      7 SEP2        0.0000 
     42 N          26.8380   21.8440   19.8985 N.am      2 SEC2        0.0000 
     43 N          25.5890   22.1690   20.1120 N.am      7 SEP2        0.0000 
     44 N          31.0610   22.7160   18.9945 N.am      2 SEC2        0.0000 
     45 N          31.4190   21.9640   20.2970 N.am     12 SEL2        0.0000 
     46 N          30.7030   23.4680   17.6920 N.am      7 SEP2        0.0000 
     47 N          32.4585   22.9900   20.3320 N.am      2 SEC2        0.0000 
     48 N          33.4980   24.0160   20.3670 N.am      7 SEP2        0.0000 
     49 O          32.2615   21.8145   21.1410 O.2       1 ALC1        0.0000 
     50 O          31.4190   21.9640   20.2970 O.2      11 ALL1        0.0000 
     51 O          33.1040   21.6650   21.9850 O.2       6 ALP1        0.0000 
     52 CA         32.2010   19.2085   17.5870 C.3       5 GLC5        0.0000 
     53 CA         31.5140   19.7160   19.4970 C.3      15 GLL5        0.0000 
     54 CA         32.8880   18.7010   15.6770 C.3      10 GLP5        0.0000 
     55 CA         31.9980   21.1285   17.8995 C.3       5 GLC5        0.0000 
     56 CA         32.4820   22.5410   16.3020 C.3      10 GLP5        0.0000 
     57 CA         29.9060   19.5230   18.1135 C.3       5 GLC5        0.0000 
     58 CA         28.2980   19.3300   16.7300 C.3      10 GLP5        0.0000 
     59 Zn         33.3845   20.0270   18.5835 Zn        4 ZIC7        0.0000 
     60 Zn         32.3020   20.1140   18.3790 Zn       14 ZIL7        0.0000 
     61 Zn         34.4670   19.9400   18.7880 Zn        9 ZIP7        0.0000 
     62 N          33.2685   20.2265   19.5255 N.am      2 SEC2        0.0000 
     63 N          32.3020   20.1140   18.3790 N.am     12 SEL2        0.0000 
     64 N          34.2350   20.3390   20.6720 N.am      7 SEP2        0.0000 
     65 CA         25.1206   14.8831   27.5440 C.3       5 GLC5        0.0000 
     66 CA         27.0530   14.9860   26.4370 C.3      15 GLL5        0.0000 
     67 CA         23.7250   14.4110   28.8880 C.3      10 GLP5        0.0000 
     68 CA         24.8250   16.2028   24.9585 C.3       5 GLC5        0.0000 
     69 CA         26.3860   16.3200   26.2030 C.3      15 GLL5        0.0000 
     70 CA         22.9780   15.8720   24.4130 C.3      10 GLP5        0.0000 
     71 CA         26.9778   16.7942   22.8930 C.3       5 GLC5        0.0000 
     72 CA         26.9580   16.7470   24.8050 C.3      15 GLL5        0.0000 
     73 CA         29.7706   20.6344   22.9637 C.3       5 GLC5        0.0000 
     74 CA         29.3650   21.6120   24.3340 C.3      10 GLP5        0.0000 
@<TRIPOS>BOND
@<TRIPOS>SUBSTRUCTURE
     1 ALC1       49 GROUP        1 X    ALC  0     ROOT ALC X 1
     2 SEC2        1 GROUP        1 X    SEC  0     **** SEC X 2
     3 LYC4       32 GROUP        1 X    LYC  0     **** LYC X 4
     4 ZIC7       59 GROUP        1 X    ZIC  0     **** ZIC X 5
     5 GLC5       11 GROUP        1 X    GLC  0     **** GLC X 6
     6 ALP1       51 GROUP        1 Y    ALP  0     ROOT ALP Y 8
     7 SEP2        3 GROUP        1 Y    SEP  0     **** SEP Y 9
     8 LYP4       34 GROUP        1 Y    LYP  0     **** LYP Y 11
     9 ZIP7       61 GROUP        1 Y    ZIP  0     **** ZIP Y 12
    10 GLP5       13 GROUP        1 Y    GLP  0     **** GLP Y 13
    11 ALL1       50 GROUP        1 Z    ALL  0     ROOT ALL Z 15
    12 SEL2        2 GROUP        1 Z    SEL  0     **** SEL Z 16
    13 LYL4       33 GROUP        1 Z    LYL  0     **** LYL Z 18
    14 ZIL7       60 GROUP        1 Z    ZIL  0     **** ZIL Z 19
    15 GLL5       12 GROUP        1 Z    GLL  0     **** GLL Z 20
@<TRIPOS>SET

