#    Name: 1qf4_RPD_1_ligand
#    Modification time : Mon Mar 24 23:23:26 2014

@<TRIPOS>MOLECULE
1qf4_RPD_1_ligand
   49    50     1     0     0
SMALL
NO_CHARGES


@<TRIPOS>ATOM
      1 O1P        25.2120   11.7480   23.7840 O.co2     1 RPD435      0.0000 
      2 O2P        27.2380   12.8770   23.0980 O.co2     1 RPD435      0.0000 
      3 O3P        25.0680   13.5940   22.2750 O.co2     1 RPD435      0.0000 
      4 P          25.7800   13.0510   23.4200 P.3       1 RPD435      0.0000 
      5 O5'        25.6680   14.0530   24.6980 O.3       1 RPD435      0.0000 
      6 C5'        26.2400   13.7950   25.9570 C.3       1 RPD435      0.0000 
      7 C4'        27.0530   14.9860   26.4370 C.3       1 RPD435      0.0000 
      8 O4'        28.2890   15.0460   25.7440 O.3       1 RPD435      0.0000 
      9 C3'        26.3860   16.3200   26.2030 C.3       1 RPD435      0.0000 
     10 O3'        26.8060   17.2530   27.2110 O.3       1 RPD435      0.0000 
     11 C2'        26.9580   16.7470   24.8050 C.3       1 RPD435      0.0000 
     12 O2'        27.1060   18.1810   24.7780 O.3       1 RPD435      0.0000 
     13 C1'        28.3510   16.0740   24.6910 C.3       1 RPD435      0.0000 
     14 N1         28.4020   15.4320   23.4830 N.am      1 RPD435      0.0000 
     15 C2         29.5070   15.8380   22.7560 C.2       1 RPD435      0.0000 
     16 O2         29.7870   15.4390   21.6860 O.2       1 RPD435      0.0000 
     17 N3         30.2130   16.7690   23.4730 N.am      1 RPD435      0.0000 
     18 C4         29.5130   16.9360   24.6750 C.2       1 RPD435      0.0000 
     19 O4         29.9090   17.7310   25.5420 O.2       1 RPD435      0.0000 
     20 C5A        31.4540   17.4470   23.0390 C.3       1 RPD435      0.0000 
     21 C6A        31.1480   18.8920   22.5950 C.3       1 RPD435      0.0000 
     22 C7A        30.0010   18.9310   21.5550 C.3       1 RPD435      0.0000 
     23 C8A        29.7780   20.4020   21.1120 C.3       1 RPD435      0.0000 
     24 C9A        28.3310   20.6550   20.7000 C.2       1 RPD435      0.0000 
     25 OJA        27.3080   20.0360   21.3320 O.co2     1 RPD435      0.0000 
     26 OKA        28.0870   21.5190   19.6850 O.co2     1 RPD435      0.0000 
     27 NAA        30.6230   20.7980   19.9310 N.4       1 RPD435      0.0000 
     28 OAA        31.4190   21.9640   20.2970 O.3       1 RPD435      0.0000 
     29 CBA        31.5140   19.7160   19.4970 C.3       1 RPD435      0.0000 
     30 OBA        32.3020   20.1140   18.3790 O.3       1 RPD435      0.0000 
     31 H          26.9143   12.9206   25.9342 H         1 RPD435      0.0000 
     32 H          25.4742   13.5851   26.7246 H         1 RPD435      0.0000 
     33 H          27.2325   14.8821   27.5031 H         1 RPD435      0.0000 
     34 H          25.3610   16.1976   26.1130 H         1 RPD435      0.0000 
     35 H          26.3296   16.3694   24.0603 H         1 RPD435      0.0000 
     36 H          27.7545   14.7790   23.1712 H         1 RPD435      0.0000 
     37 H          31.9069   16.9211   22.1975 H         1 RPD435      0.0000 
     38 H          32.1770   17.4875   23.8547 H         1 RPD435      0.0000 
     39 H          32.0406   19.3266   22.1523 H         1 RPD435      0.0000 
     40 H          30.8576   19.4787   23.4628 H         1 RPD435      0.0000 
     41 H          29.0993   18.5571   22.0055 H         1 RPD435      0.0000 
     42 H          30.2767   18.3421   20.6988 H         1 RPD435      0.0000 
     43 H          30.0064   21.0575   21.9409 H         1 RPD435      0.0000 
     44 H          29.9564   21.0702   19.1138 H         1 RPD435      0.0000 
     45 H          30.9040   18.8239   19.2490 H         1 RPD435      0.0000 
     46 H          32.1612   19.4188   20.3469 H         1 RPD435      0.0000 
     47 H          26.4525   16.8824   28.0699 H         1 RPD435      0.0000 
     48 H          26.8755   18.4823   25.7033 H         1 RPD435      0.0000 
     49 H          31.6220   21.8439   21.2688 H         1 RPD435      0.0000 
@<TRIPOS>BOND
     1    4    1 ar   
     2    4    2 ar   
     3    4    3 ar   
     4    5    4 1    
     5    6    5 1    
     6    7    6 1    
     7   31    6 1    
     8   32    6 1    
     9    8    7 1    
    10    9    7 1    
    11   33    7 1    
    12   13    8 1    
    13   10    9 1    
    14   11    9 1    
    15   34    9 1    
    16   47   10 1    
    17   12   11 1    
    18   13   11 1    
    19   35   11 1    
    20   48   12 1    
    21   14   13 1    
    22   18   13 1    
    23   15   14 am   
    24   36   14 1    
    25   16   15 2    
    26   17   15 am   
    27   18   17 am   
    28   20   17 1    
    29   19   18 2    
    30   21   20 1    
    31   37   20 1    
    32   38   20 1    
    33   22   21 1    
    34   39   21 1    
    35   40   21 1    
    36   23   22 1    
    37   41   22 1    
    38   42   22 1    
    39   24   23 1    
    40   27   23 1    
    41   43   23 1    
    42   25   24 ar   
    43   26   24 ar   
    44   28   27 1    
    45   29   27 1    
    46   44   27 1    
    47   49   28 1    
    48   30   29 1    
    49   45   29 1    
    50   46   29 1    
@<TRIPOS>SUBSTRUCTURE
     1 RPD435      1 GROUP   
@<TRIPOS>SET

