#    Name: 1G2O_2_CAVITY_N1_6.mol2
#    Modification time : Tue Mar 11 00:35:17 2014

@<TRIPOS>MOLECULE
1G2O_2_CAVITY_N1_6.mol2
   41     0     5     0     0
SMALL
NO_CHARGES


@<TRIPOS>ATOM
      1 O          28.9210   36.2140   43.2160 O.2       2 ALA2        0.0000 
      2 OG         29.3422   34.8398   43.6449 O.2       1 SER1        0.0000 
      3 OG         29.7634   33.4655   44.0737 O.2       1 SER1        0.0000 
      4 N          30.1846   32.0912   44.5026 N.2       2 ALA2        0.0000 
      5 OG         29.0120   37.3137   41.4042 O.2       1 SER1        0.0000 
      6 DU         29.4332   35.9395   41.8331 H         5 CUB7        0.0000 
      7 N          29.8544   34.5652   42.2620 N.2       2 ALA2        0.0000 
      8 N          30.2756   33.1909   42.6909 N.2       2 ALA2        0.0000 
      9 OG         30.6969   31.8167   43.1198 O.2       1 SER1        0.0000 
     10 CA         29.5242   37.0392   40.0214 C.3       4 GLY6        0.0000 
     11 N          29.9454   35.6649   40.4503 N.2       2 ALA2        0.0000 
     12 N          30.4576   35.3903   39.0674 N.2       2 ALA2        0.0000 
     13 OG         30.1754   35.6491   45.4199 O.2       1 SER1        0.0000 
     14 CZ         30.2664   36.7488   43.6082 C.ar      3 PHE5        0.0000 
     15 OG         30.6876   35.3745   44.0370 O.2       1 SER1        0.0000 
     16 OG         31.1088   34.0003   44.4659 O.2       1 SER1        0.0000 
     17 CA         31.5301   32.6260   44.8948 C.3       4 GLY6        0.0000 
     18 CZ         30.3574   37.8485   41.7964 C.ar      3 PHE5        0.0000 
     19 DU         30.7786   36.4742   42.2253 H         5 CUB7        0.0000 
     20 DU         31.1998   35.1000   42.6542 H         5 CUB7        0.0000 
     21 O          31.6211   33.7257   43.0831 O.2       2 ALA2        0.0000 
     22 OG         32.0423   32.3514   43.5120 O.2       1 SER1        0.0000 
     23 CZ         30.8696   37.5740   40.4136 C.ar      3 PHE5        0.0000 
     24 CZ         31.2908   36.1997   40.8425 C.ar      3 PHE5        0.0000 
     25 N          31.7121   34.8254   41.2714 N.2       2 ALA2        0.0000 
     26 O          32.1333   33.4511   41.7003 O.2       2 ALA2        0.0000 
     27 N          31.8031   35.9251   39.4596 N.2       2 ALA2        0.0000 
     28 CA         32.2243   34.5508   39.8885 C.3       4 GLY6        0.0000 
     29 CZ         31.6118   37.2836   44.0003 C.ar      3 PHE5        0.0000 
     30 CA         32.0331   35.9093   44.4292 C.3       4 GLY6        0.0000 
     31 CZ         32.4543   34.5350   44.8581 C.ar      3 PHE5        0.0000 
     32 CA         32.1241   37.0090   42.6175 C.3       4 GLY6        0.0000 
     33 CA         32.5453   35.6348   43.0464 C.3       4 GLY6        0.0000 
     34 CA         32.6363   36.7345   41.2347 C.3       4 GLY6        0.0000 
     35 CA         33.0575   35.3602   41.6635 C.3       4 GLY6        0.0000 
     36 CA         33.1485   36.4599   39.8518 C.3       4 GLY6        0.0000 
     37 CA         28.0877   35.4047   41.4409 C.3       4 GLY6        0.0000 
     38 CA         28.5090   34.0304   41.8698 C.3       4 GLY6        0.0000 
     39 N          28.9302   32.6561   42.2987 N.2       2 ALA2        0.0000 
     40 CA         28.1787   36.5044   39.6292 C.3       4 GLY6        0.0000 
     41 CA         28.6000   35.1301   40.0581 C.3       4 GLY6        0.0000 
@<TRIPOS>BOND
@<TRIPOS>SUBSTRUCTURE
     1 SER1        2 GROUP   
     2 ALA2        1 GROUP   
     3 PHE5       14 GROUP   
     4 GLY6       10 GROUP   
     5 CUB7        6 GROUP   
@<TRIPOS>SET

