#    Name: 1g2o_IMH_2_INTS_M
#    Modification time : Tue Mar 25 02:24:58 2014

@<TRIPOS>MOLECULE
1g2o_IMH_2_INTS_M
   66     0     9     0     0
SMALL
NO_CHARGES


@<TRIPOS>ATOM
      1 N          27.8330   38.2905   43.5265 N.am      2 SEC2        0.0000 
      2 N          28.7480   38.0980   42.7280 N.am      8 SEL2        0.0000 
      3 N          26.9180   38.4830   44.3250 N.am      5 SEP2        0.0000 
      4 O          28.9930   39.3465   42.1390 O.2       1 ALC1        0.0000 
      5 O          28.7480   38.0980   42.7280 O.2       7 ALL1        0.0000 
      6 O          29.2380   40.5950   41.5500 O.2       4 ALP1        0.0000 
      7 CA         30.6480   38.8570   41.7995 C.3       3 GLC5        0.0000 
      8 CA         30.0050   37.6420   43.1930 C.3       9 GLL5        0.0000 
      9 CA         31.2910   40.0720   40.4060 C.3       6 GLP5        0.0000 
     10 CA         28.2745   38.6750   44.0130 C.3       3 GLC5        0.0000 
     11 CA         26.5440   39.7080   44.8330 C.3       6 GLP5        0.0000 
     12 CA         30.8785   38.6875   44.3720 C.3       3 GLC5        0.0000 
     13 CA         31.7520   39.7330   45.5510 C.3       6 GLP5        0.0000 
     14 CA         32.4810   35.5055   45.4745 C.3       3 GLC5        0.0000 
     15 CA         31.2220   35.6400   43.8850 C.3       9 GLL5        0.0000 
     16 CA         33.7400   35.3710   47.0640 C.3       6 GLP5        0.0000 
     17 CA         32.9115   36.3650   43.7645 C.3       3 GLC5        0.0000 
     18 CA         34.6010   37.0900   43.6440 C.3       6 GLP5        0.0000 
     19 N          31.2090   35.0775   46.2800 N.am      2 SEC2        0.0000 
     20 N          31.0030   34.7150   44.9570 N.am      8 SEL2        0.0000 
     21 N          31.4150   35.4400   47.6030 N.am      5 SEP2        0.0000 
     22 CA         33.5310   35.3315   42.7430 C.3       3 GLC5        0.0000 
     23 CA         31.7130   35.0000   42.6260 C.3       9 GLL5        0.0000 
     24 CA         35.3490   35.6630   42.8600 C.3       6 GLP5        0.0000 
     25 N          33.5295   33.3685   42.3950 N.am      2 SEC2        0.0000 
     26 N          32.3010   33.7230   42.9140 N.am      8 SEL2        0.0000 
     27 N          34.7580   33.0140   41.8760 N.am      5 SEP2        0.0000 
     28 CA         28.6975   33.9965   40.8950 C.3       3 GLC5        0.0000 
     29 CA         30.5250   34.8230   41.6400 C.3       9 GLL5        0.0000 
     30 CA         26.8700   33.1700   40.1500 C.3       6 GLP5        0.0000 
     31 CA         28.2900   34.5460   39.7880 C.3       3 GLC5        0.0000 
     32 CA         29.7100   35.9220   39.4260 C.3       9 GLL5        0.0000 
     33 CA         28.1555   37.3465   39.4590 C.3       3 GLC5        0.0000 
     34 CA         26.6010   38.7710   39.4920 C.3       6 GLP5        0.0000 
     35 O          29.2230   37.1000   37.3815 O.2       1 ALC1        0.0000 
     36 O          30.1010   36.5860   38.3650 O.2       7 ALL1        0.0000 
     37 O          28.3450   37.6140   36.3980 O.2       4 ALP1        0.0000 
     38 CA         30.8190   34.8025   37.6860 C.3       3 GLC5        0.0000 
     39 CA         31.4740   36.7340   38.5210 C.3       9 GLL5        0.0000 
     40 CA         30.1640   32.8710   36.8510 C.3       6 GLP5        0.0000 
     41 CA         33.6565   36.4440   36.4035 C.3       3 GLC5        0.0000 
     42 CA         32.4360   37.3850   37.6610 C.3       9 GLL5        0.0000 
     43 CA         34.8770   35.5030   35.1460 C.3       6 GLP5        0.0000 
     44 CA         32.1580   39.4710   36.9910 C.3       3 GLC5        0.0000 
     45 CA         31.8800   41.5570   36.3210 C.3       6 GLP5        0.0000 
     46 N          31.0055   38.3940   35.8895 N.am      2 SEC2        0.0000 
     47 N          32.2170   37.9500   36.5840 N.am      8 SEL2        0.0000 
     48 N          29.7940   38.8380   35.1950 N.am      5 SEP2        0.0000 
     49 N          34.8290   37.9675   37.6555 N.am      2 SEC2        0.0000 
     50 N          33.7520   37.3320   38.1600 N.am      8 SEL2        0.0000 
     51 N          35.9060   38.6030   37.1510 N.am      5 SEP2        0.0000 
     52 CA         35.4920   35.8430   37.9870 C.3       3 GLC5        0.0000 
     53 CA         34.1230   36.7190   39.3670 C.3       9 GLL5        0.0000 
     54 CA         36.8610   34.9670   36.6070 C.3       6 GLP5        0.0000 
     55 CA         34.2295   34.8145   39.4290 C.3       3 GLC5        0.0000 
     56 CA         34.3360   32.9100   39.4910 C.3       6 GLP5        0.0000 
     57 CA         34.4805   37.5310   40.8730 C.3       3 GLC5        0.0000 
     58 CA         34.8380   38.3430   42.3790 C.3       6 GLP5        0.0000 
     59 CA         33.1165   34.5245   39.6030 C.3       3 GLC5        0.0000 
     60 CA         31.8970   36.1390   39.7150 C.3       9 GLL5        0.0000 
     61 CA         31.0885   37.2433   44.9948 C.3       3 GLC5        0.0000 
     62 CA         31.6210   38.5750   46.3130 C.3       6 GLP5        0.0000 
     63 CA         30.1910   34.3137   38.3628 C.3       3 GLC5        0.0000 
     64 CA         30.7260   35.5910   40.3230 C.3       9 GLL5        0.0000 
     65 CA         31.5090   36.3302   36.2505 C.3       3 GLC5        0.0000 
     66 CA         31.0630   35.6010   34.4100 C.3       6 GLP5        0.0000 
@<TRIPOS>BOND
@<TRIPOS>SUBSTRUCTURE
     1 ALC1        4 GROUP        1 X    ALC  0     ROOT ALC X 1
     2 SEC2        1 GROUP        1 X    SEC  0     **** SEC X 2
     3 GLC5        7 GROUP        1 X    GLC  0     **** GLC X 6
     4 ALP1        6 GROUP        1 Y    ALP  0     ROOT ALP Y 8
     5 SEP2        3 GROUP        1 Y    SEP  0     **** SEP Y 9
     6 GLP5        9 GROUP        1 Y    GLP  0     **** GLP Y 13
     7 ALL1        5 GROUP        1 Z    ALL  0     ROOT ALL Z 15
     8 SEL2        2 GROUP        1 Z    SEL  0     **** SEL Z 16
     9 GLL5        8 GROUP        1 Z    GLL  0     **** GLL Z 20
@<TRIPOS>SET

