#    Name: 1g2o_IMH_2_ligand
#    Modification time : Tue Mar 25 02:24:58 2014

@<TRIPOS>MOLECULE
1g2o_IMH_2_ligand
   32    34     1     0     0
SMALL
NO_CHARGES


@<TRIPOS>ATOM
      1 O5'        28.7480   38.0980   42.7280 O.3       1 IMH352      0.0000 
      2 C5'        30.0050   37.6420   43.1930 C.3       1 IMH352      0.0000 
      3 C4'        29.8900   36.1830   43.4680 C.3       1 IMH352      0.0000 
      4 N4'        29.4670   35.5100   42.2880 N.4       1 IMH352      0.0000 
      5 C3'        31.2220   35.6400   43.8850 C.3       1 IMH352      0.0000 
      6 O3'        31.0030   34.7150   44.9570 O.3       1 IMH352      0.0000 
      7 C2'        31.7130   35.0000   42.6260 C.3       1 IMH352      0.0000 
      8 O2'        32.3010   33.7230   42.9140 O.3       1 IMH352      0.0000 
      9 C1'        30.5250   34.8230   41.6400 C.3       1 IMH352      0.0000 
     10 C9         30.7260   35.5910   40.3230 C.2       1 IMH352      0.0000 
     11 C8         29.7100   35.9220   39.4260 C.2       1 IMH352      0.0000 
     12 N7         30.1010   36.5860   38.3650 N.pl3     1 IMH352      0.0000 
     13 C5         31.4740   36.7340   38.5210 C.ar      1 IMH352      0.0000 
     14 C6         32.4360   37.3850   37.6610 C.ar      1 IMH352      0.0000 
     15 O6         32.2170   37.9500   36.5840 O.3       1 IMH352      0.0000 
     16 N1         33.7520   37.3320   38.1600 N.ar      1 IMH352      0.0000 
     17 C2         34.1230   36.7190   39.3670 C.ar      1 IMH352      0.0000 
     18 N3         33.2160   36.1020   40.1860 N.ar      1 IMH352      0.0000 
     19 C4         31.8970   36.1390   39.7150 C.ar      1 IMH352      0.0000 
     20 H          30.3032   38.1499   44.1151 H         1 IMH352      0.0000 
     21 H          30.7918   37.7973   42.4487 H         1 IMH352      0.0000 
     22 H          29.1890   36.0306   44.2719 H         1 IMH352      0.0000 
     23 H          31.8444   36.4511   44.1426 H         1 IMH352      0.0000 
     24 H          32.4252   35.6583   42.1505 H         1 IMH352      0.0000 
     25 H          30.3260   33.8328   41.4792 H         1 IMH352      0.0000 
     26 H          28.7581   35.6512   39.6178 H         1 IMH352      0.0000 
     27 H          29.6015   36.9119   37.6332 H         1 IMH352      0.0000 
     28 H          35.1339   36.7424   39.6379 H         1 IMH352      0.0000 
     29 H          28.9325   38.9909   42.3174 H         1 IMH352      0.0000 
     30 H          31.2291   33.8187   44.5756 H         1 IMH352      0.0000 
     31 H          31.6623   33.0529   42.5357 H         1 IMH352      0.0000 
     32 H          33.0872   38.3737   36.3325 H         1 IMH352      0.0000 
@<TRIPOS>BOND
     1    2    1 1    
     2   29    1 1    
     3    3    2 1    
     4   20    2 1    
     5   21    2 1    
     6    4    3 1    
     7    5    3 1    
     8   22    3 1    
     9    9    4 1    
    10    6    5 1    
    11    7    5 1    
    12   23    5 1    
    13   30    6 1    
    14    8    7 1    
    15    9    7 1    
    16   24    7 1    
    17   31    8 1    
    18   10    9 1    
    19   25    9 1    
    20   11   10 2    
    21   19   10 1    
    22   12   11 1    
    23   26   11 1    
    24   13   12 1    
    25   27   12 1    
    26   14   13 ar   
    27   19   13 ar   
    28   15   14 1    
    29   16   14 ar   
    30   32   15 1    
    31   17   16 ar   
    32   18   17 ar   
    33   28   17 1    
    34   19   18 ar   
@<TRIPOS>SUBSTRUCTURE
     1 IMH352      1 GROUP   
@<TRIPOS>SET

