#    Name: 1DX4_1_CAVITY_N1_6.mol2
#    Modification time : Mon Mar 10 19:13:52 2014

@<TRIPOS>MOLECULE
1DX4_1_CAVITY_N1_6.mol2
  110     0     6     0     0
SMALL
NO_CHARGES


@<TRIPOS>ATOM
      1 CZ         37.6298   67.9184   11.3694 C.ar      4 PHE5        0.0000 
      2 CZ         37.0457   68.9157   10.4132 C.ar      4 PHE5        0.0000 
      3 OG         36.4617   69.9129    9.4570 O.2       1 SER1        0.0000 
      4 OG         35.8776   70.9101    8.5007 O.2       1 SER1        0.0000 
      5 CZ         38.0769   67.0725   10.2142 C.ar      4 PHE5        0.0000 
      6 CA         37.4928   68.0698    9.2580 C.3       5 GLY6        0.0000 
      7 N          36.9088   69.0670    8.3017 N.2       2 ALA2        0.0000 
      8 N          36.3247   70.0642    7.3455 N.2       2 ALA2        0.0000 
      9 CA         36.9066   66.1864   12.3578 C.3       5 GLY6        0.0000 
     10 CZ         36.3225   67.1836   11.4016 C.ar      4 PHE5        0.0000 
     11 CZ         35.7384   68.1808   10.4453 C.ar      4 PHE5        0.0000 
     12 OG         35.1544   69.1781    9.4891 O.2       1 SER1        0.0000 
     13 OG         34.5703   70.1753    8.5328 O.2       1 SER1        0.0000 
     14 CZ         33.9863   71.1725    7.5766 C.ar      4 PHE5        0.0000 
     15 O          37.3536   65.3405   11.2026 O.2       2 ALA2        0.0000 
     16 CA         36.7696   66.3377   10.2463 C.3       5 GLY6        0.0000 
     17 CA         36.1855   67.3349    9.2901 C.3       5 GLY6        0.0000 
     18 CA         35.6015   68.3322    8.3339 C.3       5 GLY6        0.0000 
     19 CA         35.0174   69.3294    7.3776 C.3       5 GLY6        0.0000 
     20 CZ         34.4334   70.3266    6.4214 C.ar      4 PHE5        0.0000 
     21 CZ         34.5681   67.2947   12.5890 C.ar      4 PHE5        0.0000 
     22 OG         32.2319   71.2836    8.7640 O.2       1 SER1        0.0000 
     23 N          35.5993   65.4515   12.3900 N.2       2 ALA2        0.0000 
     24 N          35.0152   66.4488   11.4337 N.2       2 ALA2        0.0000 
     25 CZ         34.4312   67.4460   10.4775 C.ar      4 PHE5        0.0000 
     26 OG         33.8471   68.4432    9.5212 O.2       1 SER1        0.0000 
     27 OG         33.2630   69.4405    8.5650 O.2       1 SER1        0.0000 
     28 CZ         32.6790   70.4377    7.6087 C.ar      4 PHE5        0.0000 
     29 O          36.0464   64.6056   11.2347 O.2       2 ALA2        0.0000 
     30 O          35.4623   65.6029   10.2785 O.2       2 ALA2        0.0000 
     31 CA         34.8782   66.6001    9.3222 C.3       5 GLY6        0.0000 
     32 CA         34.2942   67.5973    8.3660 C.3       5 GLY6        0.0000 
     33 CA         33.7101   68.5946    7.4097 C.3       5 GLY6        0.0000 
     34 N          33.1261   69.5918    6.4535 N.2       2 ALA2        0.0000 
     35 CZ         32.5420   70.5890    5.4973 C.ar      4 PHE5        0.0000 
     36 CZ         31.0616   70.3974   10.9076 C.ar      4 PHE5        0.0000 
     37 OG         30.4775   71.3947    9.9513 O.2       1 SER1        0.0000 
     38 OG         29.8935   72.3919    8.9951 O.2       1 SER1        0.0000 
     39 CZ         33.2608   66.5599   12.6211 C.ar      4 PHE5        0.0000 
     40 CZ         32.6768   67.5571   11.6648 C.ar      4 PHE5        0.0000 
     41 CZ         32.0927   68.5543   10.7086 C.ar      4 PHE5        0.0000 
     42 OG         31.5087   69.5515    9.7523 O.2       1 SER1        0.0000 
     43 OG         30.9246   70.5488    8.7961 O.2       1 SER1        0.0000 
     44 OG         30.3406   71.5460    7.8399 O.2       1 SER1        0.0000 
     45 N          33.7079   65.7139   11.4659 N.2       2 ALA2        0.0000 
     46 DU         33.1239   66.7112   10.5096 H         6 CUB7        0.0000 
     47 DU         32.5398   67.7084    9.5534 H         6 CUB7        0.0000 
     48 DU         31.9558   68.7056    8.5971 H         6 CUB7        0.0000 
     49 OG         31.3717   69.7029    7.6409 O.2       1 SER1        0.0000 
     50 CZ         34.1550   64.8680   10.3106 C.ar      4 PHE5        0.0000 
     51 CZ         33.5710   65.8653    9.3544 C.ar      4 PHE5        0.0000 
     52 CA         32.9869   66.8625    8.3981 C.3       5 GLY6        0.0000 
     53 CA         32.4028   67.8597    7.4419 C.3       5 GLY6        0.0000 
     54 OG         31.8188   68.8570    6.4856 O.2       1 SER1        0.0000 
     55 CA         32.8499   67.0138    6.2867 C.3       5 GLY6        0.0000 
     56 N          32.2659   68.0111    5.3304 N.2       2 ALA2        0.0000 
     57 CZ         28.7232   71.5057   11.1387 C.ar      4 PHE5        0.0000 
     58 CZ         30.9224   67.6682   12.8522 C.ar      4 PHE5        0.0000 
     59 CZ         30.3384   68.6654   11.8960 C.ar      4 PHE5        0.0000 
     60 CZ         29.7543   69.6626   10.9397 C.ar      4 PHE5        0.0000 
     61 O          29.1702   70.6598    9.9835 O.2       2 ALA2        0.0000 
     62 N          28.5862   71.6571    9.0272 N.2       2 ALA2        0.0000 
     63 O          31.3695   66.8222   11.6970 O.2       2 ALA2        0.0000 
     64 DU         30.7854   67.8195   10.7407 H         6 CUB7        0.0000 
     65 CA         30.2014   68.8167    9.7845 C.3       5 GLY6        0.0000 
     66 CA         29.6173   69.8139    8.8282 C.3       5 GLY6        0.0000 
     67 N          32.4007   64.9791   11.4980 N.2       2 ALA2        0.0000 
     68 DU         31.8166   65.9763   10.5417 H         6 CUB7        0.0000 
     69 DU         31.2325   66.9736    9.5855 H         6 CUB7        0.0000 
     70 CA         30.6485   67.9708    8.6293 C.3       5 GLY6        0.0000 
     71 OG         30.0644   68.9680    7.6730 O.2       1 SER1        0.0000 
     72 CZ         32.8477   64.1332   10.3428 C.ar      4 PHE5        0.0000 
     73 CZ         32.2637   65.1304    9.3865 C.ar      4 PHE5        0.0000 
     74 CZ         31.6796   66.1277    8.4303 C.ar      4 PHE5        0.0000 
     75 CA         31.0956   67.1249    7.4740 C.3       5 GLY6        0.0000 
     76 OG         30.5115   68.1221    6.5178 O.2       1 SER1        0.0000 
     77 CZ         31.5427   66.2790    6.3188 C.ar      4 PHE5        0.0000 
     78 OG         30.9586   67.2762    5.3625 O.2       1 SER1        0.0000 
     79 CZ         31.9897   65.4331    5.1636 C.ar      4 PHE5        0.0000 
     80 N          31.4057   66.4303    4.2073 N.2       2 ALA2        0.0000 
     81 CZ         27.5528   70.6196   13.2823 C.ar      4 PHE5        0.0000 
     82 CZ         27.9999   69.7737   12.1271 C.ar      4 PHE5        0.0000 
     83 CA         27.4159   70.7709   11.1708 C.3       5 GLY6        0.0000 
     84 CZ         29.0311   67.9306   11.9281 C.ar      4 PHE5        0.0000 
     85 O          28.4470   68.9278   10.9719 O.2       2 ALA2        0.0000 
     86 O          30.0622   66.0874   11.7291 O.2       2 ALA2        0.0000 
     87 OG         29.4782   67.0846   10.7729 O.2       1 SER1        0.0000 
     88 CA         28.8941   68.0819    9.8166 C.3       5 GLY6        0.0000 
     89 O          31.0934   64.2443   11.5301 O.2       2 ALA2        0.0000 
     90 OG         30.5093   65.2415   10.5739 O.2       1 SER1        0.0000 
     91 OG         29.9253   66.2387    9.6176 O.2       1 SER1        0.0000 
     92 NZ         31.5405   63.3984   10.3749 N.2       3 LYS4        0.0000 
     93 NZ         30.9564   64.3956    9.4187 N.2       3 LYS4        0.0000 
     94 O          30.3723   65.3928    8.4624 O.2       2 ALA2        0.0000 
     95 CA         29.7883   66.3901    7.5062 C.3       5 GLY6        0.0000 
     96 CZ         31.4035   63.5497    8.2634 C.ar      4 PHE5        0.0000 
     97 OG         30.8194   64.5469    7.3072 O.2       1 SER1        0.0000 
     98 N          30.2354   65.5442    6.3509 N.2       2 ALA2        0.0000 
     99 OG         30.6825   64.6983    5.1957 O.2       1 SER1        0.0000 
    100 CZ         26.8296   68.8875   14.2707 C.ar      4 PHE5        0.0000 
    101 CZ         26.2456   69.8848   13.3145 C.ar      4 PHE5        0.0000 
    102 CZ         25.6615   70.8820   12.3582 C.ar      4 PHE5        0.0000 
    103 OG         27.2767   68.0416   13.1155 O.2       1 SER1        0.0000 
    104 O          26.6926   69.0389   12.1592 O.2       2 ALA2        0.0000 
    105 O          27.1397   68.1930   11.0040 O.2       2 ALA2        0.0000 
    106 O          29.0651   64.6580    8.4945 O.2       2 ALA2        0.0000 
    107 CZ         25.5223   68.1527   14.3028 C.ar      4 PHE5        0.0000 
    108 CZ         24.9383   69.1499   13.3466 C.ar      4 PHE5        0.0000 
    109 OG         25.9694   67.3068   13.1476 O.2       1 SER1        0.0000 
    110 CZ         25.3854   68.3040   12.1914 C.ar      4 PHE5        0.0000 
@<TRIPOS>BOND
@<TRIPOS>SUBSTRUCTURE
     1 SER1        3 GROUP   
     2 ALA2        7 GROUP   
     3 LYS4       92 GROUP   
     4 PHE5        1 GROUP   
     5 GLY6        6 GROUP   
     6 CUB7       46 GROUP   
@<TRIPOS>SET

