#    Name: 1dx4_760_1_INTS_M
#    Modification time : Mon Mar 24 22:30:48 2014

@<TRIPOS>MOLECULE
1dx4_760_1_INTS_M
   24     0     3     0     0
SMALL
NO_CHARGES


@<TRIPOS>ATOM
      1 CA         37.4575   65.7975   13.6025 C.3       1 GLC5        0.0000 
      2 CA         36.7840   66.1440   11.6210 C.3       3 GLL5        0.0000 
      3 CA         38.1310   65.4510   15.5840 C.3       2 GLP5        0.0000 
      4 CA         32.3540   71.7350    7.3065 C.3       1 GLC5        0.0000 
      5 CA         32.3820   69.8410    7.9060 C.3       3 GLL5        0.0000 
      6 CA         32.3260   73.6290    6.7070 C.3       2 GLP5        0.0000 
      7 CA         32.0260   63.5662    8.0802 C.3       1 GLC5        0.0000 
      8 CA         30.1860   64.6930    8.5380 C.3       3 GLL5        0.0000 
      9 CA         33.3860   62.5270    7.0280 C.3       2 GLP5        0.0000 
     10 CA         28.0295   64.9005    7.9742 C.3       1 GLC5        0.0000 
     11 CA         26.0540   64.4580    7.3980 C.3       2 GLP5        0.0000 
     12 CA         29.0665   67.0410    7.9539 C.3       1 GLC5        0.0000 
     13 CA         29.8240   65.9930    8.5630 C.3       3 GLL5        0.0000 
     14 CA         27.5780   67.9240    7.4900 C.3       2 GLP5        0.0000 
     15 CA         34.2635   66.8317    7.2012 C.3       1 GLC5        0.0000 
     16 CA         32.5700   66.5480    8.8400 C.3       3 GLL5        0.0000 
     17 CA         35.4290   66.5740    5.8170 C.3       2 GLP5        0.0000 
     18 CA         35.3143   66.9818    7.8065 C.3       1 GLC5        0.0000 
     19 CA         34.5920   67.0380    9.5600 C.3       3 GLL5        0.0000 
     20 CA         28.7555   68.8478    8.8095 C.3       1 GLC5        0.0000 
     21 CA         30.4290   69.4960    9.7690 C.3       3 GLL5        0.0000 
     22 CA         27.3130   70.5097    9.9120 C.3       1 GLC5        0.0000 
     23 CA         29.4370   70.0470   10.4890 C.3       3 GLL5        0.0000 
     24 CA         25.3350   70.3040    9.3820 C.3       2 GLP5        0.0000 
@<TRIPOS>BOND
@<TRIPOS>SUBSTRUCTURE
     1 GLC5        1 GROUP        1 X    GLC  0     ROOT GLC X 6
     2 GLP5        3 GROUP        1 Y    GLP  0     ROOT GLP Y 13
     3 GLL5        2 GROUP        1 Z    GLL  0     ROOT GLL Z 20
@<TRIPOS>SET

