#    Name: 1dx4_760_1_ligand
#    Modification time : Mon Mar 24 22:30:49 2014

@<TRIPOS>MOLECULE
1dx4_760_1_ligand
   42    45     1     0     0
SMALL
NO_CHARGES


@<TRIPOS>ATOM
      1 C1         31.1460   64.5180    9.7270 C.3       1 7601580     0.0000 
      2 C2         30.1860   64.6930    8.5380 C.3       1 7601580     0.0000 
      3 C3         29.8240   65.9930    8.5630 C.3       1 7601580     0.0000 
      4 C4         31.1050   66.9730    8.2850 C.3       1 7601580     0.0000 
      5 C5         33.6260   67.6310    8.3310 C.ar      1 7601580     0.0000 
      6 C6         35.8070   67.7410   10.0320 C.ar      1 7601580     0.0000 
      7 C7         36.8770   67.3910   11.0000 C.ar      1 7601580     0.0000 
      8 C8         36.7840   66.1440   11.6210 C.ar      1 7601580     0.0000 
      9 C9         35.6820   65.2880   11.3410 C.ar      1 7601580     0.0000 
     10 N10        33.4990   64.7250   10.2710 N.ar      1 7601580     0.0000 
     11 C11        32.6230   65.2610    9.6370 C.ar      1 7601580     0.0000 
     12 C12        32.5700   66.5480    8.8400 C.ar      1 7601580     0.0000 
     13 C13        34.5920   67.0380    9.5600 C.ar      1 7601580     0.0000 
     14 C14        34.5290   65.6200   10.3650 C.ar      1 7601580     0.0000 
     15 N15        33.5960   69.0700    8.2780 N.pl3     1 7601580     0.0000 
     16 C17        32.3820   69.8410    7.9060 C.3       1 7601580     0.0000 
     17 C18        31.2000   70.3000    8.8920 C.ar      1 7601580     0.0000 
     18 C19        30.4290   69.4960    9.7690 C.ar      1 7601580     0.0000 
     19 C20        29.4370   70.0470   10.4890 C.ar      1 7601580     0.0000 
     20 C21        29.1450   71.3840   10.3950 C.ar      1 7601580     0.0000 
     21 C22        29.8930   72.2010    9.5560 C.ar      1 7601580     0.0000 
     22 C23        30.9440   71.6820    8.7780 C.ar      1 7601580     0.0000 
     23 H          31.3592   63.4459    9.8927 H         1 7601580     0.0000 
     24 H          30.6779   64.8928   10.6558 H         1 7601580     0.0000 
     25 H          29.3656   63.9955    8.6951 H         1 7601580     0.0000 
     26 H          30.7368   64.3975    7.6472 H         1 7601580     0.0000 
     27 H          29.4252   66.3509    9.5296 H         1 7601580     0.0000 
     28 H          29.0929   66.2918    7.7900 H         1 7601580     0.0000 
     29 H          30.8579   67.9660    8.7063 H         1 7601580     0.0000 
     30 H          31.1839   67.1095    7.1897 H         1 7601580     0.0000 
     31 H          35.9471   68.7299    9.5690 H         1 7601580     0.0000 
     32 H          37.6050   68.0406   11.1686 H         1 7601580     0.0000 
     33 H          37.5023   65.8343   12.2796 H         1 7601580     0.0000 
     34 H          35.6026   64.3638   11.8007 H         1 7601580     0.0000 
     35 H          34.4430   69.6043    8.5045 H         1 7601580     0.0000 
     36 H          31.8421   69.2998    7.0331 H         1 7601580     0.0000 
     37 H          32.7031   70.8135    7.3606 H         1 7601580     0.0000 
     38 H          30.6555   68.4909    9.8311 H         1 7601580     0.0000 
     39 H          28.8677   69.4533   11.1391 H         1 7601580     0.0000 
     40 H          28.3719   71.7905   10.9437 H         1 7601580     0.0000 
     41 H          29.6787   73.2116    9.4970 H         1 7601580     0.0000 
     42 H          31.4855   72.2651    8.1716 H         1 7601580     0.0000 
@<TRIPOS>BOND
     1    2    1 1    
     2   11    1 1    
     3   23    1 1    
     4   24    1 1    
     5    3    2 1    
     6   25    2 1    
     7   26    2 1    
     8    4    3 1    
     9   27    3 1    
    10   28    3 1    
    11   12    4 1    
    12   29    4 1    
    13   30    4 1    
    14   12    5 ar   
    15   13    5 ar   
    16   15    5 1    
    17    7    6 ar   
    18   13    6 ar   
    19   31    6 1    
    20    8    7 ar   
    21   32    7 1    
    22    9    8 ar   
    23   33    8 1    
    24   14    9 ar   
    25   34    9 1    
    26   11   10 ar   
    27   14   10 ar   
    28   12   11 ar   
    29   14   13 ar   
    30   16   15 1    
    31   35   15 1    
    32   17   16 1    
    33   36   16 1    
    34   37   16 1    
    35   18   17 ar   
    36   22   17 ar   
    37   19   18 ar   
    38   38   18 1    
    39   20   19 ar   
    40   39   19 1    
    41   21   20 ar   
    42   40   20 1    
    43   22   21 ar   
    44   41   21 1    
    45   42   22 1    
@<TRIPOS>SUBSTRUCTURE
     1 7601580     1 GROUP   
@<TRIPOS>SET

