#    Name: 1YP3_2_CAVITY_N1_6.mol2
#    Modification time : Mon Mar 10 21:07:21 2014

@<TRIPOS>MOLECULE
1YP3_2_CAVITY_N1_6.mol2
  110     0     6     0     0
SMALL
NO_CHARGES


@<TRIPOS>ATOM
      1 CA         -1.8799  -10.7421   60.5748 C.3       5 GLY6        0.0000 
      2 DU         -3.1541  -10.6420   61.3600 H         6 CUB7        0.0000 
      3 CA         -0.7733  -12.3304   59.7073 C.3       5 GLY6        0.0000 
      4 CA         -2.0475  -12.2304   60.4925 C.3       5 GLY6        0.0000 
      5 DU         -3.3217  -12.1303   61.2777 H         6 CUB7        0.0000 
      6 DU         -4.5958  -12.0303   62.0629 H         6 CUB7        0.0000 
      7 CA         -0.9409  -13.8188   59.6250 C.3       5 GLY6        0.0000 
      8 CA         -2.2151  -13.7187   60.4102 C.3       5 GLY6        0.0000 
      9 DU         -3.4893  -13.6187   61.1954 H         6 CUB7        0.0000 
     10 DU         -4.7634  -13.5186   61.9806 H         6 CUB7        0.0000 
     11 CA         -2.3827  -15.2071   60.3279 C.3       5 GLY6        0.0000 
     12 DU         -3.6569  -15.1070   61.1131 H         6 CUB7        0.0000 
     13 DU         -4.9310  -15.0070   61.8983 H         6 CUB7        0.0000 
     14 DU         -6.2052  -14.9069   62.6834 H         6 CUB7        0.0000 
     15 O          -2.5503  -16.6954   60.2456 O.2       2 ALA2        0.0000 
     16 DU         -3.8245  -16.5953   61.0307 H         6 CUB7        0.0000 
     17 DU         -5.0986  -16.4953   61.8159 H         6 CUB7        0.0000 
     18 DU         -6.3728  -16.3952   62.6011 H         6 CUB7        0.0000 
     19 DU         -7.6469  -16.2952   63.3863 H         6 CUB7        0.0000 
     20 O          -2.7179  -18.1837   60.1632 O.2       2 ALA2        0.0000 
     21 DU         -3.9921  -18.0837   60.9484 H         6 CUB7        0.0000 
     22 DU         -5.2662  -17.9836   61.7336 H         6 CUB7        0.0000 
     23 DU         -6.5404  -17.8836   62.5188 H         6 CUB7        0.0000 
     24 N          -7.8145  -17.7835   63.3040 N.2       2 ALA2        0.0000 
     25 N          -4.1597  -19.5720   60.8661 N.2       2 ALA2        0.0000 
     26 CZ         -5.4338  -19.4720   61.6513 C.ar      4 PHE5        0.0000 
     27 CA         -1.1063  -10.8997   61.8503 C.3       5 GLY6        0.0000 
     28 NZ         -2.3805  -10.7997   62.6355 N.2       3 LYS4        0.0000 
     29 NZ         -2.5481  -12.2880   62.5531 N.2       3 LYS4        0.0000 
     30 NZ         -3.8222  -12.1880   63.3383 N.2       3 LYS4        0.0000 
     31 N          -2.7157  -13.7763   62.4708 N.2       2 ALA2        0.0000 
     32 N          -3.9898  -13.6763   63.2560 N.2       2 ALA2        0.0000 
     33 NZ         -5.2640  -13.5762   64.0412 N.2       3 LYS4        0.0000 
     34 N          -2.8833  -15.2647   62.3885 N.2       2 ALA2        0.0000 
     35 N          -4.1574  -15.1646   63.1737 N.2       2 ALA2        0.0000 
     36 NZ         -5.4316  -15.0646   63.9589 N.2       3 LYS4        0.0000 
     37 N          -1.7767  -16.8531   61.5210 N.2       2 ALA2        0.0000 
     38 N          -3.0509  -16.7530   62.3062 N.2       2 ALA2        0.0000 
     39 NZ         -4.3250  -16.6530   63.0914 N.2       3 LYS4        0.0000 
     40 NZ         -5.5992  -16.5529   63.8765 N.2       3 LYS4        0.0000 
     41 CA         -1.9443  -18.3414   61.4387 C.3       5 GLY6        0.0000 
     42 CZ         -3.2185  -18.2413   62.2238 C.ar      4 PHE5        0.0000 
     43 NZ         -4.4926  -18.1413   63.0090 N.2       3 LYS4        0.0000 
     44 NZ         -5.7668  -18.0412   63.7942 N.2       3 LYS4        0.0000 
     45 CZ         -3.3861  -19.7297   62.1415 C.ar      4 PHE5        0.0000 
     46 CZ         -4.6602  -19.6296   62.9267 C.ar      4 PHE5        0.0000 
     47 CA         -2.3205  -12.0151   57.1565 C.3       5 GLY6        0.0000 
     48 CA         -3.5947  -11.9151   57.9417 C.3       5 GLY6        0.0000 
     49 CA         -4.8688  -11.8150   58.7269 C.3       5 GLY6        0.0000 
     50 CA         -6.1430  -11.7150   59.5121 C.3       5 GLY6        0.0000 
     51 OG         -2.4881  -13.5035   57.0742 O.2       1 SER1        0.0000 
     52 CA         -3.7623  -13.4034   57.8594 C.3       5 GLY6        0.0000 
     53 DU         -5.0364  -13.3034   58.6445 H         6 CUB7        0.0000 
     54 DU         -6.3106  -13.2033   59.4297 H         6 CUB7        0.0000 
     55 OG         -3.9299  -14.8917   57.7770 O.2       1 SER1        0.0000 
     56 DU         -5.2040  -14.7917   58.5622 H         6 CUB7        0.0000 
     57 OG         -4.0975  -16.3801   57.6947 O.2       1 SER1        0.0000 
     58 DU         -5.3716  -16.2800   58.4799 H         6 CUB7        0.0000 
     59 DU         -6.6458  -16.1800   59.2651 H         6 CUB7        0.0000 
     60 DU         -7.9199  -16.0799   60.0503 H         6 CUB7        0.0000 
     61 OG         -4.2651  -17.8684   57.6124 O.2       1 SER1        0.0000 
     62 OG         -5.5392  -17.7684   58.3976 O.2       1 SER1        0.0000 
     63 NZ         -6.8134  -17.6683   59.1828 N.2       3 LYS4        0.0000 
     64 NZ         -8.0875  -17.5683   59.9679 N.2       3 LYS4        0.0000 
     65 NZ         -9.3617  -17.4682   60.7531 N.2       3 LYS4        0.0000 
     66 OG         -5.7068  -19.2567   58.3153 O.2       1 SER1        0.0000 
     67 O          -6.9810  -19.1566   59.1004 O.2       2 ALA2        0.0000 
     68 CA         -6.9166  -11.5573   58.2366 C.3       5 GLY6        0.0000 
     69 O          -4.5359  -13.2458   56.5839 O.2       2 ALA2        0.0000 
     70 CA         -5.8100  -13.1457   57.3691 C.3       5 GLY6        0.0000 
     71 DU         -7.0842  -13.0456   58.1543 H         6 CUB7        0.0000 
     72 DU         -8.3583  -12.9456   58.9395 H         6 CUB7        0.0000 
     73 CA         -4.7035  -14.7341   56.5016 C.3       5 GLY6        0.0000 
     74 O          -5.9776  -14.6340   57.2868 O.2       2 ALA2        0.0000 
     75 DU         -7.2518  -14.5340   58.0720 H         6 CUB7        0.0000 
     76 DU         -8.5259  -14.4339   58.8572 H         6 CUB7        0.0000 
     77 CA         -4.8711  -16.2224   56.4193 C.3       5 GLY6        0.0000 
     78 O          -6.1452  -16.1224   57.2045 O.2       2 ALA2        0.0000 
     79 CA         -7.4194  -16.0223   57.9897 C.3       5 GLY6        0.0000 
     80 NZ         -8.6935  -15.9223   58.7749 N.2       3 LYS4        0.0000 
     81 OG         -5.0387  -17.7107   56.3370 O.2       1 SER1        0.0000 
     82 NZ         -6.3128  -17.6107   57.1222 N.2       3 LYS4        0.0000 
     83 NZ         -7.5870  -17.5106   57.9073 N.2       3 LYS4        0.0000 
     84 NZ         -8.8611  -17.4106   58.6925 N.2       3 LYS4        0.0000 
     85 NZ         -6.4804  -19.0990   57.0398 N.2       3 LYS4        0.0000 
     86 CA         -6.5836  -12.9880   56.0937 C.3       5 GLY6        0.0000 
     87 OG         -7.8578  -12.8880   56.8789 O.2       1 SER1        0.0000 
     88 O          -6.7512  -14.4764   56.0114 O.2       2 ALA2        0.0000 
     89 OG         -8.0254  -14.3763   56.7966 O.2       1 SER1        0.0000 
     90 CA         -2.6535  -10.5844   59.2994 C.3       5 GLY6        0.0000 
     91 CA         -3.9276  -10.4844   60.0846 C.3       5 GLY6        0.0000 
     92 CA         -1.5469  -12.1728   58.4319 C.3       5 GLY6        0.0000 
     93 CA         -2.8211  -12.0727   59.2171 C.3       5 GLY6        0.0000 
     94 CA         -4.0952  -11.9727   60.0023 C.3       5 GLY6        0.0000 
     95 DU         -5.3694  -11.8726   60.7875 H         6 CUB7        0.0000 
     96 OG         -0.4404  -13.7612   57.5644 O.2       1 SER1        0.0000 
     97 OG         -1.7145  -13.6611   58.3496 O.2       1 SER1        0.0000 
     98 DU         -2.9887  -13.5611   59.1348 H         6 CUB7        0.0000 
     99 DU         -4.2628  -13.4610   59.9200 H         6 CUB7        0.0000 
    100 OG         -1.8821  -15.1495   58.2673 O.2       1 SER1        0.0000 
    101 OG         -3.1563  -15.0494   59.0525 O.2       1 SER1        0.0000 
    102 O          -3.3239  -16.5377   58.9701 O.2       2 ALA2        0.0000 
    103 DU         -4.5980  -16.4377   59.7553 H         6 CUB7        0.0000 
    104 OG         -3.4915  -18.0261   58.8878 O.2       1 SER1        0.0000 
    105 OG         -4.7656  -17.9260   59.6730 O.2       1 SER1        0.0000 
    106 DU         -6.0398  -17.8260   60.4582 H         6 CUB7        0.0000 
    107 DU         -7.3140  -17.7259   61.2434 H         6 CUB7        0.0000 
    108 N          -4.9332  -19.4143   59.5907 N.2       2 ALA2        0.0000 
    109 O          -6.2074  -19.3143   60.3759 O.2       2 ALA2        0.0000 
    110 N          -7.4816  -19.2142   61.1610 N.2       2 ALA2        0.0000 
@<TRIPOS>BOND
@<TRIPOS>SUBSTRUCTURE
     1 SER1       51 GROUP   
     2 ALA2       15 GROUP   
     3 LYS4       28 GROUP   
     4 PHE5       26 GROUP   
     5 GLY6        1 GROUP   
     6 CUB7        2 GROUP   
@<TRIPOS>SET

