#    Name: 1yp3_ATP_2_INTS_M
#    Modification time : Tue Mar 25 11:12:24 2014

@<TRIPOS>MOLECULE
1yp3_ATP_2_INTS_M
   54     0     9     0     0
SMALL
NO_CHARGES


@<TRIPOS>ATOM
      1 N          -5.2090  -11.4150   55.4460 N.am      2 SEC2        0.0000 
      2 N          -6.1770  -12.7920   55.6740 N.am      8 SEL2        0.0000 
      3 N          -4.2410  -10.0380   55.2180 N.am      5 SEP2        0.0000 
      4 N          -5.1985  -13.3060   54.6350 N.am      2 SEC2        0.0000 
      5 N          -4.2200  -13.8200   53.5960 N.am      5 SEP2        0.0000 
      6 N          -4.1030  -11.4660   56.0390 N.am      2 SEC2        0.0000 
      7 N          -3.9650  -12.8940   56.8600 N.am      8 SEL2        0.0000 
      8 N          -4.0925  -13.3570   55.2280 N.am      2 SEC2        0.0000 
      9 CA         -1.1305   -9.7780   60.5070 C.3       3 GLC5        0.0000 
     10 CA         -2.6820  -11.1310   61.2630 C.3       9 GLL5        0.0000 
     11 CA          0.4210   -8.4250   59.7510 C.3       6 GLP5        0.0000 
     12 N           0.1895  -10.9175   63.3890 N.am      2 SEC2        0.0000 
     13 N          -1.3710  -11.0810   63.2040 N.am      8 SEL2        0.0000 
     14 N           1.7500  -10.7540   63.5740 N.am      5 SEP2        0.0000 
     15 O          -1.3130  -11.7150   64.3345 O.2       1 ALC1        0.0000 
     16 O          -1.3710  -11.0810   63.2040 O.2       7 ALL1        0.0000 
     17 O          -1.2550  -12.3490   65.4650 O.2       4 ALP1        0.0000 
     18 N          -3.0830   -8.8835   65.5105 N.am      2 SEC2        0.0000 
     19 N          -3.1970   -8.9310   64.1360 N.am      8 SEL2        0.0000 
     20 N          -2.9690   -8.8360   66.8850 N.am      5 SEP2        0.0000 
     21 CA         -1.1915   -8.6465   60.7485 C.3       3 GLC5        0.0000 
     22 CA         -2.8040   -8.8680   61.7460 C.3       9 GLL5        0.0000 
     23 CA         -3.1630   -4.3300   57.5625 C.3       3 GLC5        0.0000 
     24 CA         -3.9370   -4.6780   59.4570 C.3       9 GLL5        0.0000 
     25 CA         -2.3890   -3.9820   55.6680 C.3       6 GLP5        0.0000 
     26 O          -4.7340   -2.7100   58.2060 O.2       1 ALC1        0.0000 
     27 O          -4.8210   -3.8420   58.9340 O.2       7 ALL1        0.0000 
     28 O          -4.6470   -1.5780   57.4780 O.2       4 ALP1        0.0000 
     29 CA         -0.1165   -6.1995   60.1835 C.3       3 GLC5        0.0000 
     30 CA         -1.5770   -4.9680   59.9180 C.3       9 GLL5        0.0000 
     31 CA          1.3440   -7.4310   60.4490 C.3       6 GLP5        0.0000 
     32 CA         -2.1600   -5.2685   61.8495 C.3       3 GLC5        0.0000 
     33 CA         -2.7430   -5.5690   63.7810 C.3       6 GLP5        0.0000 
     34 CA          0.0835   -4.2675   59.2085 C.3       3 GLC5        0.0000 
     35 CA          1.7440   -3.5670   58.4990 C.3       6 GLP5        0.0000 
     36 CA         -0.9925   -3.2580   60.9305 C.3       3 GLC5        0.0000 
     37 CA         -0.4080   -1.5480   61.9430 C.3       6 GLP5        0.0000 
     38 CA         -1.9830   -4.4750   57.7930 C.3       3 GLC5        0.0000 
     39 N          -1.5830   -5.8550   61.9585 N.am      2 SEC2        0.0000 
     40 N          -1.8230   -6.1900   60.5030 N.am      8 SEL2        0.0000 
     41 N          -1.3430   -5.5200   63.4140 N.am      5 SEP2        0.0000 
     42 CA         -1.3465   -7.5415   60.1600 C.3       3 GLC5        0.0000 
     43 CA         -3.1140   -6.6580   60.5690 C.3       9 GLL5        0.0000 
     44 CA         -3.8718  -10.5060   59.2812 C.3       3 GLC5        0.0000 
     45 CA         -4.4650   -9.4820   57.5460 C.3       6 GLP5        0.0000 
     46 CA         -0.9462  -12.1668   61.9735 C.3       3 GLC5        0.0000 
     47 CA          0.8100  -13.2790   61.9380 C.3       6 GLP5        0.0000 
     48 CA         -2.9150   -7.4038   63.0610 C.3       3 GLC5        0.0000 
     49 CA         -3.3700   -9.6090   62.9360 C.3       9 GLL5        0.0000 
     50 CA         -3.2027   -5.9343   62.0472 C.3       3 GLC5        0.0000 
     51 CA         -4.9730   -4.5452   61.2477 C.3       3 GLC5        0.0000 
     52 CA         -4.2110   -5.9410   60.0580 C.3       9 GLL5        0.0000 
     53 CA         -5.8720   -3.7810   62.7380 C.3       6 GLP5        0.0000 
     54 CA         -4.0637   -7.8907   58.9297 C.3       3 GLC5        0.0000 
@<TRIPOS>BOND
@<TRIPOS>SUBSTRUCTURE
     1 ALC1       15 GROUP        1 X    ALC  0     ROOT ALC X 1
     2 SEC2        1 GROUP        1 X    SEC  0     **** SEC X 2
     3 GLC5        9 GROUP        1 X    GLC  0     **** GLC X 6
     4 ALP1       17 GROUP        1 Y    ALP  0     ROOT ALP Y 8
     5 SEP2        3 GROUP        1 Y    SEP  0     **** SEP Y 9
     6 GLP5       11 GROUP        1 Y    GLP  0     **** GLP Y 13
     7 ALL1       16 GROUP        1 Z    ALL  0     ROOT ALL Z 15
     8 SEL2        2 GROUP        1 Z    SEL  0     **** SEL Z 16
     9 GLL5       10 GROUP        1 Z    GLL  0     **** GLL Z 20
@<TRIPOS>SET

