#    Name: 1yp3_ATP_2_ligand
#    Modification time : Tue Mar 25 11:12:24 2014

@<TRIPOS>MOLECULE
1yp3_ATP_2_ligand
   42    44     1     0     0
SMALL
NO_CHARGES


@<TRIPOS>ATOM
      1 PG         -5.4950  -13.0840   56.9610 P.3       1 ATP758      0.0000 
      2 O1G        -6.1770  -12.7920   55.6740 O.co2     1 ATP758      0.0000 
      3 O2G        -3.9650  -12.8940   56.8600 O.co2     1 ATP758      0.0000 
      4 O3G        -6.0910  -12.1640   58.0400 O.co2     1 ATP758      0.0000 
      5 PB         -5.7680  -15.1630   58.8690 P.3       1 ATP758      0.0000 
      6 O1B        -6.2110  -16.5780   58.8050 O.co2     1 ATP758      0.0000 
      7 O2B        -6.5330  -14.3060   59.8840 O.co2     1 ATP758      0.0000 
      8 O3B        -5.8660  -14.5940   57.3940 O.3       1 ATP758      0.0000 
      9 PA         -3.3560  -14.4550   60.3450 P.3       1 ATP758      0.0000 
     10 O1A        -4.0910  -14.6510   61.6270 O.co2     1 ATP758      0.0000 
     11 O2A        -1.9380  -15.0080   60.4000 O.co2     1 ATP758      0.0000 
     12 O3A        -4.1830  -15.1760   59.1760 O.3       1 ATP758      0.0000 
     13 O5'        -3.3910  -12.9180   59.9060 O.3       1 ATP758      0.0000 
     14 C5'        -3.8750  -11.9290   60.7700 C.3       1 ATP758      0.0000 
     15 C4'        -2.6820  -11.1310   61.2630 C.3       1 ATP758      0.0000 
     16 O4'        -2.7290   -9.8390   60.7040 O.3       1 ATP758      0.0000 
     17 C3'        -2.7230  -10.9780   62.7550 C.3       1 ATP758      0.0000 
     18 O3'        -1.3710  -11.0810   63.2040 O.3       1 ATP758      0.0000 
     19 C2'        -3.3700   -9.6090   62.9360 C.3       1 ATP758      0.0000 
     20 O2'        -3.1970   -8.9310   64.1360 O.3       1 ATP758      0.0000 
     21 C1'        -2.8040   -8.8680   61.7460 C.3       1 ATP758      0.0000 
     22 N9         -3.5920   -7.8020   61.0890 N.pl3     1 ATP758      0.0000 
     23 C8         -4.9500   -7.8340   60.9240 C.2       1 ATP758      0.0000 
     24 N7         -5.2950   -6.7280   60.3130 N.2       1 ATP758      0.0000 
     25 C5         -4.2110   -5.9410   60.0580 C.ar      1 ATP758      0.0000 
     26 C6         -3.9370   -4.6780   59.4570 C.ar      1 ATP758      0.0000 
     27 N6         -4.8210   -3.8420   58.9340 N.pl3     1 ATP758      0.0000 
     28 N1         -2.6210   -4.2250   59.4030 N.ar      1 ATP758      0.0000 
     29 C2         -1.5770   -4.9680   59.9180 C.ar      1 ATP758      0.0000 
     30 N3         -1.8230   -6.1900   60.5030 N.ar      1 ATP758      0.0000 
     31 C4         -3.1140   -6.6580   60.5690 C.ar      1 ATP758      0.0000 
     32 H          -4.3803  -12.3462   61.6432 H         1 ATP758      0.0000 
     33 H          -4.5568  -11.2360   60.2734 H         1 ATP758      0.0000 
     34 H          -1.7830  -11.6462   60.9893 H         1 ATP758      0.0000 
     35 H          -3.3619  -11.7241   63.1408 H         1 ATP758      0.0000 
     36 H          -4.4441   -9.7597   62.6759 H         1 ATP758      0.0000 
     37 H          -1.8106   -8.5252   61.9555 H         1 ATP758      0.0000 
     38 H          -5.5180   -8.5550   61.2164 H         1 ATP758      0.0000 
     39 H          -0.6118   -4.6053   59.8635 H         1 ATP758      0.0000 
     40 H          -1.3407  -11.9232   63.7423 H         1 ATP758      0.0000 
     41 H          -3.8363   -8.1633   64.0939 H         1 ATP758      0.0000 
     42 H          -4.2747   -3.1473   58.4661 H         1 ATP758      0.0000 
@<TRIPOS>BOND
     1    2    1 ar   
     2    3    1 ar   
     3    4    1 ar   
     4    8    1 1    
     5    6    5 ar   
     6    7    5 ar   
     7    8    5 1    
     8   12    5 1    
     9   10    9 ar   
    10   11    9 ar   
    11   12    9 1    
    12   13    9 1    
    13   14   13 1    
    14   15   14 1    
    15   32   14 1    
    16   33   14 1    
    17   16   15 1    
    18   17   15 1    
    19   34   15 1    
    20   21   16 1    
    21   18   17 1    
    22   19   17 1    
    23   35   17 1    
    24   40   18 1    
    25   20   19 1    
    26   21   19 1    
    27   36   19 1    
    28   41   20 1    
    29   22   21 1    
    30   37   21 1    
    31   23   22 1    
    32   31   22 1    
    33   24   23 2    
    34   38   23 1    
    35   25   24 1    
    36   26   25 ar   
    37   31   25 ar   
    38   27   26 1    
    39   28   26 ar   
    40   42   27 1    
    41   29   28 ar   
    42   30   29 ar   
    43   39   29 1    
    44   31   30 ar   
@<TRIPOS>SUBSTRUCTURE
     1 ATP758      1 GROUP   
@<TRIPOS>SET

