#    Name: 2oor_TXP_1_INTS_M
#    Modification time : Mon Mar 24 17:43:15 2014

@<TRIPOS>MOLECULE
2oor_TXP_1_INTS_M
  122     0    12     0     0
SMALL
NO_CHARGES


@<TRIPOS>ATOM
      1 N         -24.4260  -31.9100    8.5310 N.am      2 SEC2        0.0000 
      2 N         -25.6840  -32.4860    9.1640 N.am     10 SEL2        0.0000 
      3 N         -23.1680  -31.3340    7.8980 N.am      6 SEP2        0.0000 
      4 N         -24.9950  -31.8065   10.3385 N.am      2 SEC2        0.0000 
      5 N         -24.3060  -31.1270   11.5130 N.am      6 SEP2        0.0000 
      6 N         -27.8655  -33.8740    6.4820 N.am      2 SEC2        0.0000 
      7 N         -27.4750  -33.7370    7.7940 N.am     10 SEL2        0.0000 
      8 N         -28.2560  -34.0110    5.1700 N.am      6 SEP2        0.0000 
      9 N         -29.0515  -34.2035    8.1775 N.am      2 SEC2        0.0000 
     10 N         -30.6280  -34.6700    8.5610 N.am      6 SEP2        0.0000 
     11 O         -27.8765  -38.5600   10.7560 O.2       1 ALC1        0.0000 
     12 O         -27.8880  -37.8740   11.9580 O.2       9 ALL1        0.0000 
     13 O         -27.8650  -39.2460    9.5540 O.2       5 ALP1        0.0000 
     14 N         -28.9850  -37.1275   15.7240 N.am      2 SEC2        0.0000 
     15 N         -27.9360  -37.2880   14.5620 N.am     10 SEL2        0.0000 
     16 N         -30.0340  -36.9670   16.8860 N.am      6 SEP2        0.0000 
     17 O         -27.8860  -37.1310   15.9550 O.2       1 ALC1        0.0000 
     18 O         -27.9360  -37.2880   14.5620 O.2       9 ALL1        0.0000 
     19 O         -27.8360  -36.9740   17.3480 O.2       5 ALP1        0.0000 
     20 CA        -25.2855  -38.8630   13.4890 C.3       4 GLC5        0.0000 
     21 CA        -25.6090  -36.9980   13.8020 C.3      12 GLL5        0.0000 
     22 CA        -24.9620  -40.7280   13.1760 C.3       8 GLP5        0.0000 
     23 CA        -23.7755  -39.3765   15.2845 C.3       4 GLC5        0.0000 
     24 CA        -24.3130  -37.5690   15.8040 C.3      12 GLL5        0.0000 
     25 CA        -23.2380  -41.1840   14.7650 C.3       8 GLP5        0.0000 
     26 CA        -21.9755  -36.7135   14.8545 C.3       4 GLC5        0.0000 
     27 CA        -23.1590  -37.0150   16.6300 C.3      12 GLL5        0.0000 
     28 CA        -20.7920  -36.4120   13.0790 C.3       8 GLP5        0.0000 
     29 O         -25.7065  -32.6390   14.6755 O.2       1 ALC1        0.0000 
     30 O         -24.5520  -32.4510   15.7620 O.2       9 ALL1        0.0000 
     31 O         -26.8610  -32.8270   13.5890 O.2       5 ALP1        0.0000 
     32 O         -23.6695  -31.0440   16.2545 O.2       1 ALC1        0.0000 
     33 O         -22.7870  -29.6370   16.7470 O.2       5 ALP1        0.0000 
     34 N         -28.0485  -36.4460    7.0505 N.am      2 SEC2        0.0000 
     35 N         -26.7300  -36.5220    7.3360 N.am     10 SEL2        0.0000 
     36 N         -29.3670  -36.3700    6.7650 N.am      6 SEP2        0.0000 
     37 NZ        -23.5015  -36.7380    9.6155 N.4       3 LYC4        0.0000 
     38 NZ        -24.5660  -37.2370    8.5190 N.4      11 LYL4        0.0000 
     39 NZ        -21.5610  -37.2350   10.8620 N.4       7 LYP4        0.0000 
     40 N         -23.5015  -36.7380    9.6155 N.am      2 SEC2        0.0000 
     41 N         -24.5660  -37.2370    8.5190 N.am     10 SEL2        0.0000 
     42 N         -22.4370  -36.2390   10.7120 N.am      6 SEP2        0.0000 
     43 N         -24.6655  -38.6205    8.5185 N.am      2 SEC2        0.0000 
     44 N         -24.7650  -40.0040    8.5180 N.am      6 SEP2        0.0000 
     45 CA        -22.9785  -34.2420    7.0375 C.3       4 GLC5        0.0000 
     46 CA        -24.1340  -35.1930    5.4810 C.3      12 GLL5        0.0000 
     47 CA        -21.8230  -33.2910    8.5940 C.3       8 GLP5        0.0000 
     48 CA        -25.5435  -33.5770    5.2675 C.3       4 GLC5        0.0000 
     49 CA        -26.9530  -31.9610    5.0540 C.3       8 GLP5        0.0000 
     50 CA        -24.1435  -38.3895    5.0360 C.3       4 GLC5        0.0000 
     51 CA        -23.0670  -36.9710    3.9200 C.3      12 GLL5        0.0000 
     52 CA        -25.2200  -39.8080    6.1520 C.3       8 GLP5        0.0000 
     53 CA        -21.2045  -33.5670    3.5750 C.3       4 GLC5        0.0000 
     54 CA        -21.8000  -35.3380    2.6790 C.3      12 GLL5        0.0000 
     55 CA        -20.6090  -31.7960    4.4710 C.3       8 GLP5        0.0000 
     56 N         -23.4400  -38.2750    0.6320 N.am      2 SEC2        0.0000 
     57 N         -22.2880  -37.5230    1.6610 N.am     10 SEL2        0.0000 
     58 N         -24.5920  -39.0270   -0.3970 N.am      6 SEP2        0.0000 
     59 NZ        -18.5500  -37.9565    1.5045 N.4       3 LYC4        0.0000 
     60 NZ        -20.0700  -38.4640    1.1490 N.4      11 LYL4        0.0000 
     61 NZ        -16.5360  -36.8030    0.8060 N.4       7 LYP4        0.0000 
     62 N         -18.5500  -37.9565    1.5045 N.am      2 SEC2        0.0000 
     63 N         -20.0700  -38.4640    1.1490 N.am     10 SEL2        0.0000 
     64 N         -17.0300  -37.4490    1.8600 N.am      6 SEP2        0.0000 
     65 N         -21.0695  -35.8500   -1.2780 N.am      2 SEC2        0.0000 
     66 N         -20.9710  -36.4570   -0.1610 N.am     10 SEL2        0.0000 
     67 N         -21.1680  -35.2430   -2.3950 N.am      6 SEP2        0.0000 
     68 NZ        -23.2830  -38.8885   -0.4310 N.4       3 LYC4        0.0000 
     69 NZ        -21.9740  -38.7500   -0.4650 N.4      11 LYL4        0.0000 
     70 NZ        -24.5920  -39.0270   -0.3970 N.4       7 LYP4        0.0000 
     71 N         -23.2830  -38.8885   -0.4310 N.am      2 SEC2        0.0000 
     72 N         -21.9740  -38.7500   -0.4650 N.am     10 SEL2        0.0000 
     73 N         -21.6795  -38.3365   -1.9585 N.am      2 SEC2        0.0000 
     74 N         -21.3850  -37.9230   -3.4520 N.am      6 SEP2        0.0000 
     75 N         -21.4460  -39.6935   -1.3670 N.am      2 SEC2        0.0000 
     76 N         -20.9180  -40.6370   -2.2690 N.am      6 SEP2        0.0000 
     77 CA        -19.0750  -34.4110   -0.1140 C.3       4 GLC5        0.0000 
     78 CA        -19.9930  -33.8730    1.7960 C.3      12 GLL5        0.0000 
     79 CA        -18.1570  -34.9490   -2.0240 C.3       8 GLP5        0.0000 
     80 CA        -20.3060  -31.9870    2.3245 C.3       4 GLC5        0.0000 
     81 CA        -20.0030  -32.1780    0.1780 C.3      12 GLL5        0.0000 
     82 CA        -21.5735  -33.0585   -0.7930 C.3       4 GLC5        0.0000 
     83 CA        -23.1440  -33.9390   -1.7640 C.3       8 GLP5        0.0000 
     84 CA        -19.0800  -33.5635   -0.9230 C.3       4 GLC5        0.0000 
     85 CA        -18.6555  -31.6570   -1.4545 C.3       4 GLC5        0.0000 
     86 CA        -17.3080  -31.1360   -3.0870 C.3       8 GLP5        0.0000 
     87 CA        -19.9580  -30.4245    0.1980 C.3       4 GLC5        0.0000 
     88 CA        -19.9130  -28.6710    0.2180 C.3       8 GLP5        0.0000 
     89 N         -18.5990  -30.8085   -0.6095 N.am      2 SEC2        0.0000 
     90 N         -18.6820  -31.9680    0.3490 N.am     10 SEL2        0.0000 
     91 N         -18.5160  -29.6490   -1.5680 N.am      6 SEP2        0.0000 
     92 CA        -17.2485  -30.8070    1.5275 C.3       4 GLC5        0.0000 
     93 CA        -17.9820  -32.7030    1.2480 C.3      12 GLL5        0.0000 
     94 CA        -16.5150  -28.9110    1.8070 C.3       8 GLP5        0.0000 
     95 O         -15.6415  -32.0250    0.1150 O.2       1 ALC1        0.0000 
     96 O         -16.6550  -32.5040    1.4330 O.2       9 ALL1        0.0000 
     97 O         -14.6280  -31.5460   -1.2030 O.2       5 ALP1        0.0000 
     98 CA        -28.0083  -36.9537   10.4715 C.3       4 GLC5        0.0000 
     99 CA        -26.0350  -36.3600   11.5870 C.3      12 GLL5        0.0000 
    100 CA        -29.3120  -37.4400    9.0080 C.3       8 GLP5        0.0000 
    101 CA        -25.5862  -38.0622   11.4335 C.3       4 GLC5        0.0000 
    102 CA        -27.3740  -36.5750   12.2830 C.3      12 GLL5        0.0000 
    103 CA        -24.4680  -39.6570   10.9320 C.3       8 GLP5        0.0000 
    104 CA        -28.3537  -35.1865   14.0678 C.3       4 GLC5        0.0000 
    105 CA        -29.4920  -33.8400   15.1130 C.3       8 GLP5        0.0000 
    106 CA        -26.3870  -34.1455   15.8463 C.3       4 GLC5        0.0000 
    107 CA        -24.1930  -34.7820   16.3520 C.3      12 GLL5        0.0000 
    108 CA        -28.3140  -33.2730   15.9130 C.3       8 GLP5        0.0000 
    109 CA        -22.7368  -34.3900   15.2081 C.3       4 GLC5        0.0000 
    110 CA        -24.7270  -35.2540   15.2070 C.3      12 GLL5        0.0000 
    111 CA        -21.1720  -33.5250   14.3890 C.3       8 GLP5        0.0000 
    112 CA        -25.8747  -35.7993    4.4800 C.3       4 GLC5        0.0000 
    113 CA        -27.8780  -36.2260    4.1740 C.3       8 GLP5        0.0000 
    114 CA        -23.0427  -36.0955    0.9925 C.3       4 GLC5        0.0000 
    115 CA        -21.9550  -36.8500    2.8850 C.3      12 GLL5        0.0000 
    116 CA        -24.2080  -36.0970   -0.7970 C.3       8 GLP5        0.0000 
    117 CA        -19.6291  -32.5171    3.0209 C.3       4 GLC5        0.0000 
    118 CA        -16.9400  -33.2157    3.1633 C.3       4 GLC5        0.0000 
    119 CA        -18.6400  -33.6740    1.9910 C.3      12 GLL5        0.0000 
    120 CA        -15.5690  -33.2430    4.7070 C.3       8 GLP5        0.0000 
    121 CA        -17.6380  -34.2927    0.2092 C.3       4 GLC5        0.0000 
    122 CA        -16.9650  -35.3970   -1.2010 C.3       8 GLP5        0.0000 
@<TRIPOS>BOND
@<TRIPOS>SUBSTRUCTURE
     1 ALC1       11 GROUP        1 X    ALC  0     ROOT ALC X 1
     2 SEC2        1 GROUP        1 X    SEC  0     **** SEC X 2
     3 LYC4       37 GROUP        1 X    LYC  0     **** LYC X 4
     4 GLC5       20 GROUP        1 X    GLC  0     **** GLC X 6
     5 ALP1       13 GROUP        1 Y    ALP  0     ROOT ALP Y 8
     6 SEP2        3 GROUP        1 Y    SEP  0     **** SEP Y 9
     7 LYP4       39 GROUP        1 Y    LYP  0     **** LYP Y 11
     8 GLP5       22 GROUP        1 Y    GLP  0     **** GLP Y 13
     9 ALL1       12 GROUP        1 Z    ALL  0     ROOT ALL Z 15
    10 SEL2        2 GROUP        1 Z    SEL  0     **** SEL Z 16
    11 LYL4       38 GROUP        1 Z    LYL  0     **** LYL Z 18
    12 GLL5       21 GROUP        1 Z    GLL  0     **** GLL Z 20
@<TRIPOS>SET

