#    Name: 2oor_TXP_1_ligand
#    Modification time : Mon Mar 24 17:43:15 2014

@<TRIPOS>MOLECULE
2oor_TXP_1_ligand
   77    81     1     0     0
SMALL
NO_CHARGES


@<TRIPOS>ATOM
      1 O2N       -25.6840  -32.4860    9.1640 O.co2     1 TXP400      0.0000 
      2 PN        -26.2910  -33.7960    8.7270 P.3       1 TXP400      0.0000 
      3 O1N       -27.4750  -33.7370    7.7940 O.co2     1 TXP400      0.0000 
      4 O5'A      -26.7550  -34.6200   10.0300 O.3       1 TXP400      0.0000 
      5 C5'A      -25.8170  -34.9560   11.0470 C.3       1 TXP400      0.0000 
      6 C4'A      -26.0350  -36.3600   11.5870 C.3       1 TXP400      0.0000 
      7 C3'A      -27.3740  -36.5750   12.2830 C.3       1 TXP400      0.0000 
      8 O3'A      -27.8880  -37.8740   11.9580 O.3       1 TXP400      0.0000 
      9 C2'A      -27.0570  -36.4910   13.7620 C.3       1 TXP400      0.0000 
     10 O2'A      -27.9360  -37.2880   14.5620 O.3       1 TXP400      0.0000 
     11 C1'A      -25.6090  -36.9980   13.8020 C.3       1 TXP400      0.0000 
     12 N1N       -24.8560  -36.4980   14.9630 N.4       1 TXP400      0.0000 
     13 C6N       -24.3130  -37.5690   15.8040 C.3       1 TXP400      0.0000 
     14 C5N       -23.1590  -37.0150   16.6300 C.2       1 TXP400      0.0000 
     15 C4N       -23.5590  -35.7300   17.3430 C.2       1 TXP400      0.0000 
     16 C3N       -24.1930  -34.7820   16.3520 C.3       1 TXP400      0.0000 
     17 C7N       -24.2590  -33.3570   16.6920 C.2       1 TXP400      0.0000 
     18 O7N       -24.0290  -32.9670   17.9360 O.2       1 TXP400      0.0000 
     19 N7N       -24.5520  -32.4510   15.7620 N.am      1 TXP400      0.0000 
     20 C2N       -24.7270  -35.2540   15.2070 C.3       1 TXP400      0.0000 
     21 O4'A      -25.0170  -36.5910   12.5630 O.3       1 TXP400      0.0000 
     22 O3        -25.1100  -34.7260    8.0940 O.3       1 TXP400      0.0000 
     23 PA        -25.2810  -36.2690    7.6180 P.3       1 TXP400      0.0000 
     24 O1A       -26.7300  -36.5220    7.3360 O.co2     1 TXP400      0.0000 
     25 O2A       -24.5660  -37.2370    8.5190 O.co2     1 TXP400      0.0000 
     26 O5'       -24.4920  -36.3510    6.2230 O.3       1 TXP400      0.0000 
     27 C5'       -24.1340  -35.1930    5.4810 C.3       1 TXP400      0.0000 
     28 C4'       -23.6090  -35.5520    4.0910 C.3       1 TXP400      0.0000 
     29 C3'       -23.0670  -36.9710    3.9200 C.3       1 TXP400      0.0000 
     30 O3'       -24.1080  -37.8690    3.5070 O.3       1 TXP400      0.0000 
     31 O4'       -22.5200  -34.6970    3.7360 O.3       1 TXP400      0.0000 
     32 C1'       -21.8000  -35.3380    2.6790 C.3       1 TXP400      0.0000 
     33 C2'       -21.9550  -36.8500    2.8850 C.3       1 TXP400      0.0000 
     34 O2'       -22.2880  -37.5230    1.6610 O.3       1 TXP400      0.0000 
     35 P2        -21.2360  -37.8070    0.4610 P.3       1 TXP400      0.0000 
     36 OP3       -20.0700  -38.4640    1.1490 O.co2     1 TXP400      0.0000 
     37 OP2       -20.9710  -36.4570   -0.1610 O.co2     1 TXP400      0.0000 
     38 OP1       -21.9740  -38.7500   -0.4650 O.co2     1 TXP400      0.0000 
     39 N9A       -20.3890  -34.8530    2.6160 N.pl3     1 TXP400      0.0000 
     40 C4A       -19.9930  -33.8730    1.7960 C.ar      1 TXP400      0.0000 
     41 N3A       -20.6560  -33.1120    0.8870 N.ar      1 TXP400      0.0000 
     42 C2A       -20.0030  -32.1780    0.1780 C.ar      1 TXP400      0.0000 
     43 N1A       -18.6820  -31.9680    0.3490 N.ar      1 TXP400      0.0000 
     44 C6A       -17.9820  -32.7030    1.2480 C.ar      1 TXP400      0.0000 
     45 N6A       -16.6550  -32.5040    1.4330 N.pl3     1 TXP400      0.0000 
     46 C5A       -18.6400  -33.6740    1.9910 C.ar      1 TXP400      0.0000 
     47 N7A       -18.2390  -34.5480    2.9360 N.2       1 TXP400      0.0000 
     48 C8A       -19.3180  -35.2670    3.3190 C.2       1 TXP400      0.0000 
     49 H         -25.8781  -34.2548   11.9022 H         1 TXP400      0.0000 
     50 H         -24.7761  -34.8987   10.6730 H         1 TXP400      0.0000 
     51 H         -25.9394  -37.0668   10.7829 H         1 TXP400      0.0000 
     52 H         -28.0235  -35.7874   12.0216 H         1 TXP400      0.0000 
     53 H         -27.0386  -35.4589   14.0361 H         1 TXP400      0.0000 
     54 H         -25.6642  -38.0893   13.8339 H         1 TXP400      0.0000 
     55 H         -23.6572  -36.5462   14.1664 H         1 TXP400      0.0000 
     56 H         -23.9394  -38.3897   15.1938 H         1 TXP400      0.0000 
     57 H         -25.0729  -37.9517   16.4835 H         1 TXP400      0.0000 
     58 H         -22.3301  -37.4052   16.6900 H         1 TXP400      0.0000 
     59 H         -23.4332  -35.5655   18.2267 H         1 TXP400      0.0000 
     60 H         -22.9136  -34.5847   15.7364 H         1 TXP400      0.0000 
     61 H         -24.7436  -32.8059   14.8469 H         1 TXP400      0.0000 
     62 H         -24.5541  -31.4971   16.0622 H         1 TXP400      0.0000 
     63 H         -25.7676  -34.6988   15.0501 H         1 TXP400      0.0000 
     64 H         -24.1584  -34.7202   14.3084 H         1 TXP400      0.0000 
     65 H         -23.3472  -34.6078    5.9908 H         1 TXP400      0.0000 
     66 H         -24.9943  -34.5129    5.3442 H         1 TXP400      0.0000 
     67 H         -24.4138  -35.4191    3.3642 H         1 TXP400      0.0000 
     68 H         -22.6204  -37.2592    4.8546 H         1 TXP400      0.0000 
     69 H         -22.2990  -35.1011    1.7219 H         1 TXP400      0.0000 
     70 H         -21.0506  -37.2102    3.3298 H         1 TXP400      0.0000 
     71 H         -20.5285  -31.5981   -0.5242 H         1 TXP400      0.0000 
     72 H         -16.2434  -31.7618    0.9041 H         1 TXP400      0.0000 
     73 H         -16.2044  -33.1169    2.0821 H         1 TXP400      0.0000 
     74 H         -19.3172  -35.9655    3.9901 H         1 TXP400      0.0000 
     75 H         -27.7142  -37.9835   10.9793 H         1 TXP400      0.0000 
     76 H         -27.7691  -36.9924   15.5026 H         1 TXP400      0.0000 
     77 H         -23.8525  -38.1538    2.5831 H         1 TXP400      0.0000 
@<TRIPOS>BOND
     1    2    1 ar   
     2    3    2 ar   
     3    4    2 1    
     4   22    2 1    
     5    5    4 1    
     6    6    5 1    
     7   49    5 1    
     8   50    5 1    
     9    7    6 1    
    10   21    6 1    
    11   51    6 1    
    12    8    7 1    
    13    9    7 1    
    14   52    7 1    
    15   75    8 1    
    16   10    9 1    
    17   11    9 1    
    18   53    9 1    
    19   76   10 1    
    20   12   11 1    
    21   21   11 1    
    22   54   11 1    
    23   13   12 1    
    24   20   12 1    
    25   55   12 1    
    26   14   13 1    
    27   56   13 1    
    28   57   13 1    
    29   15   14 2    
    30   58   14 1    
    31   16   15 1    
    32   59   15 1    
    33   17   16 1    
    34   20   16 1    
    35   60   16 1    
    36   18   17 2    
    37   19   17 am   
    38   61   19 1    
    39   62   19 1    
    40   63   20 1    
    41   64   20 1    
    42   23   22 1    
    43   24   23 ar   
    44   25   23 ar   
    45   26   23 1    
    46   27   26 1    
    47   28   27 1    
    48   65   27 1    
    49   66   27 1    
    50   29   28 1    
    51   31   28 1    
    52   67   28 1    
    53   30   29 1    
    54   33   29 1    
    55   68   29 1    
    56   77   30 1    
    57   32   31 1    
    58   33   32 1    
    59   39   32 1    
    60   69   32 1    
    61   34   33 1    
    62   70   33 1    
    63   35   34 1    
    64   36   35 ar   
    65   37   35 ar   
    66   38   35 ar   
    67   40   39 1    
    68   48   39 1    
    69   41   40 ar   
    70   46   40 ar   
    71   42   41 ar   
    72   43   42 ar   
    73   71   42 1    
    74   44   43 ar   
    75   45   44 1    
    76   46   44 ar   
    77   72   45 1    
    78   73   45 1    
    79   47   46 1    
    80   48   47 2    
    81   74   48 1    
@<TRIPOS>SUBSTRUCTURE
     1 TXP400      1 GROUP   
@<TRIPOS>SET

