#    Name: 4nbu_NAI_1_INTS_M
#    Modification time : Tue Mar 25 12:57:41 2014

@<TRIPOS>MOLECULE
4nbu_NAI_1_INTS_M
   99     0     9     0     0
SMALL
NO_CHARGES


@<TRIPOS>ATOM
      1 CA         57.9825   23.6280   65.8050 C.3       3 GLC5        0.0000 
      2 CA         56.8750   23.7450   67.3230 C.3       9 GLL5        0.0000 
      3 CA         59.0900   23.5110   64.2870 C.3       6 GLP5        0.0000 
      4 CA         54.0735   23.7180   66.6065 C.3       3 GLC5        0.0000 
      5 CA         55.7600   22.7460   67.3480 C.3       9 GLL5        0.0000 
      6 CA         52.3870   24.6900   65.8650 C.3       6 GLP5        0.0000 
      7 N          53.7045   22.4475   65.9900 N.am      2 SEC2        0.0000 
      8 N          55.1300   22.6180   66.1060 N.am      8 SEL2        0.0000 
      9 N          52.2790   22.2770   65.8740 N.am      5 SEP2        0.0000 
     10 O          55.7030   21.0950   65.4685 O.2       1 ALC1        0.0000 
     11 O          55.1300   22.6180   66.1060 O.2       7 ALL1        0.0000 
     12 O          56.2760   19.5720   64.8310 O.2       4 ALP1        0.0000 
     13 O          55.8670   22.1255   65.1190 O.2       1 ALC1        0.0000 
     14 O          56.6040   21.6330   64.1320 O.2       4 ALP1        0.0000 
     15 O          56.0880   19.9420   66.0905 O.2       1 ALC1        0.0000 
     16 O          55.9000   20.3120   67.3500 O.2       7 ALL1        0.0000 
     17 CA         58.4610   22.6140   65.8000 C.3       3 GLC5        0.0000 
     18 CA         57.8320   21.7170   67.3130 C.3       9 GLL5        0.0000 
     19 CA         59.9850   22.1970   66.9460 C.3       3 GLC5        0.0000 
     20 CA         62.1380   22.6770   66.5790 C.3       6 GLP5        0.0000 
     21 CA         62.0690   16.7560   66.8235 C.3       3 GLC5        0.0000 
     22 CA         61.3510   18.4460   67.9860 C.3       9 GLL5        0.0000 
     23 CA         62.7870   15.0660   65.6610 C.3       6 GLP5        0.0000 
     24 CA         63.1145   19.0310   67.6825 C.3       3 GLC5        0.0000 
     25 CA         64.8780   19.6160   67.3790 C.3       6 GLP5        0.0000 
     26 O          62.7460   16.4460   68.6700 O.2       1 ALC1        0.0000 
     27 O          62.1310   17.7340   68.9530 O.2       7 ALL1        0.0000 
     28 O          63.3610   15.1580   68.3870 O.2       4 ALP1        0.0000 
     29 N          62.9070   17.5725   66.3385 N.am      2 SEC2        0.0000 
     30 N          61.5390   18.1680   66.6930 N.am      8 SEL2        0.0000 
     31 N          64.2750   16.9770   65.9840 N.am      5 SEP2        0.0000 
     32 CA         59.6320   18.9085   64.2300 C.3       3 GLC5        0.0000 
     33 CA         60.8320   18.7900   65.7350 C.3       9 GLL5        0.0000 
     34 CA         58.4320   19.0270   62.7250 C.3       6 GLP5        0.0000 
     35 CA         59.4460   17.1335   65.9235 C.3       3 GLC5        0.0000 
     36 CA         58.0600   15.4770   66.1120 C.3       6 GLP5        0.0000 
     37 CA         61.5990   18.2605   63.9240 C.3       3 GLC5        0.0000 
     38 CA         62.3660   17.7310   62.1130 C.3       6 GLP5        0.0000 
     39 CA         61.8095   16.9280   65.6980 C.3       3 GLC5        0.0000 
     40 CA         62.7325   19.2625   65.3035 C.3       3 GLC5        0.0000 
     41 CA         64.6330   19.7350   64.8720 C.3       6 GLP5        0.0000 
     42 CA         61.4850   20.7335   66.1570 C.3       3 GLC5        0.0000 
     43 N          54.6670   29.9355   70.7000 N.am      2 SEC2        0.0000 
     44 N          55.8430   29.7800   70.2560 N.am      8 SEL2        0.0000 
     45 N          53.4910   30.0910   71.1440 N.am      5 SEP2        0.0000 
     46 N          55.2910   29.5970   66.7255 N.am      2 SEC2        0.0000 
     47 N          55.7440   28.9340   67.8950 N.am      8 SEL2        0.0000 
     48 N          54.8380   30.2600   65.5560 N.am      5 SEP2        0.0000 
     49 CA         61.0515   26.2055   70.3755 C.3       3 GLC5        0.0000 
     50 CA         60.5680   28.0650   69.9620 C.3       9 GLL5        0.0000 
     51 CA         61.5350   24.3460   70.7890 C.3       6 GLP5        0.0000 
     52 N          63.0490   28.1265   70.5605 N.am      2 SEC2        0.0000 
     53 N          61.9090   27.8510   69.7650 N.am      8 SEL2        0.0000 
     54 N          64.1890   28.4020   71.3560 N.am      5 SEP2        0.0000 
     55 N          63.2635   27.4040   69.1620 N.am      2 SEC2        0.0000 
     56 N          64.6180   26.9570   68.5590 N.am      5 SEP2        0.0000 
     57 N          61.1920   29.1535   73.3015 N.am      2 SEC2        0.0000 
     58 N          61.0880   28.4250   72.2230 N.am      8 SEL2        0.0000 
     59 N          61.2960   29.8820   74.3800 N.am      5 SEP2        0.0000 
     60 N          62.6385   28.4135   71.7895 N.am      2 SEC2        0.0000 
     61 CA         61.8035   30.7915   69.4985 C.3       3 GLC5        0.0000 
     62 CA         60.5130   30.2340   70.7180 C.3       9 GLL5        0.0000 
     63 CA         63.0940   31.3490   68.2790 C.3       6 GLP5        0.0000 
     64 CA         58.0070   31.9605   69.9505 C.3       3 GLC5        0.0000 
     65 CA         58.6650   31.3960   71.8270 C.3       9 GLL5        0.0000 
     66 CA         57.3490   32.5250   68.0740 C.3       6 GLP5        0.0000 
     67 N          55.6190   34.5770   73.3575 N.am      2 SEC2        0.0000 
     68 N          56.3230   33.3540   73.6780 N.am      8 SEL2        0.0000 
     69 N          54.9150   35.8000   73.0370 N.am      5 SEP2        0.0000 
     70 O          54.4440   32.7995   72.2150 O.2       1 ALC1        0.0000 
     71 O          55.7240   31.8600   72.0640 O.2       7 ALL1        0.0000 
     72 O          53.1640   33.7390   72.3660 O.2       4 ALP1        0.0000 
     73 CA         62.0140   31.8095   70.1805 C.3       3 GLC5        0.0000 
     74 CA         60.9340   32.2700   72.0820 C.3       9 GLL5        0.0000 
     75 CA         61.1355   33.5465   70.7460 C.3       3 GLC5        0.0000 
     76 CA         61.3370   34.8230   69.4100 C.3       6 GLP5        0.0000 
     77 CA         57.1423   19.6812   68.2800 C.3       3 GLC5        0.0000 
     78 CA         57.1450   17.7500   69.0010 C.3       6 GLP5        0.0000 
     79 CA         61.0842   21.1887   67.2288 C.3       3 GLC5        0.0000 
     80 CA         59.6650   20.0170   67.3700 C.3       9 GLL5        0.0000 
     81 CA         62.1527   19.7820   69.5918 C.3       3 GLC5        0.0000 
     82 CA         60.3960   19.3840   68.3870 C.3       9 GLL5        0.0000 
     83 CA         63.4320   20.6490   70.9970 C.3       6 GLP5        0.0000 
     84 CA         58.3182   30.6545   68.3210 C.3       3 GLC5        0.0000 
     85 CA         59.9820   29.0100   68.8790 C.3       9 GLL5        0.0000 
     86 CA         61.6845   29.9432   68.8498 C.3       3 GLC5        0.0000 
     87 CA         59.2140   27.5213   71.7583 C.3       3 GLC5        0.0000 
     88 CA         58.0110   26.6020   72.9430 C.3       6 GLP5        0.0000 
     89 CA         62.2967   29.1590   71.8657 C.3       3 GLC5        0.0000 
     90 CA         60.2660   28.8160   71.1850 C.3       9 GLL5        0.0000 
     91 CA         64.2040   28.7930   72.7800 C.3       6 GLP5        0.0000 
     92 CA         58.1148   30.0452   72.9868 C.3       3 GLC5        0.0000 
     93 CA         57.8240   28.1620   73.8020 C.3       6 GLP5        0.0000 
     94 CA         60.0575   34.5682   71.5402 C.3       3 GLC5        0.0000 
     95 CA         59.0190   33.5540   73.0380 C.3       9 GLL5        0.0000 
     96 CA         60.3670   35.6850   70.1750 C.3       6 GLP5        0.0000 
     97 CA         62.1718   32.8813   73.4898 C.3       3 GLC5        0.0000 
     98 CA         60.4770   33.3490   72.7730 C.3       9 GLL5        0.0000 
     99 CA         63.6380   32.9530   74.5520 C.3       6 GLP5        0.0000 
@<TRIPOS>BOND
@<TRIPOS>SUBSTRUCTURE
     1 ALC1       10 GROUP        1 X    ALC  0     ROOT ALC X 1
     2 SEC2        7 GROUP        1 X    SEC  0     **** SEC X 2
     3 GLC5        1 GROUP        1 X    GLC  0     **** GLC X 6
     4 ALP1       12 GROUP        1 Y    ALP  0     ROOT ALP Y 8
     5 SEP2        9 GROUP        1 Y    SEP  0     **** SEP Y 9
     6 GLP5        3 GROUP        1 Y    GLP  0     **** GLP Y 13
     7 ALL1       11 GROUP        1 Z    ALL  0     ROOT ALL Z 15
     8 SEL2        8 GROUP        1 Z    SEL  0     **** SEL Z 16
     9 GLL5        2 GROUP        1 Z    GLL  0     **** GLL Z 20
@<TRIPOS>SET

