#    Name: 4nbu_NAI_1_ligand
#    Modification time : Tue Mar 25 12:57:41 2014

@<TRIPOS>MOLECULE
4nbu_NAI_1_ligand
   71    75     1     0     0
SMALL
NO_CHARGES


@<TRIPOS>ATOM
      1 PA         54.7410   26.1880   69.2410 P.3       1 NAI301      0.0000 
      2 O1A        54.5140   25.1610   70.3170 O.co2     1 NAI301      0.0000 
      3 O2A        53.4750   26.7290   68.6660 O.co2     1 NAI301      0.0000 
      4 O5B        55.6270   25.5750   68.0980 O.3       1 NAI301      0.0000 
      5 C5B        56.7330   24.7870   68.4150 C.3       1 NAI301      0.0000 
      6 C4B        56.8750   23.7450   67.3230 C.3       1 NAI301      0.0000 
      7 O4B        58.0920   23.0780   67.4640 O.3       1 NAI301      0.0000 
      8 C3B        55.7600   22.7460   67.3480 C.3       1 NAI301      0.0000 
      9 O3B        55.1300   22.6180   66.1060 O.3       1 NAI301      0.0000 
     10 C2B        56.4470   21.5080   67.8050 C.3       1 NAI301      0.0000 
     11 O2B        55.9000   20.3120   67.3500 O.3       1 NAI301      0.0000 
     12 C1B        57.8320   21.7170   67.3130 C.3       1 NAI301      0.0000 
     13 N9A        58.7990   20.8820   68.0030 N.pl3     1 NAI301      0.0000 
     14 C8A        59.0160   20.7870   69.3340 C.2       1 NAI301      0.0000 
     15 N7A        59.9790   19.8910   69.5650 N.2       1 NAI301      0.0000 
     16 C5A        60.3960   19.3840   68.3870 C.ar      1 NAI301      0.0000 
     17 C6A        61.3510   18.4460   67.9860 C.ar      1 NAI301      0.0000 
     18 N6A        62.1310   17.7340   68.9530 N.pl3     1 NAI301      0.0000 
     19 N1A        61.5390   18.1680   66.6930 N.ar      1 NAI301      0.0000 
     20 C2A        60.8320   18.7900   65.7350 C.ar      1 NAI301      0.0000 
     21 N3A        59.8820   19.7060   66.0660 N.ar      1 NAI301      0.0000 
     22 C4A        59.6650   20.0170   67.3700 C.ar      1 NAI301      0.0000 
     23 O3         55.5340   27.4020   69.9230 O.3       1 NAI301      0.0000 
     24 PN         56.2010   28.6980   69.2980 P.3       1 NAI301      0.0000 
     25 O1N        55.8430   29.7800   70.2560 O.co2     1 NAI301      0.0000 
     26 O2N        55.7440   28.9340   67.8950 O.co2     1 NAI301      0.0000 
     27 O5D        57.7400   28.3530   69.3350 O.3       1 NAI301      0.0000 
     28 C5D        58.5930   28.5580   68.2570 C.3       1 NAI301      0.0000 
     29 C4D        59.9820   29.0100   68.8790 C.3       1 NAI301      0.0000 
     30 O4D        59.9180   30.3450   69.4580 O.3       1 NAI301      0.0000 
     31 C3D        60.5680   28.0650   69.9620 C.3       1 NAI301      0.0000 
     32 O3D        61.9090   27.8510   69.7650 O.3       1 NAI301      0.0000 
     33 C2D        60.2660   28.8160   71.1850 C.3       1 NAI301      0.0000 
     34 O2D        61.0880   28.4250   72.2230 O.3       1 NAI301      0.0000 
     35 C1D        60.5130   30.2340   70.7180 C.3       1 NAI301      0.0000 
     36 N1N        60.0530   31.3030   71.5700 N.pl3     1 NAI301      0.0000 
     37 C2N        58.6650   31.3960   71.8270 C.2       1 NAI301      0.0000 
     38 C3N        58.1460   32.4610   72.5160 C.2       1 NAI301      0.0000 
     39 C7N        56.6960   32.5900   72.7960 C.2       1 NAI301      0.0000 
     40 O7N        56.3230   33.3540   73.6780 O.2       1 NAI301      0.0000 
     41 N7N        55.7240   31.8600   72.0640 N.am      1 NAI301      0.0000 
     42 C4N        59.0190   33.5540   73.0380 C.3       1 NAI301      0.0000 
     43 C5N        60.4770   33.3490   72.7730 C.2       1 NAI301      0.0000 
     44 C6N        60.9340   32.2700   72.0820 C.2       1 NAI301      0.0000 
     45 H          56.6162   24.2598   69.3644 H         1 NAI301      0.0000 
     46 H          57.6621   25.3601   68.4504 H         1 NAI301      0.0000 
     47 H          56.8352   24.2696   66.3616 H         1 NAI301      0.0000 
     48 H          55.0823   23.0527   68.1410 H         1 NAI301      0.0000 
     49 H          56.5012   21.5605   68.9003 H         1 NAI301      0.0000 
     50 H          57.8283   21.4607   66.2398 H         1 NAI301      0.0000 
     51 H          58.5383   21.2978   70.0128 H         1 NAI301      0.0000 
     52 H          61.9403   17.9428   69.9122 H         1 NAI301      0.0000 
     53 H          62.8011   17.0876   68.5881 H         1 NAI301      0.0000 
     54 H          61.0067   18.5747   64.7287 H         1 NAI301      0.0000 
     55 H          58.2866   29.3593   67.5993 H         1 NAI301      0.0000 
     56 H          58.8001   27.6654   67.6835 H         1 NAI301      0.0000 
     57 H          60.7134   29.0257   68.0471 H         1 NAI301      0.0000 
     58 H          59.9567   27.1837   69.9382 H         1 NAI301      0.0000 
     59 H          59.2175   28.7235   71.3830 H         1 NAI301      0.0000 
     60 H          61.6177   30.3266   70.5793 H         1 NAI301      0.0000 
     61 H          58.0493   30.6398   71.4821 H         1 NAI301      0.0000 
     62 H          56.0752   31.2453   71.3577 H         1 NAI301      0.0000 
     63 H          54.7700   32.0219   72.3163 H         1 NAI301      0.0000 
     64 H          58.8600   33.6572   74.1317 H         1 NAI301      0.0000 
     65 H          58.7013   34.5194   72.5917 H         1 NAI301      0.0000 
     66 H          61.1043   34.0754   73.1470 H         1 NAI301      0.0000 
     67 H          61.9537   32.1409   71.9191 H         1 NAI301      0.0000 
     68 H          55.8296   22.2415   65.4987 H         1 NAI301      0.0000 
     69 H          56.1442   20.2678   66.3813 H         1 NAI301      0.0000 
     70 H          62.0844   26.9424   70.1442 H         1 NAI301      0.0000 
     71 H          60.5306   27.8046   72.7747 H         1 NAI301      0.0000 
@<TRIPOS>BOND
     1    2    1 ar   
     2    3    1 ar   
     3    4    1 1    
     4   23    1 1    
     5    5    4 1    
     6    6    5 1    
     7   45    5 1    
     8   46    5 1    
     9    7    6 1    
    10    8    6 1    
    11   47    6 1    
    12   12    7 1    
    13    9    8 1    
    14   10    8 1    
    15   48    8 1    
    16   68    9 1    
    17   11   10 1    
    18   12   10 1    
    19   49   10 1    
    20   69   11 1    
    21   13   12 1    
    22   50   12 1    
    23   14   13 1    
    24   22   13 1    
    25   15   14 2    
    26   51   14 1    
    27   16   15 1    
    28   17   16 ar   
    29   22   16 ar   
    30   18   17 1    
    31   19   17 ar   
    32   52   18 1    
    33   53   18 1    
    34   20   19 ar   
    35   21   20 ar   
    36   54   20 1    
    37   22   21 ar   
    38   24   23 1    
    39   25   24 ar   
    40   26   24 ar   
    41   27   24 1    
    42   28   27 1    
    43   29   28 1    
    44   55   28 1    
    45   56   28 1    
    46   30   29 1    
    47   31   29 1    
    48   57   29 1    
    49   35   30 1    
    50   32   31 1    
    51   33   31 1    
    52   58   31 1    
    53   70   32 1    
    54   34   33 1    
    55   35   33 1    
    56   59   33 1    
    57   71   34 1    
    58   36   35 1    
    59   60   35 1    
    60   37   36 1    
    61   44   36 1    
    62   38   37 2    
    63   61   37 1    
    64   39   38 1    
    65   42   38 1    
    66   40   39 2    
    67   41   39 am   
    68   62   41 1    
    69   63   41 1    
    70   43   42 1    
    71   64   42 1    
    72   65   42 1    
    73   44   43 2    
    74   66   43 1    
    75   67   44 1    
@<TRIPOS>SUBSTRUCTURE
     1 NAI301      1 GROUP   
@<TRIPOS>SET

