#    Name: 1BU5_1_CAVITY_N1_6.mol2
#    Modification time : Mon Mar 10 15:18:19 2014

@<TRIPOS>MOLECULE
1BU5_1_CAVITY_N1_6.mol2
   92     0     6     0     0
SMALL
NO_CHARGES


@<TRIPOS>ATOM
      1 CA         20.5615   21.0994   12.3796 C.3       5 GLY6        0.0000 
      2 N          19.9959   20.6506   13.6944 N.2       2 ALA2        0.0000 
      3 O          19.9718   20.9116   10.3506 O.2       2 ALA2        0.0000 
      4 CZ         19.4062   20.4628   11.6654 C.ar      4 PHE5        0.0000 
      5 CZ         18.8406   20.0140   12.9801 C.ar      4 PHE5        0.0000 
      6 CZ         17.1198   18.9287   13.5807 C.ar      4 PHE5        0.0000 
      7 CZ         15.3989   17.8433   14.1812 C.ar      4 PHE5        0.0000 
      8 CA         21.3331   19.8175   12.2740 C.3       5 GLY6        0.0000 
      9 N          20.7675   19.3687   13.5888 N.2       2 ALA2        0.0000 
     10 CZ         20.1779   19.1809   11.5597 C.ar      4 PHE5        0.0000 
     11 CZ         19.6123   18.7321   12.8745 C.ar      4 PHE5        0.0000 
     12 N          19.0467   18.2833   14.1893 N.2       2 ALA2        0.0000 
     13 N          17.8914   17.6467   13.4750 N.2       2 ALA2        0.0000 
     14 N          16.1706   16.5613   14.0756 N.2       2 ALA2        0.0000 
     15 N          15.6050   16.1125   15.3904 N.2       2 ALA2        0.0000 
     16 OG         15.0153   15.9248   13.3613 O.2       1 SER1        0.0000 
     17 OG         13.8601   15.2882   12.6470 O.2       1 SER1        0.0000 
     18 CZ         22.1048   18.5355   12.1684 C.ar      4 PHE5        0.0000 
     19 N          21.5392   18.0867   13.4832 N.2       2 ALA2        0.0000 
     20 CA         20.9496   17.8990   11.4541 C.3       5 GLY6        0.0000 
     21 CZ         20.3840   17.4502   12.7689 C.ar      4 PHE5        0.0000 
     22 N          19.8184   17.0014   14.0837 N.2       2 ALA2        0.0000 
     23 CZ         19.2287   16.8136   12.0546 C.ar      4 PHE5        0.0000 
     24 N          18.6631   16.3648   13.3694 N.2       2 ALA2        0.0000 
     25 CZ         17.5079   15.7282   12.6552 C.ar      4 PHE5        0.0000 
     26 N          16.9423   15.2794   13.9699 N.2       2 ALA2        0.0000 
     27 CZ         16.3526   15.0917   11.9409 C.ar      4 PHE5        0.0000 
     28 CA         15.7870   14.6428   13.2557 C.3       5 GLY6        0.0000 
     29 CZ         15.2214   14.1940   14.5705 C.ar      4 PHE5        0.0000 
     30 CZ         15.1974   14.4551   11.2266 C.ar      4 PHE5        0.0000 
     31 CZ         14.6318   14.0063   12.5414 C.ar      4 PHE5        0.0000 
     32 CZ         14.0421   13.8185   10.5124 C.ar      4 PHE5        0.0000 
     33 CZ         13.4765   13.3697   11.8271 C.ar      4 PHE5        0.0000 
     34 NZ         13.4525   13.6308    8.4833 N.2       3 LYS4        0.0000 
     35 DU         12.8869   13.1820    9.7981 H         6 CUB7        0.0000 
     36 CA         21.1556   16.1682   12.6633 C.3       5 GLY6        0.0000 
     37 CA         20.0004   15.5317   11.9490 C.3       5 GLY6        0.0000 
     38 N          19.4348   15.0828   13.2638 N.2       2 ALA2        0.0000 
     39 CZ         18.8451   14.8951   11.2347 C.ar      4 PHE5        0.0000 
     40 N          18.2795   14.4463   12.5495 N.2       2 ALA2        0.0000 
     41 CZ         18.2555   14.7073    9.2057 C.ar      4 PHE5        0.0000 
     42 CZ         17.6899   14.2585   10.5205 C.ar      4 PHE5        0.0000 
     43 CZ         17.1002   14.0708    8.4914 C.ar      4 PHE5        0.0000 
     44 CZ         16.5346   13.6220    9.8062 C.ar      4 PHE5        0.0000 
     45 N          15.9690   13.1731   11.1210 N.2       2 ALA2        0.0000 
     46 N          15.4034   12.7243   12.4358 N.2       2 ALA2        0.0000 
     47 CA         15.3794   12.9854    9.0919 C.3       5 GLY6        0.0000 
     48 DU         14.8138   12.5366   10.4067 H         6 CUB7        0.0000 
     49 CZ         14.2482   12.0878   11.7215 C.ar      4 PHE5        0.0000 
     50 CA         14.2241   12.3488    8.3777 C.3       5 GLY6        0.0000 
     51 DU         13.6585   11.9000    9.6925 H         6 CUB7        0.0000 
     52 CZ         13.0929   11.4512   11.0073 C.ar      4 PHE5        0.0000 
     53 CA         13.6345   12.1611    6.3486 C.3       5 GLY6        0.0000 
     54 NZ         13.0689   11.7123    7.6634 N.2       3 LYS4        0.0000 
     55 DU         12.5033   11.2634    8.9782 H         6 CUB7        0.0000 
     56 CZ         11.9377   10.8146   10.2930 C.ar      4 PHE5        0.0000 
     57 CZ         11.3721   10.3658   11.6078 C.ar      4 PHE5        0.0000 
     58 CA         13.0448   11.9733    4.3196 C.3       5 GLY6        0.0000 
     59 NZ         12.4792   11.5245    5.6344 N.2       3 LYS4        0.0000 
     60 DU         11.9136   11.0757    6.9491 H         6 CUB7        0.0000 
     61 DU         11.3480   10.6269    8.2639 H         6 CUB7        0.0000 
     62 N          20.1824   14.0620    9.8143 N.2       2 ALA2        0.0000 
     63 CA         19.6168   13.6132   11.1291 C.3       5 GLY6        0.0000 
     64 O          19.0272   13.4254    9.1001 O.2       2 ALA2        0.0000 
     65 N          18.4616   12.9766   10.4149 N.2       2 ALA2        0.0000 
     66 CA         17.3063   12.3400    9.7006 C.3       5 GLY6        0.0000 
     67 N          15.5855   11.2546   10.3011 N.2       2 ALA2        0.0000 
     68 CZ         15.0199   10.8058   11.6159 C.ar      4 PHE5        0.0000 
     69 CA         14.9958   11.0669    8.2721 C.3       5 GLY6        0.0000 
     70 DU         14.4302   10.6181    9.5868 H         6 CUB7        0.0000 
     71 CZ         13.8646   10.1693   10.9016 C.ar      4 PHE5        0.0000 
     72 N          13.8406   10.4303    7.5578 N.2       2 ALA2        0.0000 
     73 DU         13.2750    9.9815    8.8726 H         6 CUB7        0.0000 
     74 CZ         12.7094    9.5327   10.1874 C.ar      4 PHE5        0.0000 
     75 CZ         12.1438    9.0839   11.5022 C.ar      4 PHE5        0.0000 
     76 CA         13.2509   10.2426    5.5287 C.3       5 GLY6        0.0000 
     77 O          12.6853    9.7937    6.8435 O.2       2 ALA2        0.0000 
     78 O          12.1197    9.3449    8.1583 O.2       2 ALA2        0.0000 
     79 OG         11.5541    8.8961    9.4731 O.2       1 SER1        0.0000 
     80 CA         12.0957    9.6060    4.8145 C.3       5 GLY6        0.0000 
     81 O          11.5301    9.1572    6.1293 O.2       2 ALA2        0.0000 
     82 N          15.2019    9.3361    9.4812 N.2       2 ALA2        0.0000 
     83 CZ         14.6363    8.8873   10.7960 C.ar      4 PHE5        0.0000 
     84 N          14.6122    9.1484    7.4522 N.2       2 ALA2        0.0000 
     85 O          14.0466    8.6996    8.7670 O.2       2 ALA2        0.0000 
     86 OG         13.4810    8.2508   10.0817 O.2       1 SER1        0.0000 
     87 OG         12.9154    7.8020   11.3965 O.2       1 SER1        0.0000 
     88 O          13.4570    8.5118    6.7379 O.2       2 ALA2        0.0000 
     89 CA         14.8183    7.4176    8.6613 C.3       5 GLY6        0.0000 
     90 OG         14.2527    6.9688    9.9761 O.2       1 SER1        0.0000 
     91 OG         13.6871    6.5200   11.2909 O.2       1 SER1        0.0000 
     92 CA         13.0975    6.3323    9.2619 C.3       5 GLY6        0.0000 
@<TRIPOS>BOND
@<TRIPOS>SUBSTRUCTURE
     1 SER1       16 GROUP   
     2 ALA2        2 GROUP   
     3 LYS4       34 GROUP   
     4 PHE5        4 GROUP   
     5 GLY6        1 GROUP   
     6 CUB7       35 GROUP   
@<TRIPOS>SET

