#    Name: 1bu5_RBF_1_INTS_M
#    Modification time : Mon Mar 24 19:48:51 2014

@<TRIPOS>MOLECULE
1bu5_RBF_1_INTS_M
   35     0     9     0     0
SMALL
NO_CHARGES


@<TRIPOS>ATOM
      1 N          17.6920   12.9265    7.8100 N.am      2 SEC2        0.0000 
      2 N          17.9890   13.2700    9.4170 N.am      8 SEL2        0.0000 
      3 N          17.3950   12.5830    6.2030 N.am      5 SEP2        0.0000 
      4 N          18.5235   12.7700    7.1055 N.am      2 SEC2        0.0000 
      5 N          19.6520   12.9570    8.0080 N.am      8 SEL2        0.0000 
      6 N          20.9535   12.4755    7.7150 N.am      2 SEC2        0.0000 
      7 N          22.2550   11.9940    7.4220 N.am      5 SEP2        0.0000 
      8 O          21.4155   14.4105    9.5335 O.2       1 ALC1        0.0000 
      9 O          20.0450   14.2140    9.8680 O.2       7 ALL1        0.0000 
     10 O          22.7860   14.6070    9.1990 O.2       4 ALP1        0.0000 
     11 CA         12.7650   12.9420   13.9575 C.3       3 GLC5        0.0000 
     12 CA         12.2720   14.6590   13.6550 C.3       9 GLL5        0.0000 
     13 CA         13.2580   11.2250   14.2600 C.3       6 GLP5        0.0000 
     14 CA         16.5505   11.5555    8.5715 C.3       3 GLC5        0.0000 
     15 CA         15.2640   12.7060   10.0150 C.3       9 GLL5        0.0000 
     16 CA         17.8370   10.4050    7.1280 C.3       6 GLP5        0.0000 
     17 CA         15.4180   13.3765    8.1495 C.3       3 GLC5        0.0000 
     18 CA         15.5720   14.0470    6.2840 C.3       6 GLP5        0.0000 
     19 CA         15.2665   14.6610    9.6870 C.3       3 GLC5        0.0000 
     20 CA         15.2690   16.6160    9.3590 C.3       6 GLP5        0.0000 
     21 O          17.1815   11.2205   11.8810 O.2       1 ALC1        0.0000 
     22 O          16.4000   10.6930   10.8720 O.2       7 ALL1        0.0000 
     23 O          17.9630   11.7480   12.8900 O.2       4 ALP1        0.0000 
     24 CA         11.2475    8.3170   10.6575 C.3       3 GLC5        0.0000 
     25 CA         12.5930    9.1320    9.2240 C.3       9 GLL5        0.0000 
     26 CA          9.9020    7.5020   12.0910 C.3       6 GLP5        0.0000 
     27 O          14.1110    8.5260    7.3955 O.2       1 ALC1        0.0000 
     28 O          13.7770    8.3910    8.8640 O.2       7 ALL1        0.0000 
     29 O          14.4450    8.6610    5.9270 O.2       4 ALP1        0.0000 
     30 CA         16.9135   13.7746   14.0683 C.3       3 GLC5        0.0000 
     31 CA         16.4060   14.9820   12.7630 C.3       9 GLL5        0.0000 
     32 CA         17.9540   12.7890   15.4860 C.3       6 GLP5        0.0000 
     33 CA         13.5155   10.3470   11.8328 C.3       3 GLC5        0.0000 
     34 CA         15.1240   11.3730   10.7660 C.3       9 GLL5        0.0000 
     35 CA         13.1380    9.9580   13.6960 C.3       6 GLP5        0.0000 
@<TRIPOS>BOND
@<TRIPOS>SUBSTRUCTURE
     1 ALC1        8 GROUP        1 X    ALC  0     ROOT ALC X 1
     2 SEC2        1 GROUP        1 X    SEC  0     **** SEC X 2
     3 GLC5       11 GROUP        1 X    GLC  0     **** GLC X 6
     4 ALP1       10 GROUP        1 Y    ALP  0     ROOT ALP Y 8
     5 SEP2        3 GROUP        1 Y    SEP  0     **** SEP Y 9
     6 GLP5       13 GROUP        1 Y    GLP  0     **** GLP Y 13
     7 ALL1        9 GROUP        1 Z    ALL  0     ROOT ALL Z 15
     8 SEL2        2 GROUP        1 Z    SEL  0     **** SEL Z 16
     9 GLL5       12 GROUP        1 Z    GLL  0     **** GLL Z 20
@<TRIPOS>SET

