#    Name: 1bu5_RBF_1_ligand
#    Modification time : Mon Mar 24 19:48:51 2014

@<TRIPOS>MOLECULE
1bu5_RBF_1_ligand
   47    49     1     0     0
SMALL
NO_CHARGES


@<TRIPOS>ATOM
      1 N1         17.9890   13.2700    9.4170 N.2       1 RBF301      0.0000 
      2 C2         19.2970   13.4720    9.0360 C.2       1 RBF301      0.0000 
      3 O2         19.6520   12.9570    8.0080 O.2       1 RBF301      0.0000 
      4 N3         20.0450   14.2140    9.8680 N.am      1 RBF301      0.0000 
      5 C4         19.6710   14.8370   11.0410 C.2       1 RBF301      0.0000 
      6 O4         20.4470   15.4940   11.6750 O.2       1 RBF301      0.0000 
      7 C4A        18.2230   14.6030   11.4010 C.2       1 RBF301      0.0000 
      8 N5         17.7720   15.1100   12.5090 N.2       1 RBF301      0.0000 
      9 C5A        16.4060   14.9820   12.7630 C.ar      1 RBF301      0.0000 
     10 C6         15.9380   15.6790   13.9190 C.ar      1 RBF301      0.0000 
     11 C7         14.5950   15.5560   14.1410 C.ar      1 RBF301      0.0000 
     12 C7M        13.8670   16.2270   15.3100 C.3       1 RBF301      0.0000 
     13 C8         13.7860   14.7300   13.3010 C.ar      1 RBF301      0.0000 
     14 C8M        12.2720   14.6590   13.6550 C.3       1 RBF301      0.0000 
     15 C9         14.1910   14.0550   12.1790 C.ar      1 RBF301      0.0000 
     16 C9A        15.5740   14.1900   11.9600 C.ar      1 RBF301      0.0000 
     17 N10        16.1670   13.5390   10.8370 N.pl3     1 RBF301      0.0000 
     18 C10        17.4500   13.7870   10.5580 C.2       1 RBF301      0.0000 
     19 C1'        15.2640   12.7060   10.0150 C.3       1 RBF301      0.0000 
     20 C2'        15.1240   11.3730   10.7660 C.3       1 RBF301      0.0000 
     21 O2'        16.4000   10.6930   10.8720 O.3       1 RBF301      0.0000 
     22 C3'        14.3840   10.3290   10.0280 C.3       1 RBF301      0.0000 
     23 O3'        15.1440    9.8230    8.9530 O.3       1 RBF301      0.0000 
     24 C4'        13.0320   10.6210    9.5420 C.3       1 RBF301      0.0000 
     25 O4'        12.1040   11.2460   10.4250 O.3       1 RBF301      0.0000 
     26 C5'        12.5930    9.1320    9.2240 C.3       1 RBF301      0.0000 
     27 O5'        13.7770    8.3910    8.8640 O.3       1 RBF301      0.0000 
     28 H          21.0992   14.3518    9.5891 H         1 RBF301      0.0000 
     29 H          16.5558   16.1956   14.4876 H         1 RBF301      0.0000 
     30 H          13.6091   13.5405   11.5936 H         1 RBF301      0.0000 
     31 H          15.6897   12.5134    9.0489 H         1 RBF301      0.0000 
     32 H          14.2937   13.1567    9.9306 H         1 RBF301      0.0000 
     33 H          14.7049   11.5064   11.7213 H         1 RBF301      0.0000 
     34 H          14.2666    9.4456   10.7594 H         1 RBF301      0.0000 
     35 H          13.1010   11.0793    8.5685 H         1 RBF301      0.0000 
     36 H          11.8756    9.1838    8.4171 H         1 RBF301      0.0000 
     37 H          12.1202    8.7486   10.1173 H         1 RBF301      0.0000 
     38 H          14.2292   15.9291   16.1932 H         1 RBF301      0.0000 
     39 H          13.9531   17.2228   15.2787 H         1 RBF301      0.0000 
     40 H          12.8893   16.0171   15.3083 H         1 RBF301      0.0000 
     41 H          12.1226   14.3037   14.5777 H         1 RBF301      0.0000 
     42 H          11.8383   15.5591   13.6138 H         1 RBF301      0.0000 
     43 H          11.7713   14.0634   13.0269 H         1 RBF301      0.0000 
     44 H          16.8641   11.1322   11.6413 H         1 RBF301      0.0000 
     45 H          16.0826   10.1119    9.1412 H         1 RBF301      0.0000 
     46 H          11.2052   10.9285   10.1227 H         1 RBF301      0.0000 
     47 H          13.8888    8.5432    7.8820 H         1 RBF301      0.0000 
@<TRIPOS>BOND
     1    2    1 1    
     2   18    1 2    
     3    3    2 2    
     4    4    2 am   
     5    5    4 am   
     6   28    4 1    
     7    6    5 2    
     8    7    5 1    
     9    8    7 2    
    10   18    7 1    
    11    9    8 1    
    12   10    9 ar   
    13   16    9 ar   
    14   11   10 ar   
    15   29   10 1    
    16   12   11 1    
    17   13   11 ar   
    18   38   12 1    
    19   39   12 1    
    20   40   12 1    
    21   14   13 1    
    22   15   13 ar   
    23   41   14 1    
    24   42   14 1    
    25   43   14 1    
    26   16   15 ar   
    27   30   15 1    
    28   17   16 1    
    29   18   17 1    
    30   19   17 1    
    31   20   19 1    
    32   31   19 1    
    33   32   19 1    
    34   21   20 1    
    35   22   20 1    
    36   33   20 1    
    37   44   21 1    
    38   23   22 1    
    39   24   22 1    
    40   34   22 1    
    41   45   23 1    
    42   25   24 1    
    43   26   24 1    
    44   35   24 1    
    45   46   25 1    
    46   27   26 1    
    47   36   26 1    
    48   37   26 1    
    49   47   27 1    
@<TRIPOS>SUBSTRUCTURE
     1 RBF301      1 GROUP   
@<TRIPOS>SET

