#    Name: 3ta2_ATP_2_INTS_M
#    Modification time : Mon Mar 24 19:26:37 2014

@<TRIPOS>MOLECULE
3ta2_ATP_2_INTS_M
   44     0    12     0     0
SMALL
NO_CHARGES


@<TRIPOS>ATOM
      1 Zn        -30.9695   41.0575   26.4520 Zn        3 ZIC7        0.0000 
      2 Zn        -29.9760   41.0220   26.7430 Zn       11 ZIL7        0.0000 
      3 Zn        -31.9630   41.0930   26.1610 Zn        7 ZIP7        0.0000 
      4 N         -29.3515   40.5135   25.6590 N.am      1 SEC2        0.0000 
      5 N         -29.9760   41.0220   26.7430 N.am      9 SEL2        0.0000 
      6 N         -28.7270   40.0050   24.5750 N.am      5 SEP2        0.0000 
      7 N         -30.4700   43.6180   28.0850 N.am      1 SEC2        0.0000 
      8 N         -29.6970   42.5900   28.7050 N.am      9 SEL2        0.0000 
      9 N         -31.2430   44.6460   27.4650 N.am      5 SEP2        0.0000 
     10 Zn        -32.2605   41.0195   27.1165 Zn        3 ZIC7        0.0000 
     11 Zn        -32.5580   40.9460   28.0720 Zn       11 ZIL7        0.0000 
     12 N         -33.9410   41.2905   28.0340 N.am      1 SEC2        0.0000 
     13 N         -32.5580   40.9460   28.0720 N.am      9 SEL2        0.0000 
     14 N         -35.3240   41.6350   27.9960 N.am      5 SEP2        0.0000 
     15 NZ        -32.3830   38.6945   31.2405 N.4       2 LYC4        0.0000 
     16 NZ        -32.4670   39.8620   30.3820 N.4      10 LYL4        0.0000 
     17 NZ        -32.4540   38.1960   33.2310 N.4       6 LYP4        0.0000 
     18 N         -32.3830   38.6945   31.2405 N.am      1 SEC2        0.0000 
     19 N         -32.4670   39.8620   30.3820 N.am      9 SEL2        0.0000 
     20 N         -32.2990   37.5270   32.0990 N.am      5 SEP2        0.0000 
     21 N         -32.5980   39.6775   31.7945 N.am      1 SEC2        0.0000 
     22 N         -32.7290   39.4930   33.2070 N.am      5 SEP2        0.0000 
     23 Zn        -32.0220   40.0560   26.0140 Zn        3 ZIC7        0.0000 
     24 Zn        -32.0810   39.0190   25.8670 Zn       11 ZIL7        0.0000 
     25 N         -29.1795   36.5460   26.7325 N.am      1 SEC2        0.0000 
     26 N         -30.1840   37.5100   26.8670 N.am      9 SEL2        0.0000 
     27 N         -28.1750   35.5820   26.5980 N.am      5 SEP2        0.0000 
     28 CA        -32.0990   35.5070   23.6830 C.3       4 GLC5        0.0000 
     29 CA        -32.2190   35.6090   25.9030 C.3      12 GLL5        0.0000 
     30 CA        -31.9790   35.4050   21.4630 C.3       8 GLP5        0.0000 
     31 CA        -30.5840   35.0590   26.5500 C.3       4 GLC5        0.0000 
     32 CA        -28.9490   34.5090   27.1970 C.3       8 GLP5        0.0000 
     33 CA        -33.4505   32.8980   25.3980 C.3       4 GLC5        0.0000 
     34 CA        -33.4980   34.7190   25.8450 C.3      12 GLL5        0.0000 
     35 CA        -33.4030   31.0770   24.9510 C.3       8 GLP5        0.0000 
     36 CA        -34.6280   32.7905   25.3965 C.3       4 GLC5        0.0000 
     37 CA        -35.8530   34.5040   25.8420 C.3      12 GLL5        0.0000 
     38 CA        -34.1290   32.3775   26.7785 C.3       4 GLC5        0.0000 
     39 CA        -35.2990   34.0520   27.1870 C.3      12 GLL5        0.0000 
     40 CA        -32.9590   30.7030   26.3700 C.3       8 GLP5        0.0000 
     41 CA        -36.5840   34.8027   23.9995 C.3       4 GLC5        0.0000 
     42 CA        -37.8670   34.6490   22.4120 C.3       8 GLP5        0.0000 
     43 CA        -36.1910   36.5472   24.5985 C.3       4 GLC5        0.0000 
     44 CA        -37.0810   38.1380   23.6100 C.3       8 GLP5        0.0000 
@<TRIPOS>BOND
@<TRIPOS>SUBSTRUCTURE
     1 SEC2        4 GROUP        1 X    SEC  0     ROOT SEC X 2
     2 LYC4       15 GROUP        1 X    LYC  0     **** LYC X 4
     3 ZIC7        1 GROUP        1 X    ZIC  0     **** ZIC X 5
     4 GLC5       28 GROUP        1 X    GLC  0     **** GLC X 6
     5 SEP2        6 GROUP        1 Y    SEP  0     ROOT SEP Y 9
     6 LYP4       17 GROUP        1 Y    LYP  0     **** LYP Y 11
     7 ZIP7        3 GROUP        1 Y    ZIP  0     **** ZIP Y 12
     8 GLP5       30 GROUP        1 Y    GLP  0     **** GLP Y 13
     9 SEL2        5 GROUP        1 Z    SEL  0     ROOT SEL Z 16
    10 LYL4       16 GROUP        1 Z    LYL  0     **** LYL Z 18
    11 ZIL7        2 GROUP        1 Z    ZIL  0     **** ZIL Z 19
    12 GLL5       29 GROUP        1 Z    GLL  0     **** GLL Z 20
@<TRIPOS>SET

