#    Name: 3ta2_ATP_2_ligand
#    Modification time : Mon Mar 24 19:26:37 2014

@<TRIPOS>MOLECULE
3ta2_ATP_2_ligand
   43    45     1     0     0
SMALL
NO_CHARGES


@<TRIPOS>ATOM
      1 PG        -29.5130   41.1770   28.1810 P.3       1 ATP121      0.0000 
      2 O1G       -28.0620   40.7350   28.3470 O.co2     1 ATP121      0.0000 
      3 O2G       -29.9760   41.0220   26.7430 O.co2     1 ATP121      0.0000 
      4 O3G       -29.6970   42.5900   28.7050 O.co2     1 ATP121      0.0000 
      5 PB        -31.9160   39.9030   29.0030 P.3       1 ATP121      0.0000 
      6 O1B       -32.5580   40.9460   28.0720 O.co2     1 ATP121      0.0000 
      7 O2B       -32.4670   39.8620   30.3820 O.co2     1 ATP121      0.0000 
      8 O3B       -30.3910   40.2830   29.1380 O.3       1 ATP121      0.0000 
      9 PA        -31.6460   37.9380   26.8360 P.3       1 ATP121      0.0000 
     10 O1A       -32.0810   39.0190   25.8670 O.co2     1 ATP121      0.0000 
     11 O2A       -30.1840   37.5100   26.8670 O.co2     1 ATP121      0.0000 
     12 O3A       -31.9770   38.4490   28.3160 O.3       1 ATP121      0.0000 
     13 O5'       -32.6840   36.6880   26.6990 O.3       1 ATP121      0.0000 
     14 C5'       -32.2190   35.6090   25.9030 C.3       1 ATP121      0.0000 
     15 C4'       -33.4980   34.7190   25.8450 C.3       1 ATP121      0.0000 
     16 O4'       -33.8600   34.1770   27.1540 O.3       1 ATP121      0.0000 
     17 C3'       -34.7490   35.4090   25.3320 C.3       1 ATP121      0.0000 
     18 O3'       -34.7950   35.6370   23.9110 O.3       1 ATP121      0.0000 
     19 C2'       -35.8530   34.5040   25.8420 C.3       1 ATP121      0.0000 
     20 O2'       -35.9380   33.3450   24.9840 O.3       1 ATP121      0.0000 
     21 C1'       -35.2990   34.0520   27.1870 C.3       1 ATP121      0.0000 
     22 N9        -35.8190   34.8360   28.2690 N.pl3     1 ATP121      0.0000 
     23 C8        -35.3540   36.0770   28.7050 C.2       1 ATP121      0.0000 
     24 N7        -36.0240   36.5070   29.7130 N.2       1 ATP121      0.0000 
     25 C5        -36.9860   35.5240   29.9370 C.ar      1 ATP121      0.0000 
     26 C6        -38.0090   35.4510   30.9180 C.ar      1 ATP121      0.0000 
     27 N6        -38.1540   36.4410   31.8710 N.pl3     1 ATP121      0.0000 
     28 N1        -38.8300   34.3640   30.9270 N.ar      1 ATP121      0.0000 
     29 C2        -38.6160   33.3700   29.9730 C.ar      1 ATP121      0.0000 
     30 N3        -37.6420   33.3650   28.9890 N.ar      1 ATP121      0.0000 
     31 C4        -36.8740   34.4790   29.0500 C.ar      1 ATP121      0.0000 
     32 H         -31.4574   35.0411   26.3718 H         1 ATP121      0.0000 
     33 H         -31.9837   35.8928   24.9098 H         1 ATP121      0.0000 
     34 H         -33.2910   33.8743   25.1706 H         1 ATP121      0.0000 
     35 H         -34.8398   36.3446   25.9010 H         1 ATP121      0.0000 
     36 H         -36.7216   35.0220   25.9687 H         1 ATP121      0.0000 
     37 H         -35.5645   33.0049   27.3131 H         1 ATP121      0.0000 
     38 H         -34.5941   36.5237   28.2510 H         1 ATP121      0.0000 
     39 H         -37.5053   37.2003   31.8189 H         1 ATP121      0.0000 
     40 H         -38.8950   36.3122   32.5300 H         1 ATP121      0.0000 
     41 H         -39.2771   32.5218   30.0081 H         1 ATP121      0.0000 
     42 H         -33.8381   35.7054   23.6289 H         1 ATP121      0.0000 
     43 H         -35.7121   33.6825   24.0702 H         1 ATP121      0.0000 
@<TRIPOS>BOND
     1    2    1 ar   
     2    3    1 ar   
     3    4    1 ar   
     4    8    1 1    
     5    6    5 ar   
     6    7    5 ar   
     7    8    5 1    
     8   12    5 1    
     9   10    9 ar   
    10   11    9 ar   
    11   12    9 1    
    12   13    9 1    
    13   14   13 1    
    14   15   14 1    
    15   32   14 1    
    16   33   14 1    
    17   16   15 1    
    18   17   15 1    
    19   34   15 1    
    20   21   16 1    
    21   18   17 1    
    22   19   17 1    
    23   35   17 1    
    24   42   18 1    
    25   20   19 1    
    26   21   19 1    
    27   36   19 1    
    28   43   20 1    
    29   22   21 1    
    30   37   21 1    
    31   23   22 1    
    32   31   22 1    
    33   24   23 2    
    34   38   23 1    
    35   25   24 1    
    36   26   25 ar   
    37   31   25 ar   
    38   27   26 1    
    39   28   26 ar   
    40   39   27 1    
    41   40   27 1    
    42   29   28 ar   
    43   30   29 ar   
    44   41   29 1    
    45   31   30 ar   
@<TRIPOS>SUBSTRUCTURE
     1 ATP121      1 GROUP   
@<TRIPOS>SET

