#    Name: 1mbt_FAD_1_INTS_M
#    Modification time : Tue Mar 25 11:32:14 2014

@<TRIPOS>MOLECULE
1mbt_FAD_1_INTS_M
  123     0     9     0     0
SMALL
NO_CHARGES


@<TRIPOS>ATOM
      1 N           8.6490   35.1225   15.9980 N.am      2 SEC2        0.0000 
      2 N           7.3340   35.4900   16.6730 N.am      8 SEL2        0.0000 
      3 N           9.9640   34.7550   15.3230 N.am      5 SEP2        0.0000 
      4 N           6.4095   34.5335   15.8905 N.am      2 SEC2        0.0000 
      5 N           5.4850   33.5770   15.1080 N.am      5 SEP2        0.0000 
      6 N           4.1075   35.6535   18.7200 N.am      2 SEC2        0.0000 
      7 N           5.3570   36.1650   18.1350 N.am      8 SEL2        0.0000 
      8 N           2.8580   35.1420   19.3050 N.am      5 SEP2        0.0000 
      9 CA          5.4460   37.1695   20.4385 C.3       3 GLC5        0.0000 
     10 CA          7.2300   37.9620   19.6360 C.3       9 GLL5        0.0000 
     11 CA          3.6620   36.3770   21.2410 C.3       6 GLP5        0.0000 
     12 N           8.5555   38.6510   21.3605 N.am      2 SEC2        0.0000 
     13 N           9.2790   39.1730   19.9640 N.am      8 SEL2        0.0000 
     14 N           7.8320   38.1290   22.7570 N.am      5 SEP2        0.0000 
     15 CA          5.7490   40.0165   17.7415 C.3       3 GLC5        0.0000 
     16 CA          7.7370   40.2520   18.5900 C.3       9 GLL5        0.0000 
     17 CA          3.7610   39.7810   16.8930 C.3       6 GLP5        0.0000 
     18 O           9.8495   40.2240   15.8865 O.2       1 ALC1        0.0000 
     19 O           9.4490   40.9870   16.9090 O.2       7 ALL1        0.0000 
     20 O          10.2500   39.4610   14.8640 O.2       4 ALP1        0.0000 
     21 CA         11.3505   39.6955   20.2735 C.3       3 GLC5        0.0000 
     22 CA         10.0240   39.6540   18.8360 C.3       9 GLL5        0.0000 
     23 CA         12.6770   39.7370   21.7110 C.3       6 GLP5        0.0000 
     24 CA         15.8630   37.8760   19.2385 C.3       3 GLC5        0.0000 
     25 CA         14.3490   37.8860   17.8650 C.3       9 GLL5        0.0000 
     26 CA         17.3770   37.8660   20.6120 C.3       6 GLP5        0.0000 
     27 O          16.6370   36.7610   17.6810 O.2       1 ALC1        0.0000 
     28 O          15.1140   36.8530   17.5490 O.2       7 ALL1        0.0000 
     29 O          18.1600   36.6690   17.8130 O.2       4 ALP1        0.0000 
     30 N          16.3930   39.2435   18.4305 N.am      2 SEC2        0.0000 
     31 N          14.9430   39.1180   17.9920 N.am      8 SEL2        0.0000 
     32 N          17.8430   39.3690   18.8690 N.am      5 SEP2        0.0000 
     33 CA         13.7390   40.0760   16.3710 C.3       3 GLC5        0.0000 
     34 CA         14.1620   40.1850   18.2920 C.3       9 GLL5        0.0000 
     35 CA         13.3160   39.9670   14.4500 C.3       6 GLP5        0.0000 
     36 CA         13.4195   39.9610   20.0015 C.3       3 GLC5        0.0000 
     37 CA         16.1050   40.7720   17.9050 C.3       3 GLC5        0.0000 
     38 CA         18.0480   41.3590   17.5180 C.3       6 GLP5        0.0000 
     39 CA         12.8195   39.4425   16.4100 C.3       3 GLC5        0.0000 
     40 CA         12.3230   38.9180   18.3700 C.3       9 GLL5        0.0000 
     41 O           3.9255   31.2845   29.7060 O.2       1 ALC1        0.0000 
     42 O           3.6680   31.7640   28.3500 O.2       7 ALL1        0.0000 
     43 O           4.1830   30.8050   31.0620 O.2       4 ALP1        0.0000 
     44 N           1.9495   28.5360   28.1360 N.am      2 SEC2        0.0000 
     45 N           2.6060   29.8070   28.6410 N.am      8 SEL2        0.0000 
     46 N           1.2930   27.2650   27.6310 N.am      5 SEP2        0.0000 
     47 N           1.3940   28.5390   26.8260 N.am      2 SEC2        0.0000 
     48 N           1.4950   29.8130   26.0210 N.am      8 SEL2        0.0000 
     49 CA         -1.1015   27.7595   25.6210 C.3       3 GLC5        0.0000 
     50 CA          0.0680   28.9590   24.2900 C.3       9 GLL5        0.0000 
     51 CA         -2.2710   26.5600   26.9520 C.3       6 GLP5        0.0000 
     52 CA         -1.9585   26.8935   20.6535 C.3       3 GLC5        0.0000 
     53 CA         -1.4420   28.0220   22.5120 C.3       9 GLL5        0.0000 
     54 CA         -2.4750   25.7650   18.7950 C.3       6 GLP5        0.0000 
     55 CA          0.1910   30.1590   18.6940 C.3       3 GLC5        0.0000 
     56 CA         -0.4720   29.9340   20.7080 C.3       9 GLL5        0.0000 
     57 CA          0.8540   30.3840   16.6800 C.3       6 GLP5        0.0000 
     58 CA          1.4050   30.8070   19.9605 C.3       3 GLC5        0.0000 
     59 CA          3.2820   31.6800   19.2130 C.3       6 GLP5        0.0000 
     60 CA         -1.0290   28.3140   19.3560 C.3       3 GLC5        0.0000 
     61 CA         -1.5860   26.6940   18.0040 C.3       6 GLP5        0.0000 
     62 CA          2.1300   31.3170   20.9110 C.3       3 GLC5        0.0000 
     63 CA          0.9780   30.9540   22.6090 C.3       9 GLL5        0.0000 
     64 CA          1.9620   29.4265   21.9635 C.3       3 GLC5        0.0000 
     65 CA          2.9460   27.8990   21.3180 C.3       6 GLP5        0.0000 
     66 CA          3.6830   32.1985   21.0630 C.3       3 GLC5        0.0000 
     67 CA          4.0840   32.7170   22.9130 C.3       9 GLL5        0.0000 
     68 O           4.4580   31.5525   21.2235 O.2       1 ALC1        0.0000 
     69 O           4.3160   31.3330   22.7650 O.2       7 ALL1        0.0000 
     70 O           4.6000   31.7720   19.6820 O.2       4 ALP1        0.0000 
     71 CA          6.2190   35.3155   24.2425 C.3       3 GLC5        0.0000 
     72 CA          5.2750   33.4030   23.6000 C.3       9 GLL5        0.0000 
     73 CA          7.1630   37.2280   24.8850 C.3       6 GLP5        0.0000 
     74 O           3.6625   35.6305   23.5565 O.2       1 ALC1        0.0000 
     75 O           5.0260   34.7640   23.8940 O.2       7 ALL1        0.0000 
     76 O           2.2990   36.4970   23.2190 O.2       4 ALP1        0.0000 
     77 CA          4.8510   32.6870   20.2705 C.3       3 GLC5        0.0000 
     78 CA          6.4200   33.6940   21.3280 C.3       9 GLL5        0.0000 
     79 CA          5.0410   35.0355   21.2845 C.3       3 GLC5        0.0000 
     80 CA          7.1285   31.8635   20.5455 C.3       3 GLC5        0.0000 
     81 CA          7.8370   30.0330   19.7630 C.3       6 GLP5        0.0000 
     82 N           9.5200   31.7215   19.1935 N.am      2 SEC2        0.0000 
     83 N           8.9310   32.9640   18.8830 N.am      8 SEL2        0.0000 
     84 N          10.1090   30.4790   19.5040 N.am      5 SEP2        0.0000 
     85 N           9.2270   34.1055   19.7650 N.am      2 SEC2        0.0000 
     86 N           9.5230   35.2470   20.6470 N.am      5 SEP2        0.0000 
     87 N           7.2825   32.4625   16.8280 N.am      2 SEC2        0.0000 
     88 N           6.5450   32.7470   18.0980 N.am      8 SEL2        0.0000 
     89 N           8.0200   32.1780   15.5580 N.am      5 SEP2        0.0000 
     90 N           5.0915   32.9680   17.7060 N.am      2 SEC2        0.0000 
     91 N           3.6380   33.1890   17.3140 N.am      5 SEP2        0.0000 
     92 N           5.5725   32.2595   18.8900 N.am      2 SEC2        0.0000 
     93 N           4.6000   31.7720   19.6820 N.am      5 SEP2        0.0000 
     94 N           8.4245   35.1125   19.8900 N.am      2 SEC2        0.0000 
     95 N           7.3260   34.9780   19.1330 N.am      8 SEL2        0.0000 
     96 CA          6.6037   40.6725   20.6638 C.3       3 GLC5        0.0000 
     97 CA          7.8460   39.3400   19.7770 C.3       9 GLL5        0.0000 
     98 CA          5.4160   41.5490   22.1440 C.3       6 GLP5        0.0000 
     99 CA         13.8012   38.2215   16.0768 C.3       3 GLC5        0.0000 
    100 CA         12.8900   37.7480   18.0580 C.3       9 GLL5        0.0000 
    101 CA         13.9830   38.6260   14.1920 C.3       6 GLP5        0.0000 
    102 CA         12.6418   39.0350   19.9625 C.3       3 GLC5        0.0000 
    103 CA         -1.0852   30.5360   24.2067 C.3       3 GLC5        0.0000 
    104 CA          0.9890   29.8990   24.7530 C.3       9 GLL5        0.0000 
    105 CA         -2.6990   31.6430   23.8920 C.3       6 GLP5        0.0000 
    106 CA         -1.8127   30.0820   23.3165 C.3       3 GLC5        0.0000 
    107 CA         -0.4110   29.0200   22.9700 C.3       9 GLL5        0.0000 
    108 CA         -1.4472   30.8110   22.6515 C.3       3 GLC5        0.0000 
    109 CA          1.3138   28.8135   21.4715 C.3       3 GLC5        0.0000 
    110 CA         -0.7824   32.0877   21.3765 C.3       3 GLC5        0.0000 
    111 CA          0.0810   30.0240   22.1140 C.3       9 GLL5        0.0000 
    112 CA         -1.9560   33.7090   20.7430 C.3       6 GLP5        0.0000 
    113 CA         -0.7480   31.2910   23.5855 C.3       3 GLC5        0.0000 
    114 CA          2.1791   28.9228   23.4891 C.3       3 GLC5        0.0000 
    115 CA          1.4280   30.9240   23.9490 C.3       9 GLL5        0.0000 
    116 CA          3.3800   27.6690   22.7430 C.3       6 GLP5        0.0000 
    117 CA          4.0075   34.7619   22.3416 C.3       3 GLC5        0.0000 
    118 CA          2.7780   33.0640   23.6560 C.3       9 GLL5        0.0000 
    119 CA          6.9827   32.9665   24.9307 C.3       3 GLC5        0.0000 
    120 CA          8.0430   32.6210   26.6740 C.3       6 GLP5        0.0000 
    121 CA          8.4405   33.9177   21.7022 C.3       3 GLC5        0.0000 
    122 CA          6.5700   33.2210   22.7750 C.3       9 GLL5        0.0000 
    123 CA         10.3860   34.3780   21.3530 C.3       6 GLP5        0.0000 
@<TRIPOS>BOND
@<TRIPOS>SUBSTRUCTURE
     1 ALC1       18 GROUP        1 X    ALC  0     ROOT ALC X 1
     2 SEC2        1 GROUP        1 X    SEC  0     **** SEC X 2
     3 GLC5        9 GROUP        1 X    GLC  0     **** GLC X 6
     4 ALP1       20 GROUP        1 Y    ALP  0     ROOT ALP Y 8
     5 SEP2        3 GROUP        1 Y    SEP  0     **** SEP Y 9
     6 GLP5       11 GROUP        1 Y    GLP  0     **** GLP Y 13
     7 ALL1       19 GROUP        1 Z    ALL  0     ROOT ALL Z 15
     8 SEL2        2 GROUP        1 Z    SEL  0     **** SEL Z 16
     9 GLL5       10 GROUP        1 Z    GLL  0     **** GLL Z 20
@<TRIPOS>SET

