#    Name: 1mbt_FAD_1_ligand
#    Modification time : Tue Mar 25 11:32:14 2014

@<TRIPOS>MOLECULE
1mbt_FAD_1_ligand
   84    89     1     0     0
SMALL
NO_CHARGES


@<TRIPOS>ATOM
      1 PA          6.8580   35.9720   18.0280 P.3       1 FAD401      0.0000 
      2 O1A         7.3340   35.4900   16.6730 O.co2     1 FAD401      0.0000 
      3 O2A         5.3570   36.1650   18.1350 O.co2     1 FAD401      0.0000 
      4 O5B         7.6150   37.3180   18.4310 O.3       1 FAD401      0.0000 
      5 C5B         7.2300   37.9620   19.6360 C.3       1 FAD401      0.0000 
      6 C4B         7.8460   39.3400   19.7770 C.3       1 FAD401      0.0000 
      7 O4B         9.2790   39.1730   19.9640 O.3       1 FAD401      0.0000 
      8 C3B         7.7370   40.2520   18.5900 C.3       1 FAD401      0.0000 
      9 O3B         7.6930   41.6220   19.1000 O.3       1 FAD401      0.0000 
     10 C2B         8.9990   39.9440   17.7700 C.3       1 FAD401      0.0000 
     11 O2B         9.4490   40.9870   16.9090 O.3       1 FAD401      0.0000 
     12 C1B        10.0240   39.6540   18.8360 C.3       1 FAD401      0.0000 
     13 N9A        11.0120   38.6500   18.5730 N.pl3     1 FAD401      0.0000 
     14 C8A        10.5670   37.3960   18.2940 C.2       1 FAD401      0.0000 
     15 N7A        11.8140   36.7140   18.0040 N.2       1 FAD401      0.0000 
     16 C5A        12.8900   37.7480   18.0580 C.ar      1 FAD401      0.0000 
     17 C6A        14.3490   37.8860   17.8650 C.ar      1 FAD401      0.0000 
     18 N6A        15.1140   36.8530   17.5490 N.pl3     1 FAD401      0.0000 
     19 N1A        14.9430   39.1180   17.9920 N.ar      1 FAD401      0.0000 
     20 C2A        14.1620   40.1850   18.2920 C.ar      1 FAD401      0.0000 
     21 N3A        12.8840   40.1870   18.5100 N.ar      1 FAD401      0.0000 
     22 C4A        12.3230   38.9180   18.3700 C.ar      1 FAD401      0.0000 
     23 N1          3.6050   32.8490   26.2720 N.2       1 FAD401      0.0000 
     24 C2          4.0540   32.7980   27.5680 C.2       1 FAD401      0.0000 
     25 O2          4.7700   33.6510   28.0230 O.2       1 FAD401      0.0000 
     26 N3          3.6680   31.7640   28.3500 N.am      1 FAD401      0.0000 
     27 C4          2.8970   30.7530   27.9370 C.2       1 FAD401      0.0000 
     28 O4          2.6060   29.8070   28.6410 O.2       1 FAD401      0.0000 
     29 C4X         2.3410   30.7910   26.5190 C.2       1 FAD401      0.0000 
     30 N5          1.4950   29.8130   26.0210 N.2       1 FAD401      0.0000 
     31 C5X         0.9890   29.8990   24.7530 C.ar      1 FAD401      0.0000 
     32 C6          0.0680   28.9590   24.2900 C.ar      1 FAD401      0.0000 
     33 C7         -0.4110   29.0200   22.9700 C.ar      1 FAD401      0.0000 
     34 C7M        -1.4420   28.0220   22.5120 C.3       1 FAD401      0.0000 
     35 C8          0.0810   30.0240   22.1140 C.ar      1 FAD401      0.0000 
     36 C8M        -0.4720   29.9340   20.7080 C.3       1 FAD401      0.0000 
     37 C9          0.9780   30.9540   22.6090 C.ar      1 FAD401      0.0000 
     38 C9A         1.4280   30.9240   23.9490 C.ar      1 FAD401      0.0000 
     39 N10         2.3050   31.9080   24.4610 N.pl3     1 FAD401      0.0000 
     40 C10         2.7870   31.9140   25.7360 C.2       1 FAD401      0.0000 
     41 C1'         2.7780   33.0640   23.6560 C.3       1 FAD401      0.0000 
     42 C2'         4.0840   32.7170   22.9130 C.3       1 FAD401      0.0000 
     43 O2'         4.3160   31.3330   22.7650 O.3       1 FAD401      0.0000 
     44 C3'         5.2750   33.4030   23.6000 C.3       1 FAD401      0.0000 
     45 O3'         5.0260   34.7640   23.8940 O.3       1 FAD401      0.0000 
     46 C4'         6.5700   33.2210   22.7750 C.3       1 FAD401      0.0000 
     47 O4'         7.6960   33.8270   23.3870 O.3       1 FAD401      0.0000 
     48 C5'         6.4200   33.6940   21.3280 C.3       1 FAD401      0.0000 
     49 O5'         7.0800   32.7520   20.4830 O.3       1 FAD401      0.0000 
     50 P           7.4780   33.3430   19.1170 P.3       1 FAD401      0.0000 
     51 O1P         8.9310   32.9640   18.8830 O.co2     1 FAD401      0.0000 
     52 O2P         6.5450   32.7470   18.0980 O.co2     1 FAD401      0.0000 
     53 O3P         7.3260   34.9780   19.1330 O.3       1 FAD401      0.0000 
     54 H           7.5266   37.3692   20.5257 H         1 FAD401      0.0000 
     55 H           6.1285   38.0786   19.6999 H         1 FAD401      0.0000 
     56 H           7.4444   39.8347   20.6454 H         1 FAD401      0.0000 
     57 H           6.8842   39.9907   18.0349 H         1 FAD401      0.0000 
     58 H           8.8199   39.0118   17.2490 H         1 FAD401      0.0000 
     59 H          10.4923   40.5936   19.1293 H         1 FAD401      0.0000 
     60 H           9.7462   37.0319   18.2772 H         1 FAD401      0.0000 
     61 H          14.6706   36.1176   17.0365 H         1 FAD401      0.0000 
     62 H          16.0660   36.9016   17.8514 H         1 FAD401      0.0000 
     63 H          14.6932   41.1462   18.3519 H         1 FAD401      0.0000 
     64 H           4.0065   31.7609   29.3685 H         1 FAD401      0.0000 
     65 H          -0.2658   28.2140   24.9156 H         1 FAD401      0.0000 
     66 H           1.3403   31.7041   21.9857 H         1 FAD401      0.0000 
     67 H           2.9692   33.9253   24.2995 H         1 FAD401      0.0000 
     68 H           2.0275   33.3463   22.9146 H         1 FAD401      0.0000 
     69 H           4.0036   33.2024   21.9101 H         1 FAD401      0.0000 
     70 H           5.4469   32.8374   24.5502 H         1 FAD401      0.0000 
     71 H           6.7397   32.1126   22.7165 H         1 FAD401      0.0000 
     72 H           6.8605   34.6875   21.2540 H         1 FAD401      0.0000 
     73 H           5.3554   33.7638   21.1081 H         1 FAD401      0.0000 
     74 H          -1.1085   27.0823   22.5876 H         1 FAD401      0.0000 
     75 H          -2.2809   28.0798   23.0532 H         1 FAD401      0.0000 
     76 H          -1.6992   28.1657   21.5564 H         1 FAD401      0.0000 
     77 H          -0.1055   30.6534   20.1180 H         1 FAD401      0.0000 
     78 H          -0.2496   29.0596   20.2767 H         1 FAD401      0.0000 
     79 H          -1.4680   30.0227   20.6943 H         1 FAD401      0.0000 
     80 H           8.6156   41.8004   19.4421 H         1 FAD401      0.0000 
     81 H           9.7500   40.5229   16.0759 H         1 FAD401      0.0000 
     82 H           4.6878   31.2303   21.8424 H         1 FAD401      0.0000 
     83 H           4.1093   34.9424   23.5364 H         1 FAD401      0.0000 
     84 H           8.3612   33.0880   23.4941 H         1 FAD401      0.0000 
@<TRIPOS>BOND
     1    2    1 ar   
     2    3    1 ar   
     3    4    1 1    
     4   53    1 1    
     5    5    4 1    
     6    6    5 1    
     7   54    5 1    
     8   55    5 1    
     9    7    6 1    
    10    8    6 1    
    11   56    6 1    
    12   12    7 1    
    13    9    8 1    
    14   10    8 1    
    15   57    8 1    
    16   80    9 1    
    17   11   10 1    
    18   12   10 1    
    19   58   10 1    
    20   81   11 1    
    21   13   12 1    
    22   59   12 1    
    23   14   13 1    
    24   22   13 1    
    25   15   14 2    
    26   60   14 1    
    27   16   15 1    
    28   17   16 ar   
    29   22   16 ar   
    30   18   17 1    
    31   19   17 ar   
    32   61   18 1    
    33   62   18 1    
    34   20   19 ar   
    35   21   20 ar   
    36   63   20 1    
    37   22   21 ar   
    38   24   23 1    
    39   40   23 2    
    40   25   24 2    
    41   26   24 am   
    42   27   26 am   
    43   64   26 1    
    44   28   27 2    
    45   29   27 1    
    46   30   29 2    
    47   40   29 1    
    48   31   30 1    
    49   32   31 ar   
    50   38   31 ar   
    51   33   32 ar   
    52   65   32 1    
    53   34   33 1    
    54   35   33 ar   
    55   74   34 1    
    56   75   34 1    
    57   76   34 1    
    58   36   35 1    
    59   37   35 ar   
    60   77   36 1    
    61   78   36 1    
    62   79   36 1    
    63   38   37 ar   
    64   66   37 1    
    65   39   38 1    
    66   40   39 1    
    67   41   39 1    
    68   42   41 1    
    69   67   41 1    
    70   68   41 1    
    71   43   42 1    
    72   44   42 1    
    73   69   42 1    
    74   82   43 1    
    75   45   44 1    
    76   46   44 1    
    77   70   44 1    
    78   83   45 1    
    79   47   46 1    
    80   48   46 1    
    81   71   46 1    
    82   84   47 1    
    83   49   48 1    
    84   72   48 1    
    85   73   48 1    
    86   50   49 1    
    87   51   50 ar   
    88   52   50 ar   
    89   53   50 1    
@<TRIPOS>SUBSTRUCTURE
     1 FAD401      1 GROUP   
@<TRIPOS>SET

