#    Name: 3uk2_AMP_2_INTS_M
#    Modification time : Mon Mar 24 22:37:41 2014

@<TRIPOS>MOLECULE
3uk2_AMP_2_INTS_M
   60     0     9     0     0
SMALL
NO_CHARGES


@<TRIPOS>ATOM
      1 N          55.4210   11.3820  -18.4260 N.am      2 SEC2        0.0000 
      2 N          56.6800   11.6560  -17.9060 N.am      8 SEL2        0.0000 
      3 N          54.1620   11.1080  -18.9460 N.am      5 SEP2        0.0000 
      4 N          60.4190   12.1420  -17.4105 N.am      2 SEC2        0.0000 
      5 N          59.2810   11.2130  -17.6870 N.am      8 SEL2        0.0000 
      6 N          61.5570   13.0710  -17.1340 N.am      5 SEP2        0.0000 
      7 N          59.5440    9.8370  -17.6645 N.am      2 SEC2        0.0000 
      8 N          59.8070    8.4610  -17.6420 N.am      5 SEP2        0.0000 
      9 CA         60.8790   11.6250  -19.9365 C.3       3 GLC5        0.0000 
     10 CA         59.2970   10.9310  -20.6090 C.3       9 GLL5        0.0000 
     11 CA         62.4610   12.3190  -19.2640 C.3       6 GLP5        0.0000 
     12 N          57.6175   10.2180  -25.2405 N.am      2 SEC2        0.0000 
     13 N          58.2080   10.9800  -24.1230 N.am      8 SEL2        0.0000 
     14 N          57.0270    9.4560  -26.3580 N.am      5 SEP2        0.0000 
     15 O          59.5265   11.4150  -24.3020 O.2       1 ALC1        0.0000 
     16 O          58.2080   10.9800  -24.1230 O.2       7 ALL1        0.0000 
     17 O          60.8450   11.8500  -24.4810 O.2       4 ALP1        0.0000 
     18 N          56.3015    9.9175  -24.8375 N.am      2 SEC2        0.0000 
     19 N          55.5760   10.3790  -23.3170 N.am      8 SEL2        0.0000 
     20 O          54.7175   10.9200  -22.4845 O.2       1 ALC1        0.0000 
     21 O          55.5760   10.3790  -23.3170 O.2       7 ALL1        0.0000 
     22 O          53.8590   11.4610  -21.6520 O.2       4 ALP1        0.0000 
     23 CA         58.5895    8.2570  -23.5280 C.3       3 GLC5        0.0000 
     24 CA         57.2580    8.8920  -22.3730 C.3       9 GLL5        0.0000 
     25 CA         59.9210    7.6220  -24.6830 C.3       6 GLP5        0.0000 
     26 CA         52.8535    4.3365  -21.9225 C.3       3 GLC5        0.0000 
     27 CA         54.6850    4.9130  -21.0630 C.3       9 GLL5        0.0000 
     28 CA         51.0220    3.7600  -22.7820 C.3       6 GLP5        0.0000 
     29 CA         54.9740    2.7610  -21.3775 C.3       3 GLC5        0.0000 
     30 CA         55.2630    0.6090  -21.6920 C.3       6 GLP5        0.0000 
     31 O          53.3935    2.9800  -20.1170 O.2       1 ALC1        0.0000 
     32 O          53.9770    4.3350  -20.0690 O.2       7 ALL1        0.0000 
     33 O          52.8100    1.6250  -20.1650 O.2       4 ALP1        0.0000 
     34 O          53.6190    4.9455  -18.8130 O.2       1 ALC1        0.0000 
     35 O          53.2610    5.5560  -17.5570 O.2       4 ALP1        0.0000 
     36 N          54.2270    3.1050  -22.5975 N.am      2 SEC2        0.0000 
     37 N          54.8480    4.3180  -22.2660 N.am      8 SEL2        0.0000 
     38 N          53.6060    1.8920  -22.9290 N.am      5 SEP2        0.0000 
     39 CA         56.7395    3.8865  -21.7130 C.3       3 GLC5        0.0000 
     40 CA         55.5410    4.9090  -23.2630 C.3       9 GLL5        0.0000 
     41 CA         57.9380    2.8640  -20.1630 C.3       6 GLP5        0.0000 
     42 CA         57.2795    5.0730  -23.9450 C.3       3 GLC5        0.0000 
     43 CA         59.0180    5.2370  -24.6270 C.3       6 GLP5        0.0000 
     44 CA         53.8600    6.2565  -22.9360 C.3       3 GLC5        0.0000 
     45 CA         52.1790    7.6040  -22.6090 C.3       6 GLP5        0.0000 
     46 CA         54.1060    4.0740  -23.9760 C.3       3 GLC5        0.0000 
     47 CA         52.6710    3.2390  -24.6890 C.3       6 GLP5        0.0000 
     48 CA         55.8590    2.7310  -23.0945 C.3       3 GLC5        0.0000 
     49 CA         56.1770    0.5530  -22.9260 C.3       6 GLP5        0.0000 
     50 CA         57.5170    6.0280  -23.3015 C.3       3 GLC5        0.0000 
     51 CA         56.0160    6.8190  -21.9760 C.3       9 GLL5        0.0000 
     52 CA         59.8470    9.2785  -19.9648 C.3       3 GLC5        0.0000 
     53 CA         59.0070   10.3290  -21.9860 C.3       9 GLL5        0.0000 
     54 CA         60.5420    7.9270  -18.6320 C.3       6 GLP5        0.0000 
     55 CA         59.1870    9.1585  -23.5195 C.3       3 GLC5        0.0000 
     56 CA         56.4918    8.9965  -24.2888 C.3       3 GLC5        0.0000 
     57 CA         56.0230    8.4100  -26.1990 C.3       6 GLP5        0.0000 
     58 CA         56.4633    4.2207  -20.5585 C.3       3 GLC5        0.0000 
     59 CA         55.2920    6.2420  -20.8450 C.3       9 GLL5        0.0000 
     60 CA         53.8406    6.9011  -22.0370 C.3       3 GLC5        0.0000 
@<TRIPOS>BOND
@<TRIPOS>SUBSTRUCTURE
     1 ALC1       15 GROUP        1 X    ALC  0     ROOT ALC X 1
     2 SEC2        1 GROUP        1 X    SEC  0     **** SEC X 2
     3 GLC5        9 GROUP        1 X    GLC  0     **** GLC X 6
     4 ALP1       17 GROUP        1 Y    ALP  0     ROOT ALP Y 8
     5 SEP2        3 GROUP        1 Y    SEP  0     **** SEP Y 9
     6 GLP5       11 GROUP        1 Y    GLP  0     **** GLP Y 13
     7 ALL1       16 GROUP        1 Z    ALL  0     ROOT ALL Z 15
     8 SEL2        2 GROUP        1 Z    SEL  0     **** SEL Z 16
     9 GLL5       10 GROUP        1 Z    GLL  0     **** GLL Z 20
@<TRIPOS>SET

