#    Name: 3uk2_AMP_2_ligand
#    Modification time : Mon Mar 24 22:37:41 2014

@<TRIPOS>MOLECULE
3uk2_AMP_2_ligand
   35    37     1     0     0
SMALL
NO_CHARGES


@<TRIPOS>ATOM
      1 P          58.0780   11.7980  -18.4090 P.3       1 AMP280      0.0000 
      2 O1P        56.6800   11.6560  -17.9060 O.co2     1 AMP280      0.0000 
      3 O2P        58.3680   13.2630  -18.7420 O.co2     1 AMP280      0.0000 
      4 O3P        59.2810   11.2130  -17.6870 O.co2     1 AMP280      0.0000 
      5 O5'        58.0990   11.0380  -19.8480 O.3       1 AMP280      0.0000 
      6 C5'        59.2970   10.9310  -20.6090 C.3       1 AMP280      0.0000 
      7 C4'        59.0070   10.3290  -21.9860 C.3       1 AMP280      0.0000 
      8 O4'        58.5760    8.9770  -21.8580 O.3       1 AMP280      0.0000 
      9 C3'        57.8990   11.0610  -22.7260 C.3       1 AMP280      0.0000 
     10 O3'        58.2080   10.9800  -24.1230 O.3       1 AMP280      0.0000 
     11 C2'        56.6630   10.2740  -22.3840 C.3       1 AMP280      0.0000 
     12 O2'        55.5760   10.3790  -23.3170 O.3       1 AMP280      0.0000 
     13 C1'        57.2580    8.8920  -22.3730 C.3       1 AMP280      0.0000 
     14 N9         56.4510    7.9940  -21.5520 N.pl3     1 AMP280      0.0000 
     15 C8         56.0790    8.1780  -20.2750 C.2       1 AMP280      0.0000 
     16 N7         55.3410    7.1250  -19.8340 N.2       1 AMP280      0.0000 
     17 C5         55.2920    6.2420  -20.8450 C.ar      1 AMP280      0.0000 
     18 C6         54.6850    4.9130  -21.0630 C.ar      1 AMP280      0.0000 
     19 N6         53.9770    4.3350  -20.0690 N.pl3     1 AMP280      0.0000 
     20 N1         54.8480    4.3180  -22.2660 N.ar      1 AMP280      0.0000 
     21 C2         55.5410    4.9090  -23.2630 C.ar      1 AMP280      0.0000 
     22 N3         56.1110    6.1270  -23.1300 N.ar      1 AMP280      0.0000 
     23 C4         56.0160    6.8190  -21.9760 C.ar      1 AMP280      0.0000 
     24 H          60.0391   10.2866  -20.1154 H         1 AMP280      0.0000 
     25 H          59.7691   11.9114  -20.7689 H         1 AMP280      0.0000 
     26 H          59.9037   10.3838  -22.5865 H         1 AMP280      0.0000 
     27 H          57.8313   12.0319  -22.3575 H         1 AMP280      0.0000 
     28 H          56.3939   10.5056  -21.3735 H         1 AMP280      0.0000 
     29 H          57.2748    8.5320  -23.3976 H         1 AMP280      0.0000 
     30 H          56.3036    8.9594  -19.7289 H         1 AMP280      0.0000 
     31 H          53.6384    3.4115  -20.2494 H         1 AMP280      0.0000 
     32 H          53.8542    4.8818  -19.2408 H         1 AMP280      0.0000 
     33 H          55.6420    4.3983  -24.1853 H         1 AMP280      0.0000 
     34 H          59.1960   10.8306  -24.1611 H         1 AMP280      0.0000 
     35 H          54.8224   10.7754  -22.7926 H         1 AMP280      0.0000 
@<TRIPOS>BOND
     1    2    1 ar   
     2    3    1 ar   
     3    4    1 ar   
     4    5    1 1    
     5    6    5 1    
     6    7    6 1    
     7   24    6 1    
     8   25    6 1    
     9    8    7 1    
    10    9    7 1    
    11   26    7 1    
    12   13    8 1    
    13   10    9 1    
    14   11    9 1    
    15   27    9 1    
    16   34   10 1    
    17   12   11 1    
    18   13   11 1    
    19   28   11 1    
    20   35   12 1    
    21   14   13 1    
    22   29   13 1    
    23   15   14 1    
    24   23   14 1    
    25   16   15 2    
    26   30   15 1    
    27   17   16 1    
    28   18   17 ar   
    29   23   17 ar   
    30   19   18 1    
    31   20   18 ar   
    32   31   19 1    
    33   32   19 1    
    34   21   20 ar   
    35   22   21 ar   
    36   33   21 1    
    37   23   22 ar   
@<TRIPOS>SUBSTRUCTURE
     1 AMP280      1 GROUP   
@<TRIPOS>SET

