#    Name: 3r9d_X6B_1_INTS_M
#    Modification time : Tue Mar 25 11:16:52 2014

@<TRIPOS>MOLECULE
3r9d_X6B_1_INTS_M
   67     0     9     0     0
SMALL
NO_CHARGES


@<TRIPOS>ATOM
      1 N          64.2405   82.6160  -15.9225 N.am      2 SEC2        0.0000 
      2 N          65.1710   81.9830  -14.8380 N.am      8 SEL2        0.0000 
      3 N          63.3100   83.2490  -17.0070 N.am      5 SEP2        0.0000 
      4 O          62.8580   83.0755  -13.9490 O.2       1 ALC1        0.0000 
      5 O          63.8800   82.5740  -13.0730 O.2       7 ALL1        0.0000 
      6 O          61.8360   83.5770  -14.8250 O.2       4 ALP1        0.0000 
      7 O          66.6725   81.9545  -17.4660 O.2       1 ALC1        0.0000 
      8 O          66.7300   81.1380  -16.3210 O.2       7 ALL1        0.0000 
      9 O          66.6150   82.7710  -18.6110 O.2       4 ALP1        0.0000 
     10 O          61.5655   79.6280   -7.6615 O.2       1 ALC1        0.0000 
     11 O          61.3280   81.0640   -7.0270 O.2       7 ALL1        0.0000 
     12 O          61.8030   78.1920   -8.2960 O.2       4 ALP1        0.0000 
     13 CA         63.1795   79.5190  -12.2395 C.3       3 GLC5        0.0000 
     14 CA         63.3140   81.1520  -11.1770 C.3       9 GLL5        0.0000 
     15 CA         63.0450   77.8860  -13.3020 C.3       6 GLP5        0.0000 
     16 CA         71.1975   76.3855   -9.3125 C.3       3 GLC5        0.0000 
     17 CA         70.4920   76.4860  -11.3750 C.3       9 GLL5        0.0000 
     18 CA         71.9030   76.2850   -7.2500 C.3       6 GLP5        0.0000 
     19 CA         73.2945   77.0350  -11.5515 C.3       3 GLC5        0.0000 
     20 CA         71.6570   76.5520  -12.1960 C.3       9 GLL5        0.0000 
     21 CA         74.9320   77.5180  -10.9070 C.3       6 GLP5        0.0000 
     22 N          59.4320   79.9430   -9.9305 N.am      2 SEC2        0.0000 
     23 N          59.4210   80.8180   -8.6780 N.am      8 SEL2        0.0000 
     24 N          59.4430   79.0680  -11.1830 N.am      5 SEP2        0.0000 
     25 N          58.5825   83.4245   -8.7770 N.am      2 SEC2        0.0000 
     26 N          59.8750   83.0130   -7.9380 N.am      8 SEL2        0.0000 
     27 N          57.2900   83.8360   -9.6160 N.am      5 SEP2        0.0000 
     28 CA         72.8125   78.5255  -15.2910 C.3       3 GLC5        0.0000 
     29 CA         72.8110   77.5530  -14.0230 C.3       9 GLL5        0.0000 
     30 CA         72.8140   79.4980  -16.5590 C.3       6 GLP5        0.0000 
     31 CA         65.7270   81.8530  -10.7915 C.3       3 GLC5        0.0000 
     32 CA         65.9590   80.8970  -12.6280 C.3       9 GLL5        0.0000 
     33 CA         65.4950   82.8090   -8.9550 C.3       6 GLP5        0.0000 
     34 CA         67.2360   82.3475  -13.7720 C.3       3 GLC5        0.0000 
     35 CA         68.5130   83.7980  -14.9160 C.3       6 GLP5        0.0000 
     36 CA         65.2465   79.6860  -13.9215 C.3       3 GLC5        0.0000 
     37 CA         64.5340   78.4750  -15.2150 C.3       6 GLP5        0.0000 
     38 CA         68.1150   81.4813  -12.2790 C.3       3 GLC5        0.0000 
     39 CA         66.8590   80.5400  -14.0620 C.3       9 GLL5        0.0000 
     40 CA         69.8210   82.2440  -11.2130 C.3       6 GLP5        0.0000 
     41 CA         67.5420   82.3370  -14.7575 C.3       3 GLC5        0.0000 
     42 CA         65.5525   79.6755  -14.9070 C.3       3 GLC5        0.0000 
     43 CA         66.2830   81.2120  -15.1360 C.3       9 GLL5        0.0000 
     44 CA         64.0835   82.8102  -10.3933 C.3       3 GLC5        0.0000 
     45 CA         63.1660   82.3290  -12.0070 C.3       9 GLL5        0.0000 
     46 CA         60.2197   82.1760  -11.6597 C.3       3 GLC5        0.0000 
     47 CA         62.1780   83.2940  -11.6560 C.3       9 GLL5        0.0000 
     48 CA         58.6730   81.1510  -12.2320 C.3       6 GLP5        0.0000 
     49 CA         63.4627   82.6687   -9.5360 C.3       3 GLC5        0.0000 
     50 CA         61.3550   83.1080  -10.5190 C.3       9 GLL5        0.0000 
     51 CA         60.3338   81.3053  -11.0538 C.3       3 GLC5        0.0000 
     52 CA         62.4830   80.9700  -10.0360 C.3       9 GLL5        0.0000 
     53 CA         64.1968   81.9350   -9.7807 C.3       3 GLC5        0.0000 
     54 CA         62.0168   79.2190  -10.5128 C.3       3 GLC5        0.0000 
     55 CA         61.1350   77.3770  -10.4190 C.3       6 GLP5        0.0000 
     56 CA         70.1685   79.0935  -11.0780 C.3       3 GLC5        0.0000 
     57 CA         69.3950   77.3660  -11.6240 C.3       9 GLL5        0.0000 
     58 CA         70.9100   80.3480  -10.0010 C.3       6 GLP5        0.0000 
     59 CA         70.9922   78.4335  -10.8932 C.3       3 GLC5        0.0000 
     60 CA         70.4611   75.2335  -12.4559 C.3       3 GLC5        0.0000 
     61 CA         70.1220   73.7280  -13.0640 C.3       6 GLP5        0.0000 
     62 CA         71.0470   79.1395  -11.6913 C.3       3 GLC5        0.0000 
     63 CA         71.7290   77.4910  -13.2590 C.3       9 GLL5        0.0000 
     64 CA         71.4635   75.6920  -14.0605 C.3       3 GLC5        0.0000 
     65 CA         70.6570   73.8620  -14.4800 C.3       6 GLP5        0.0000 
     66 CA         73.3902   78.1390  -12.8676 C.3       3 GLC5        0.0000 
     67 CA         74.7830   78.5360  -12.0330 C.3       6 GLP5        0.0000 
@<TRIPOS>BOND
@<TRIPOS>SUBSTRUCTURE
     1 ALC1        4 GROUP        1 X    ALC  0     ROOT ALC X 1
     2 SEC2        1 GROUP        1 X    SEC  0     **** SEC X 2
     3 GLC5       13 GROUP        1 X    GLC  0     **** GLC X 6
     4 ALP1        6 GROUP        1 Y    ALP  0     ROOT ALP Y 8
     5 SEP2        3 GROUP        1 Y    SEP  0     **** SEP Y 9
     6 GLP5       15 GROUP        1 Y    GLP  0     **** GLP Y 13
     7 ALL1        5 GROUP        1 Z    ALL  0     ROOT ALL Z 15
     8 SEL2        2 GROUP        1 Z    SEL  0     **** SEL Z 16
     9 GLL5       14 GROUP        1 Z    GLL  0     **** GLL Z 20
@<TRIPOS>SET

