#    Name: 3r9d_X6B_1_ligand
#    Modification time : Tue Mar 25 11:16:52 2014

@<TRIPOS>MOLECULE
3r9d_X6B_1_ligand
   41    43     1     0     0
SMALL
NO_CHARGES


@<TRIPOS>ATOM
      1 N01        65.1710   81.9830  -14.8380 N.2       1 X6B590      0.0000 
      2 N02        63.8800   82.5740  -13.0730 N.pl3     1 X6B590      0.0000 
      3 N03        68.3860   79.1500  -12.8820 N.am      1 X6B590      0.0000 
      4 N04        66.7300   81.1380  -16.3210 N.pl3     1 X6B590      0.0000 
      5 N05        61.3280   81.0640   -7.0270 N.pl3     1 X6B590      0.0000 
      6 C06        66.8590   80.5400  -14.0620 C.2       1 X6B590      0.0000 
      7 C07        66.2830   81.2120  -15.1360 C.2       1 X6B590      0.0000 
      8 C08        64.8950   81.9070  -13.5540 C.2       1 X6B590      0.0000 
      9 C09        63.1660   82.3290  -12.0070 C.ar      1 X6B590      0.0000 
     10 C10        67.9660   79.7110  -14.0900 C.2       1 X6B590      0.0000 
     11 C11        62.1780   83.2940  -11.6560 C.ar      1 X6B590      0.0000 
     12 C12        61.3550   83.1080  -10.5190 C.ar      1 X6B590      0.0000 
     13 C13        61.5060   81.9490   -9.7150 C.ar      1 X6B590      0.0000 
     14 C14        62.4830   80.9700  -10.0360 C.ar      1 X6B590      0.0000 
     15 C15        63.3140   81.1520  -11.1770 C.ar      1 X6B590      0.0000 
     16 C16        69.4590   78.3120  -12.6860 C.ar      1 X6B590      0.0000 
     17 C17        69.3950   77.3660  -11.6240 C.ar      1 X6B590      0.0000 
     18 C18        70.4920   76.4860  -11.3750 C.ar      1 X6B590      0.0000 
     19 C19        71.6570   76.5520  -12.1960 C.ar      1 X6B590      0.0000 
     20 C20        71.7290   77.4910  -13.2590 C.ar      1 X6B590      0.0000 
     21 C21        70.6390   78.3710  -13.5040 C.ar      1 X6B590      0.0000 
     22 O22        68.5620   79.4860  -15.1440 O.2       1 X6B590      0.0000 
     23 O23        59.4210   80.8180   -8.6780 O.2       1 X6B590      0.0000 
     24 O24        59.8750   83.0130   -7.9380 O.2       1 X6B590      0.0000 
     25 F25        72.8110   77.5530  -14.0230 F         1 X6B590      0.0000 
     26 S26        65.9590   80.8970  -12.6280 S.3       1 X6B590      0.0000 
     27 S27        60.4570   81.7260   -8.3030 S.o2      1 X6B590      0.0000 
     28 H          63.5811   83.4798  -13.6541 H         1 X6B590      0.0000 
     29 H          67.7997   79.4067  -12.0122 H         1 X6B590      0.0000 
     30 H          67.5389   80.5647  -16.4511 H         1 X6B590      0.0000 
     31 H          66.2311   81.6600  -17.0129 H         1 X6B590      0.0000 
     32 H          61.4014   81.6282   -6.2047 H         1 X6B590      0.0000 
     33 H          61.7107   80.1531   -7.1812 H         1 X6B590      0.0000 
     34 H          62.0650   84.1306  -12.2355 H         1 X6B590      0.0000 
     35 H          60.6530   83.8068  -10.2769 H         1 X6B590      0.0000 
     36 H          62.5895   80.1437   -9.4554 H         1 X6B590      0.0000 
     37 H          64.0164   80.4601  -11.4189 H         1 X6B590      0.0000 
     38 H          68.5634   77.3149  -11.0376 H         1 X6B590      0.0000 
     39 H          70.4423   75.8149  -10.6149 H         1 X6B590      0.0000 
     40 H          72.4377   75.9227  -12.0169 H         1 X6B590      0.0000 
     41 H          70.6887   79.0491  -14.2618 H         1 X6B590      0.0000 
@<TRIPOS>BOND
     1    7    1 1    
     2    8    1 2    
     3    8    2 1    
     4    9    2 1    
     5   28    2 1    
     6   10    3 am   
     7   16    3 1    
     8   29    3 1    
     9    7    4 1    
    10   30    4 1    
    11   31    4 1    
    12   27    5 1    
    13   32    5 1    
    14   33    5 1    
    15    7    6 2    
    16   10    6 1    
    17   26    6 1    
    18   26    8 1    
    19   11    9 ar   
    20   15    9 ar   
    21   22   10 2    
    22   12   11 ar   
    23   34   11 1    
    24   13   12 ar   
    25   35   12 1    
    26   14   13 ar   
    27   27   13 1    
    28   15   14 ar   
    29   36   14 1    
    30   37   15 1    
    31   17   16 ar   
    32   21   16 ar   
    33   18   17 ar   
    34   38   17 1    
    35   19   18 ar   
    36   39   18 1    
    37   20   19 ar   
    38   40   19 1    
    39   21   20 ar   
    40   25   20 1    
    41   41   21 1    
    42   27   23 2    
    43   27   24 2    
@<TRIPOS>SUBSTRUCTURE
     1 X6B590      1 GROUP   
@<TRIPOS>SET

