#    Name: 4lj3_C2E_4_INTS_M
#    Modification time : Tue Mar 25 11:15:17 2014

@<TRIPOS>MOLECULE
4lj3_C2E_4_INTS_M
   67     0    12     0     0
SMALL
NO_CHARGES


@<TRIPOS>ATOM
      1 N           4.8585   19.7370   13.1300 N.am      2 SEC2        0.0000 
      2 N           4.3700   19.6920   11.8050 N.am     10 SEL2        0.0000 
      3 N           5.3470   19.7820   14.4550 N.am      6 SEP2        0.0000 
      4 N           4.5250   18.5875   13.6325 N.am      2 SEC2        0.0000 
      5 N           3.7030   17.3930   12.8100 N.am     10 SEL2        0.0000 
      6 CA          3.5395   15.0070    5.3960 C.3       4 GLC5        0.0000 
      7 CA          3.6210   14.7370    7.5270 C.3      12 GLL5        0.0000 
      8 CA          3.4580   15.2770    3.2650 C.3       8 GLP5        0.0000 
      9 N          -0.5335   13.5090    6.1395 N.am      2 SEC2        0.0000 
     10 N          -0.2150   12.8350    7.5380 N.am     10 SEL2        0.0000 
     11 N          -0.8520   14.1830    4.7410 N.am      6 SEP2        0.0000 
     12 CA         -1.6675   12.0965    7.1905 C.3       4 GLC5        0.0000 
     13 CA          0.2510   11.6270    7.9580 C.3      12 GLL5        0.0000 
     14 CA         -3.5860   12.5660    6.4230 C.3       8 GLP5        0.0000 
     15 N          -2.0460   10.3245    6.5550 N.am      2 SEC2        0.0000 
     16 N          -1.4410   10.0130    7.7650 N.am     10 SEL2        0.0000 
     17 N          -2.6510   10.6360    5.3450 N.am      6 SEP2        0.0000 
     18 O           0.3035    8.0235    8.8410 O.2       1 ALC1        0.0000 
     19 O           0.5480    9.3340    8.5780 O.2       9 ALL1        0.0000 
     20 O           0.0590    6.7130    9.1040 O.2       5 ALP1        0.0000 
     21 O           1.3475    7.6645    9.2765 O.2       1 ALC1        0.0000 
     22 O           2.6360    8.6160    9.4490 O.2       9 ALL1        0.0000 
     23 N           3.1325   10.8685   10.2445 N.am      2 SEC2        0.0000 
     24 N           2.3850   10.8120    8.8720 N.am     10 SEL2        0.0000 
     25 N           3.8800   10.9250   11.6170 N.am      6 SEP2        0.0000 
     26 NZ          7.7525   16.2635    5.3110 N.4       3 LYC4        0.0000 
     27 NZ          7.0330   16.0270    6.4530 N.4      11 LYL4        0.0000 
     28 NZ          8.1030   15.4440    3.4600 N.4       7 LYP4        0.0000 
     29 N           7.7525   16.2635    5.3110 N.am      2 SEC2        0.0000 
     30 N           7.0330   16.0270    6.4530 N.am     10 SEL2        0.0000 
     31 N           8.4720   16.5000    4.1690 N.am      6 SEP2        0.0000 
     32 N           7.0150   15.4075    5.1265 N.am      2 SEC2        0.0000 
     33 N           6.9970   14.7880    3.8000 N.am      6 SEP2        0.0000 
     34 CA          9.1925   16.5210    8.5905 C.3       4 GLC5        0.0000 
     35 CA          7.9610   16.0740   10.1360 C.3      12 GLL5        0.0000 
     36 CA         10.4240   16.9680    7.0450 C.3       8 GLP5        0.0000 
     37 CA          6.0375   18.6840    9.0245 C.3       4 GLC5        0.0000 
     38 CA          6.8570   18.2040   10.9720 C.3      12 GLL5        0.0000 
     39 CA          5.2180   19.1640    7.0770 C.3       8 GLP5        0.0000 
     40 O           6.5195   19.6780   13.6250 O.2       1 ALC1        0.0000 
     41 O           7.6920   19.5740   12.7950 O.2       9 ALL1        0.0000 
     42 O           5.3470   19.7820   14.4550 O.2       5 ALP1        0.0000 
     43 CA         10.1675   18.5890    9.2925 C.3       4 GLC5        0.0000 
     44 CA          8.8750   19.4970   10.7270 C.3      12 GLL5        0.0000 
     45 CA         11.4600   17.6810    7.8580 C.3       8 GLP5        0.0000 
     46 N           8.6040   20.8145    5.7700 N.am      2 SEC2        0.0000 
     47 N           8.5330   20.8890    7.3620 N.am     10 SEL2        0.0000 
     48 N           8.6750   20.7400    4.1780 N.am      6 SEP2        0.0000 
     49 CA         10.2305   21.5535    6.7635 C.3       4 GLC5        0.0000 
     50 CA          9.0020   21.9680    8.0590 C.3      12 GLL5        0.0000 
     51 CA         11.4590   21.1390    5.4680 C.3       8 GLP5        0.0000 
     52 CA         11.1215   21.9945    8.4550 C.3       4 GLC5        0.0000 
     53 CA         13.2410   22.0210    8.8510 C.3       8 GLP5        0.0000 
     54 O          11.2750   24.0130   12.4120 O.2       1 ALC1        0.0000 
     55 O          10.4150   24.4460   11.0700 O.2       9 ALL1        0.0000 
     56 O          12.1350   23.5800   13.7540 O.2       5 ALP1        0.0000 
     57 CA         11.1665   21.0535    9.3665 C.3       4 GLC5        0.0000 
     58 CA          9.1870   21.5320    9.4500 C.3      12 GLL5        0.0000 
     59 CA         13.1460   20.5750    9.2830 C.3       8 GLP5        0.0000 
     60 CA          3.9005   16.4868    6.7823 C.3       4 GLC5        0.0000 
     61 CA          4.6530   15.4140    8.3940 C.3      12 GLL5        0.0000 
     62 CA          3.6640   17.8980    5.6040 C.3       8 GLP5        0.0000 
     63 CA         -0.6663   11.8320    9.3403 C.3       4 GLC5        0.0000 
     64 CA          1.6420   11.8130    8.3710 C.3      12 GLL5        0.0000 
     65 CA         -2.2790   11.9440   10.5160 C.3       8 GLP5        0.0000 
     66 CA          7.7252   22.9810    9.3142 C.3       4 GLC5        0.0000 
     67 CA          6.3560   24.2120    9.8740 C.3       8 GLP5        0.0000 
@<TRIPOS>BOND
@<TRIPOS>SUBSTRUCTURE
     1 ALC1       18 GROUP        1 X    ALC  0     ROOT ALC X 1
     2 SEC2        1 GROUP        1 X    SEC  0     **** SEC X 2
     3 LYC4       26 GROUP        1 X    LYC  0     **** LYC X 4
     4 GLC5        6 GROUP        1 X    GLC  0     **** GLC X 6
     5 ALP1       20 GROUP        1 Y    ALP  0     ROOT ALP Y 8
     6 SEP2        3 GROUP        1 Y    SEP  0     **** SEP Y 9
     7 LYP4       28 GROUP        1 Y    LYP  0     **** LYP Y 11
     8 GLP5        8 GROUP        1 Y    GLP  0     **** GLP Y 13
     9 ALL1       19 GROUP        1 Z    ALL  0     ROOT ALL Z 15
    10 SEL2        2 GROUP        1 Z    SEL  0     **** SEL Z 16
    11 LYL4       27 GROUP        1 Z    LYL  0     **** LYL Z 18
    12 GLL5        7 GROUP        1 Z    GLL  0     **** GLL Z 20
@<TRIPOS>SET

