#    Name: 4lj3_C2E_4_ligand
#    Modification time : Tue Mar 25 11:15:17 2014

@<TRIPOS>MOLECULE
4lj3_C2E_4_ligand
   68    74     1     0     0
SMALL
NO_CHARGES


@<TRIPOS>ATOM
      1 P1          4.3270   18.2100   11.7900 P.3       1 C2E401      0.0000 
      2 O2P         4.3700   19.6920   11.8050 O.co2     1 C2E401      0.0000 
      3 O1P         3.7030   17.3930   12.8100 O.co2     1 C2E401      0.0000 
      4 O5'         3.8900   17.6860   10.3240 O.3       1 C2E401      0.0000 
      5 C5'         3.1200   16.5200   10.1170 C.3       1 C2E401      0.0000 
      6 C4'         4.0310   15.3440    9.7650 C.3       1 C2E401      0.0000 
      7 O4'         3.2080   14.1940    9.7700 O.3       1 C2E401      0.0000 
      8 C3'         4.6530   15.4140    8.3940 C.3       1 C2E401      0.0000 
      9 O3'         5.8670   14.6800    8.3790 O.3       1 C2E401      0.0000 
     10 C2'         3.6210   14.7370    7.5270 C.3       1 C2E401      0.0000 
     11 O2'         4.0440   14.2740    6.2310 O.3       1 C2E401      0.0000 
     12 C1'         3.2270   13.6230    8.4770 C.3       1 C2E401      0.0000 
     13 N9          1.9040   13.0820    8.1890 N.pl3     1 C2E401      0.0000 
     14 C8          0.8070   13.7010    7.6790 C.2       1 C2E401      0.0000 
     15 N7         -0.2150   12.8350    7.5380 N.2       1 C2E401      0.0000 
     16 C5          0.2510   11.6270    7.9580 C.2       1 C2E401      0.0000 
     17 C6         -0.2780   10.2720    8.1090 C.2       1 C2E401      0.0000 
     18 O6         -1.4410   10.0130    7.7650 O.2       1 C2E401      0.0000 
     19 N1          0.5480    9.3340    8.5780 N.am      1 C2E401      0.0000 
     20 C2          1.8310    9.5880    8.9510 C.2       1 C2E401      0.0000 
     21 N2          2.6360    8.6160    9.4490 N.pl3     1 C2E401      0.0000 
     22 N3          2.3850   10.8120    8.8720 N.2       1 C2E401      0.0000 
     23 C4          1.6420   11.8130    8.3710 C.2       1 C2E401      0.0000 
     24 P11         7.1970   15.3130    7.7620 P.3       1 C2E401      0.0000 
     25 O21         8.3160   14.2760    7.8930 O.co2     1 C2E401      0.0000 
     26 O11         7.0330   16.0270    6.4530 O.co2     1 C2E401      0.0000 
     27 O5A         7.4680   16.4400    8.8480 O.3       1 C2E401      0.0000 
     28 C5A         7.9610   16.0740   10.1360 C.3       1 C2E401      0.0000 
     29 C4A         8.0770   17.3170   10.9770 C.3       1 C2E401      0.0000 
     30 O4A         9.1390   18.1260   10.4860 O.3       1 C2E401      0.0000 
     31 C3A         6.8570   18.2040   10.9720 C.3       1 C2E401      0.0000 
     32 O3A         5.8640   17.6600   11.8380 O.3       1 C2E401      0.0000 
     33 C2A         7.4990   19.5190   11.3870 C.3       1 C2E401      0.0000 
     34 O2A         7.6920   19.5740   12.7950 O.3       1 C2E401      0.0000 
     35 C1A         8.8750   19.4970   10.7270 C.3       1 C2E401      0.0000 
     36 N91         8.8350   20.2650    9.4780 N.pl3     1 C2E401      0.0000 
     37 C81         8.4240   19.8630    8.2500 C.2       1 C2E401      0.0000 
     38 N71         8.5330   20.8890    7.3620 N.2       1 C2E401      0.0000 
     39 C51         9.0020   21.9680    8.0590 C.2       1 C2E401      0.0000 
     40 C61         9.3340   23.3880    7.8140 C.2       1 C2E401      0.0000 
     41 O61         9.2150   23.8990    6.6820 O.2       1 C2E401      0.0000 
     42 N11         9.8000   24.1200    8.8510 N.am      1 C2E401      0.0000 
     43 C21         9.9560   23.6380   10.0880 C.2       1 C2E401      0.0000 
     44 N21        10.4150   24.4460   11.0700 N.pl3     1 C2E401      0.0000 
     45 N31         9.6500   22.3680   10.4180 N.2       1 C2E401      0.0000 
     46 C41         9.1870   21.5320    9.4500 C.2       1 C2E401      0.0000 
     47 H           2.4019   16.6389    9.2928 H         1 C2E401      0.0000 
     48 H           2.5479   16.2372   11.0125 H         1 C2E401      0.0000 
     49 H           4.7963   15.2597   10.5074 H         1 C2E401      0.0000 
     50 H           4.7444   16.4163    8.1067 H         1 C2E401      0.0000 
     51 H           2.7610   15.4047    7.4869 H         1 C2E401      0.0000 
     52 H           3.9744   12.8518    8.4185 H         1 C2E401      0.0000 
     53 H           0.7708   14.6535    7.4463 H         1 C2E401      0.0000 
     54 H           0.1945    8.3333    8.6686 H         1 C2E401      0.0000 
     55 H           3.5544    8.9023    9.7222 H         1 C2E401      0.0000 
     56 H           2.2398    7.6992    9.4988 H         1 C2E401      0.0000 
     57 H           8.9484   15.6076   10.0712 H         1 C2E401      0.0000 
     58 H           7.2866   15.3768   10.6416 H         1 C2E401      0.0000 
     59 H           8.2855   17.0352   12.0063 H         1 C2E401      0.0000 
     60 H           6.5502   18.2937    9.9506 H         1 C2E401      0.0000 
     61 H           6.9509   20.3202   10.9951 H         1 C2E401      0.0000 
     62 H           9.5704   19.9159   11.4177 H         1 C2E401      0.0000 
     63 H           8.0984   18.9726    8.0324 H         1 C2E401      0.0000 
     64 H          10.0563   25.1409    8.6646 H         1 C2E401      0.0000 
     65 H          10.5364   24.0223   11.9677 H         1 C2E401      0.0000 
     66 H          10.5924   25.3956   10.8115 H         1 C2E401      0.0000 
     67 H           4.5146   13.4092    6.4062 H         1 C2E401      0.0000 
     68 H           6.7702   19.6011   13.1816 H         1 C2E401      0.0000 
@<TRIPOS>BOND
     1    2    1 ar   
     2    3    1 ar   
     3    4    1 1    
     4   32    1 1    
     5    5    4 1    
     6    6    5 1    
     7   47    5 1    
     8   48    5 1    
     9    7    6 1    
    10    8    6 1    
    11   49    6 1    
    12   12    7 1    
    13    9    8 1    
    14   10    8 1    
    15   50    8 1    
    16   24    9 1    
    17   11   10 1    
    18   12   10 1    
    19   51   10 1    
    20   67   11 1    
    21   13   12 1    
    22   52   12 1    
    23   14   13 1    
    24   23   13 1    
    25   15   14 2    
    26   53   14 1    
    27   16   15 1    
    28   17   16 1    
    29   23   16 2    
    30   18   17 2    
    31   19   17 am   
    32   20   19 1    
    33   54   19 1    
    34   21   20 1    
    35   22   20 2    
    36   55   21 1    
    37   56   21 1    
    38   23   22 1    
    39   25   24 ar   
    40   26   24 ar   
    41   27   24 1    
    42   28   27 1    
    43   29   28 1    
    44   57   28 1    
    45   58   28 1    
    46   30   29 1    
    47   31   29 1    
    48   59   29 1    
    49   35   30 1    
    50   32   31 1    
    51   33   31 1    
    52   60   31 1    
    53   34   33 1    
    54   35   33 1    
    55   61   33 1    
    56   68   34 1    
    57   36   35 1    
    58   62   35 1    
    59   37   36 1    
    60   46   36 1    
    61   38   37 2    
    62   63   37 1    
    63   39   38 1    
    64   40   39 1    
    65   46   39 2    
    66   41   40 2    
    67   42   40 am   
    68   43   42 1    
    69   64   42 1    
    70   44   43 1    
    71   45   43 2    
    72   65   44 1    
    73   66   44 1    
    74   46   45 1    
@<TRIPOS>SUBSTRUCTURE
     1 C2E401      1 GROUP   
@<TRIPOS>SET

