#    Name: 2pj4_414_1_INTS_M
#    Modification time : Mon Mar 24 19:03:42 2014

@<TRIPOS>MOLECULE
2pj4_414_1_INTS_M
   90     0    18     0     0
SMALL
NO_CHARGES


@<TRIPOS>ATOM
      1 N          14.6345   26.7905   57.1150 N.am      2 SEC2        0.0000 
      2 N          13.5840   26.2940   56.1690 N.am     14 SEL2        0.0000 
      3 N          15.6850   27.2870   58.0610 N.am      8 SEP2        0.0000 
      4 O          12.5440   25.2015   53.0445 O.2       1 ALC1        0.0000 
      5 O          12.2940   25.4240   54.5090 O.2      13 ALL1        0.0000 
      6 O          12.7940   24.9790   51.5800 O.2       7 ALP1        0.0000 
      7 CA         11.0065   25.2770   51.9560 C.3       6 GLC5        0.0000 
      8 CA          9.5290   25.2320   53.6380 C.3      18 GLL5        0.0000 
      9 CA         12.4840   25.3220   50.2740 C.3      12 GLP5        0.0000 
     10 CA          6.2180   25.4355   54.1455 C.3       6 GLC5        0.0000 
     11 CA          8.1430   25.8960   53.4270 C.3      18 GLL5        0.0000 
     12 CA          4.2930   24.9750   54.8640 C.3      12 GLP5        0.0000 
     13 CA          8.1120   29.1960   53.4140 C.3       6 GLC5        0.0000 
     14 CA          8.1130   27.3300   54.0180 C.3      18 GLL5        0.0000 
     15 CA          8.1110   31.0620   52.8100 C.3      12 GLP5        0.0000 
     16 CA          7.9295   28.3195   56.9820 C.3       6 GLC5        0.0000 
     17 CA          8.4320   27.2930   55.5290 C.3      18 GLL5        0.0000 
     18 CA          7.4270   29.3460   58.4350 C.3      12 GLP5        0.0000 
     19 CA          9.0110   27.5570   57.4645 C.3       6 GLC5        0.0000 
     20 CA          9.8110   26.6400   55.7700 C.3      18 GLL5        0.0000 
     21 CA          8.2110   28.4740   59.1590 C.3      12 GLP5        0.0000 
     22 CA         10.8805   26.8715   57.5445 C.3       6 GLC5        0.0000 
     23 CA         11.9500   27.1030   59.3190 C.3      12 GLP5        0.0000 
     24 Zn         11.7130   21.5655   56.4070 Zn        5 ZIC7        0.0000 
     25 Zn         10.6250   22.1200   55.8550 Zn       17 ZIL7        0.0000 
     26 Zn         12.8010   21.0110   56.9590 Zn       11 ZIP7        0.0000 
     27 NZ         14.3445   23.3570   55.6195 N.4       4 LYC4        0.0000 
     28 NZ         13.0650   22.7290   55.3710 N.4      16 LYL4        0.0000 
     29 NZ         16.6670   23.7630   55.0770 N.4      10 LYP4        0.0000 
     30 Zn         12.9330   21.8700   56.1650 Zn        5 ZIC7        0.0000 
     31 Zn         13.0650   22.7290   55.3710 Zn       17 ZIL7        0.0000 
     32 N          14.3445   23.3570   55.6195 N.am      2 SEC2        0.0000 
     33 N          13.0650   22.7290   55.3710 N.am     14 SEL2        0.0000 
     34 N          15.6240   23.9850   55.8680 N.am      8 SEP2        0.0000 
     35 NZ         15.3495   20.7235   51.6775 N.4       4 LYC4        0.0000 
     36 NZ         14.2250   20.5080   52.6610 N.4      16 LYL4        0.0000 
     37 NZ         16.7290   22.0900   50.0820 N.4      10 LYP4        0.0000 
     38 N          14.2280   19.1355   52.5005 N.am      2 SEC2        0.0000 
     39 N          14.2250   20.5080   52.6610 N.am     14 SEL2        0.0000 
     40 N          14.2310   17.7630   52.3400 N.am      8 SEP2        0.0000 
     41 N          15.3495   20.7235   51.6775 N.am      2 SEC2        0.0000 
     42 N          16.4740   20.9390   50.6940 N.am      8 SEP2        0.0000 
     43 NZ         14.8880   22.9000   51.2545 N.4       4 LYC4        0.0000 
     44 NZ         13.8430   22.6640   52.2340 N.4      16 LYL4        0.0000 
     45 N          15.1670   22.9225   53.0635 N.am      2 SEC2        0.0000 
     46 N          13.8430   22.6640   52.2340 N.am     14 SEL2        0.0000 
     47 N          16.4910   23.1810   53.8930 N.am      8 SEP2        0.0000 
     48 N          14.8880   22.9000   51.2545 N.am      2 SEC2        0.0000 
     49 N          15.9330   23.1360   50.2750 N.am      8 SEP2        0.0000 
     50 N          13.3185   23.8215   51.9070 N.am      2 SEC2        0.0000 
     51 N          12.7940   24.9790   51.5800 N.am      8 SEP2        0.0000 
     52 O          11.6990   16.3430   48.9735 O.2       1 ALC1        0.0000 
     53 O          11.3580   18.0210   49.3240 O.2      13 ALL1        0.0000 
     54 O          12.0400   14.6650   48.6230 O.2       7 ALP1        0.0000 
     55 O          10.6730   16.6780   49.1895 O.2       1 ALC1        0.0000 
     56 O           9.9880   15.3350   49.0550 O.2       7 ALP1        0.0000 
     57 OD1        12.4780   15.8880   48.2570 O.co2     3 ASC3        0.0000 
     58 OD1        12.4600   18.1640   48.5580 O.co2    15 ASL3        0.0000 
     59 OD1        12.0400   14.6650   48.6230 O.co2     9 ASP3        0.0000 
     60 OD1        11.6990   16.3430   48.9735 O.co2     3 ASC3        0.0000 
     61 OD1         9.9880   15.3350   49.0550 O.co2     9 ASP3        0.0000 
     62 O          14.1155   19.3495   47.1500 O.2       1 ALC1        0.0000 
     63 O          13.0860   19.3460   48.4420 O.2      13 ALL1        0.0000 
     64 O          15.1450   19.3530   45.8580 O.2       7 ALP1        0.0000 
     65 O          12.4780   15.8880   48.2570 O.2       1 ALC1        0.0000 
     66 O          12.9160   17.1110   47.8910 O.2      13 ALL1        0.0000 
     67 O          14.0340   16.9155   46.8425 O.2       1 ALC1        0.0000 
     68 O          15.1520   16.7200   45.7940 O.2       7 ALP1        0.0000 
     69 CA         18.8567   28.6115   54.1788 C.3       6 GLC5        0.0000 
     70 CA         16.9760   29.0750   53.7340 C.3      18 GLL5        0.0000 
     71 CA         20.3390   27.8560   55.1350 C.3      12 GLP5        0.0000 
     72 CA         18.2278   27.5282   51.6178 C.3       6 GLC5        0.0000 
     73 CA         17.7730   29.6590   52.7110 C.3      18 GLL5        0.0000 
     74 CA         18.7840   25.5800   51.2040 C.3      12 GLP5        0.0000 
     75 CA         17.4304   26.8345   51.8299 C.3       6 GLC5        0.0000 
     76 CA         16.5720   28.3450   51.0090 C.3      18 GLL5        0.0000 
     77 CA          8.8395   25.1675   51.5757 C.3       6 GLC5        0.0000 
     78 CA          8.8430   24.7710   49.6190 C.3      12 GLP5        0.0000 
     79 CA          9.9378   18.7587   52.3170 C.3       6 GLC5        0.0000 
     80 CA         11.1250   20.6930   51.8910 C.3      18 GLL5        0.0000 
     81 CA          8.4860   17.3400   53.1530 C.3      12 GLP5        0.0000 
     82 CA          8.1355   21.9995   50.2512 C.3       6 GLC5        0.0000 
     83 CA          9.7640   21.0790   51.7210 C.3      18 GLL5        0.0000 
     84 CA          6.9120   23.2410   49.2700 C.3      12 GLP5        0.0000 
     85 CA          8.9225   19.0490   52.1927 C.3       6 GLC5        0.0000 
     86 CA          8.9540   20.4370   50.7440 C.3      18 GLL5        0.0000 
     87 CA          7.3280   19.7268   50.0537 C.3       6 GLC5        0.0000 
     88 CA          5.4320   19.5310   49.7720 C.3      12 GLP5        0.0000 
     89 CA          9.3283   18.2765   51.5795 C.3       6 GLC5        0.0000 
     90 CA          9.4940   19.4080   49.9270 C.3      18 GLL5        0.0000 
@<TRIPOS>BOND
@<TRIPOS>SUBSTRUCTURE
     1 ALC1        4 GROUP        1 X    ALC  0     ROOT ALC X 1
     2 SEC2        1 GROUP        1 X    SEC  0     **** SEC X 2
     3 ASC3       57 GROUP        1 X    ASC  0     **** ASC X 3
     4 LYC4       27 GROUP        1 X    LYC  0     **** LYC X 4
     5 ZIC7       24 GROUP        1 X    ZIC  0     **** ZIC X 5
     6 GLC5        7 GROUP        1 X    GLC  0     **** GLC X 6
     7 ALP1        6 GROUP        1 Y    ALP  0     ROOT ALP Y 8
     8 SEP2        3 GROUP        1 Y    SEP  0     **** SEP Y 9
     9 ASP3       59 GROUP        1 Y    ASP  0     **** ASP Y 10
    10 LYP4       29 GROUP        1 Y    LYP  0     **** LYP Y 11
    11 ZIP7       26 GROUP        1 Y    ZIP  0     **** ZIP Y 12
    12 GLP5        9 GROUP        1 Y    GLP  0     **** GLP Y 13
    13 ALL1        5 GROUP        1 Z    ALL  0     ROOT ALL Z 15
    14 SEL2        2 GROUP        1 Z    SEL  0     **** SEL Z 16
    15 ASL3       58 GROUP        1 Z    ASL  0     **** ASL Z 17
    16 LYL4       28 GROUP        1 Z    LYL  0     **** LYL Z 18
    17 ZIL7       25 GROUP        1 Z    ZIL  0     **** ZIL Z 19
    18 GLL5        8 GROUP        1 Z    GLL  0     **** GLL Z 20
@<TRIPOS>SET

