#    Name: 2pj4_414_1_ligand
#    Modification time : Mon Mar 24 19:03:42 2014

@<TRIPOS>MOLECULE
2pj4_414_1_ligand
   66    68     1     0     0
SMALL
NO_CHARGES


@<TRIPOS>ATOM
      1 C37        16.9760   29.0750   53.7340 C.ar      1 414401      0.0000 
      2 C38        17.7730   29.6590   52.7110 C.ar      1 414401      0.0000 
      3 C39        17.5700   29.2940   51.3520 C.ar      1 414401      0.0000 
      4 C40        16.5720   28.3450   51.0090 C.ar      1 414401      0.0000 
      5 C41        15.7790   27.7610   52.0260 C.ar      1 414401      0.0000 
      6 C36        15.9780   28.1250   53.3940 C.ar      1 414401      0.0000 
      7 C33        15.1820   27.5530   54.3940 C.3       1 414401      0.0000 
      8 O32        14.0510   26.7610   53.9850 O.3       1 414401      0.0000 
      9 C30        13.3160   26.1490   54.9620 C.2       1 414401      0.0000 
     10 O31        13.5840   26.2940   56.1690 O.2       1 414401      0.0000 
     11 N29        12.2940   25.4240   54.5090 N.am      1 414401      0.0000 
     12 C25        11.3640   24.6830   55.3540 C.3       1 414401      0.0000 
     13 C50         9.9250   25.1990   55.1520 C.3       1 414401      0.0000 
     14 C51         9.5290   25.2320   53.6380 C.3       1 414401      0.0000 
     15 C52         8.1430   25.8960   53.4270 C.3       1 414401      0.0000 
     16 C53         8.1130   27.3300   54.0180 C.3       1 414401      0.0000 
     17 C54         8.4320   27.2930   55.5290 C.3       1 414401      0.0000 
     18 C55         9.8110   26.6400   55.7700 C.3       1 414401      0.0000 
     19 P24        11.6220   22.8870   55.0740 P.3       1 414401      0.0000 
     20 O34        10.6250   22.1200   55.8550 O.co2     1 414401      0.0000 
     21 O35        13.0650   22.7290   55.3710 O.co2     1 414401      0.0000 
     22 O23        11.4380   22.5860   53.4970 O.3       1 414401      0.0000 
     23 C1         12.0010   21.3350   53.0080 C.3       1 414401      0.0000 
     24 C2         13.4800   21.5180   52.5770 C.2       1 414401      0.0000 
     25 O14        14.2250   20.5080   52.6610 O.co2     1 414401      0.0000 
     26 O13        13.8430   22.6640   52.2340 O.co2     1 414401      0.0000 
     27 C3         11.1250   20.6930   51.8910 C.ar      1 414401      0.0000 
     28 C8         11.6540   19.6620   51.0710 C.ar      1 414401      0.0000 
     29 C4          9.7640   21.0790   51.7210 C.ar      1 414401      0.0000 
     30 C5          8.9540   20.4370   50.7440 C.ar      1 414401      0.0000 
     31 C6          9.4940   19.4080   49.9270 C.ar      1 414401      0.0000 
     32 C7         10.8470   19.0180   50.0850 C.ar      1 414401      0.0000 
     33 N9         11.3580   18.0210   49.3240 N.pl3     1 414401      0.0000 
     34 C10        12.4600   18.1640   48.5580 C.cat     1 414401      0.0000 
     35 N12        13.0860   19.3460   48.4420 N.pl3     1 414401      0.0000 
     36 N11        12.9160   17.1110   47.8910 N.pl3     1 414401      0.0000 
     37 H          17.1218   29.3381   54.7051 H         1 414401      0.0000 
     38 H          18.4909   30.3403   52.9528 H         1 414401      0.0000 
     39 H          18.1438   29.7160   50.6222 H         1 414401      0.0000 
     40 H          16.4282   28.0864   50.0355 H         1 414401      0.0000 
     41 H          15.0611   27.0771   51.7879 H         1 414401      0.0000 
     42 H          14.8104   28.3669   55.1061 H         1 414401      0.0000 
     43 H          15.8307   26.9183   55.0896 H         1 414401      0.0000 
     44 H          12.1006   25.3485   53.4685 H         1 414401      0.0000 
     45 H          11.6531   24.7771   56.4064 H         1 414401      0.0000 
     46 H           9.2430   24.5611   55.6759 H         1 414401      0.0000 
     47 H           9.4980   24.2137   53.2647 H         1 414401      0.0000 
     48 H          10.2811   25.7941   53.0943 H         1 414401      0.0000 
     49 H           7.3842   25.2951   53.9174 H         1 414401      0.0000 
     50 H           7.9330   25.9469   52.3637 H         1 414401      0.0000 
     51 H           7.1274   27.7514   53.8711 H         1 414401      0.0000 
     52 H           8.8526   27.9358   53.5114 H         1 414401      0.0000 
     53 H           7.6711   26.7157   56.0391 H         1 414401      0.0000 
     54 H           8.4453   28.3048   55.9146 H         1 414401      0.0000 
     55 H          10.5892   27.2646   55.3274 H         1 414401      0.0000 
     56 H           9.9939   26.5672   56.8437 H         1 414401      0.0000 
     57 H          12.0155   20.5998   53.8483 H         1 414401      0.0000 
     58 H          12.6305   19.3728   51.1860 H         1 414401      0.0000 
     59 H           9.3706   21.8179   52.3021 H         1 414401      0.0000 
     60 H           7.9794   20.7177   50.6298 H         1 414401      0.0000 
     61 H           8.9086   18.9525   49.2296 H         1 414401      0.0000 
     62 H          10.8646   17.0786   49.3317 H         1 414401      0.0000 
     63 H          13.9093   19.3541   47.8744 H         1 414401      0.0000 
     64 H          12.6731   20.1127   48.9336 H         1 414401      0.0000 
     65 H          12.4289   16.2506   48.0408 H         1 414401      0.0000 
     66 H          13.7054   17.2732   47.2990 H         1 414401      0.0000 
@<TRIPOS>BOND
     1    2    1 ar   
     2    6    1 ar   
     3   37    1 1    
     4    3    2 ar   
     5   38    2 1    
     6    4    3 ar   
     7   39    3 1    
     8    5    4 ar   
     9   40    4 1    
    10    6    5 ar   
    11   41    5 1    
    12    7    6 1    
    13    8    7 1    
    14   42    7 1    
    15   43    7 1    
    16    9    8 1    
    17   10    9 2    
    18   11    9 am   
    19   12   11 1    
    20   44   11 1    
    21   13   12 1    
    22   19   12 1    
    23   45   12 1    
    24   14   13 1    
    25   18   13 1    
    26   46   13 1    
    27   15   14 1    
    28   47   14 1    
    29   48   14 1    
    30   16   15 1    
    31   49   15 1    
    32   50   15 1    
    33   17   16 1    
    34   51   16 1    
    35   52   16 1    
    36   18   17 1    
    37   53   17 1    
    38   54   17 1    
    39   55   18 1    
    40   56   18 1    
    41   20   19 ar   
    42   21   19 ar   
    43   22   19 1    
    44   23   22 1    
    45   24   23 1    
    46   27   23 1    
    47   57   23 1    
    48   25   24 ar   
    49   26   24 ar   
    50   28   27 ar   
    51   29   27 ar   
    52   32   28 ar   
    53   58   28 1    
    54   30   29 ar   
    55   59   29 1    
    56   31   30 ar   
    57   60   30 1    
    58   32   31 ar   
    59   61   31 1    
    60   33   32 1    
    61   34   33 ar   
    62   62   33 1    
    63   35   34 ar   
    64   36   34 ar   
    65   63   35 1    
    66   64   35 1    
    67   65   36 1    
    68   66   36 1    
@<TRIPOS>SUBSTRUCTURE
     1 414401      1 GROUP   
@<TRIPOS>SET

