#    Name: 4gm7_HCI_1_INTS_M
#    Modification time : Mon Mar 24 22:32:57 2014

@<TRIPOS>MOLECULE
4gm7_HCI_1_INTS_M
   20     0     3     0     0
SMALL
NO_CHARGES


@<TRIPOS>ATOM
      1 CA        -25.2625    4.4785   27.8835 C.3       1 GLC5        0.0000 
      2 CA        -24.8740    5.6480   29.6290 C.3       3 GLL5        0.0000 
      3 CA        -25.6510    3.3090   26.1380 C.3       2 GLP5        0.0000 
      4 CA        -24.0245    6.6285   28.1495 C.3       1 GLC5        0.0000 
      5 CA        -23.1750    7.6090   26.6700 C.3       2 GLP5        0.0000 
      6 CA        -22.5060    5.8155   28.2665 C.3       1 GLC5        0.0000 
      7 CA        -23.1530    3.9740   29.1020 C.3       3 GLL5        0.0000 
      8 CA        -21.8590    7.6570   27.4310 C.3       2 GLP5        0.0000 
      9 CA        -24.5265    6.8580   30.1115 C.3       1 GLC5        0.0000 
     10 CA        -24.5910    8.6420   30.3110 C.3       2 GLP5        0.0000 
     11 CA        -24.6958    3.1385   28.3193 C.3       1 GLC5        0.0000 
     12 CA        -24.0500    4.5000   30.1950 C.3       3 GLL5        0.0000 
     13 CA        -25.7900    2.0400   26.9900 C.3       2 GLP5        0.0000 
     14 CA        -23.2796    1.8804   27.2428 C.3       1 GLC5        0.0000 
     15 CA        -22.3920    2.8390   29.2910 C.3       3 GLL5        0.0000 
     16 CA        -24.8010    0.9320   26.5700 C.3       2 GLP5        0.0000 
     17 CA        -24.1743    3.8567   26.7570 C.3       1 GLC5        0.0000 
     18 CA        -22.2940    4.1760   26.8640 C.3       3 GLL5        0.0000 
     19 CA        -22.9363    6.0068   27.0230 C.3       1 GLC5        0.0000 
     20 CA        -23.1010    4.6330   27.8880 C.3       3 GLL5        0.0000 
@<TRIPOS>BOND
@<TRIPOS>SUBSTRUCTURE
     1 GLC5        1 GROUP        1 X    GLC  0     ROOT GLC X 6
     2 GLP5        3 GROUP        1 Y    GLP  0     ROOT GLP Y 13
     3 GLL5        2 GROUP        1 Z    GLL  0     ROOT GLL Z 20
@<TRIPOS>SET

