#    Name: 4gm7_HCI_1_ligand
#    Modification time : Mon Mar 24 22:32:57 2014

@<TRIPOS>MOLECULE
4gm7_HCI_1_ligand
   20    20     1     0     0
SMALL
NO_CHARGES


@<TRIPOS>ATOM
      1 C1        -26.3440    5.3650   29.7840 C.2       1 HCI622      0.0000 
      2 O1        -27.0960    5.5840   28.8210 O.co2     1 HCI622      0.0000 
      3 O2        -26.7540    4.9340   30.8740 O.co2     1 HCI622      0.0000 
      4 C2        -24.8740    5.6480   29.6290 C.3       1 HCI622      0.0000 
      5 C3        -24.0500    4.5000   30.1950 C.3       1 HCI622      0.0000 
      6 C1'       -23.1530    3.9740   29.1020 C.ar      1 HCI622      0.0000 
      7 C2'       -22.3920    2.8390   29.2910 C.ar      1 HCI622      0.0000 
      8 C3'       -21.5830    2.3820   28.2630 C.ar      1 HCI622      0.0000 
      9 C4'       -21.5290    3.0470   27.0540 C.ar      1 HCI622      0.0000 
     10 C5'       -22.2940    4.1760   26.8640 C.ar      1 HCI622      0.0000 
     11 C6'       -23.1010    4.6330   27.8880 C.ar      1 HCI622      0.0000 
     12 H         -24.6174    6.5656   30.1586 H         1 HCI622      0.0000 
     13 H         -24.6321    5.7736   28.5735 H         1 HCI622      0.0000 
     14 H         -24.7136    3.7167   30.5346 H         1 HCI622      0.0000 
     15 H         -23.4513    4.8619   31.0195 H         1 HCI622      0.0000 
     16 H         -22.4228    2.3348   30.1854 H         1 HCI622      0.0000 
     17 H         -21.0111    1.5288   28.4056 H         1 HCI622      0.0000 
     18 H         -20.9200    2.6994   26.3004 H         1 HCI622      0.0000 
     19 H         -22.2663    4.6776   25.9659 H         1 HCI622      0.0000 
     20 H         -23.6774    5.4844   27.7438 H         1 HCI622      0.0000 
@<TRIPOS>BOND
     1    2    1 ar   
     2    3    1 ar   
     3    4    1 1    
     4    5    4 1    
     5   12    4 1    
     6   13    4 1    
     7    6    5 1    
     8   14    5 1    
     9   15    5 1    
    10    7    6 ar   
    11   11    6 ar   
    12    8    7 ar   
    13   16    7 1    
    14    9    8 ar   
    15   17    8 1    
    16   10    9 ar   
    17   18    9 1    
    18   11   10 ar   
    19   19   10 1    
    20   20   11 1    
@<TRIPOS>SUBSTRUCTURE
     1 HCI622      1 GROUP   
@<TRIPOS>SET

