#    Name: 2cej_1AH_1_INTS_M
#    Modification time : Mon Mar 24 23:35:59 2014

@<TRIPOS>MOLECULE
2cej_1AH_1_INTS_M
  107     0     9     0     0
SMALL
NO_CHARGES


@<TRIPOS>ATOM
      1 CA          8.0170   22.4505    4.4940 C.3       3 GLC5        0.0000 
      2 CA          8.4480   23.8980    3.2480 C.3       9 GLL5        0.0000 
      3 CA          7.5860   21.0030    5.7400 C.3       6 GLP5        0.0000 
      4 CA          9.1675   21.9690    4.7055 C.3       3 GLC5        0.0000 
      5 CA         10.7490   22.9350    3.6710 C.3       9 GLL5        0.0000 
      6 CA         10.7650   21.0555    3.0475 C.3       3 GLC5        0.0000 
      7 CA         10.7810   19.1760    2.4240 C.3       6 GLP5        0.0000 
      8 CA          6.4860   29.2450    5.1105 C.3       3 GLC5        0.0000 
      9 CA          5.5460   27.2890    4.6170 C.3       9 GLL5        0.0000 
     10 CA          7.4260   31.2010    5.6040 C.3       6 GLP5        0.0000 
     11 N           8.9905   28.9535    5.4655 N.am      2 SEC2        0.0000 
     12 N           8.2660   27.6630    5.1840 N.am      8 SEL2        0.0000 
     13 N           9.7150   30.2440    5.7470 N.am      5 SEP2        0.0000 
     14 O           7.3235   24.5780    6.5490 O.2       1 ALC1        0.0000 
     15 O           8.2980   25.7790    6.4460 O.2       7 ALL1        0.0000 
     16 O           6.3490   23.3770    6.6520 O.2       4 ALP1        0.0000 
     17 O          15.1800   24.7035    5.5340 O.2       1 ALC1        0.0000 
     18 O          14.9360   23.5260    4.9140 O.2       7 ALL1        0.0000 
     19 O          15.4240   25.8810    6.1540 O.2       4 ALP1        0.0000 
     20 O          17.0900   21.8635    5.0830 O.2       1 ALC1        0.0000 
     21 O          15.7200   20.8040    5.1140 O.2       7 ALL1        0.0000 
     22 O          18.4600   22.9230    5.0520 O.2       4 ALP1        0.0000 
     23 CA         16.4620   15.9655    3.3075 C.3       3 GLC5        0.0000 
     24 CA         17.1280   17.9010    3.4230 C.3       9 GLL5        0.0000 
     25 CA         15.7960   14.0300    3.1920 C.3       6 GLP5        0.0000 
     26 CA         13.0120   19.1770    2.4355 C.3       3 GLC5        0.0000 
     27 CA         15.2430   19.1780    2.4470 C.3       9 GLL5        0.0000 
     28 CA         15.0315   20.3585    0.0100 C.3       3 GLC5        0.0000 
     29 CA         15.4520   18.4970    1.2010 C.3       9 GLL5        0.0000 
     30 CA         14.6110   22.2200   -1.1810 C.3       6 GLP5        0.0000 
     31 N          19.2340   20.2635    3.7460 N.am      2 SEC2        0.0000 
     32 N          18.4930   20.0600    4.9250 N.am      8 SEL2        0.0000 
     33 N          19.9750   20.4670    2.5670 N.am      5 SEP2        0.0000 
     34 O          18.4765   21.4915    4.9885 O.2       1 ALC1        0.0000 
     35 O          18.4930   20.0600    4.9250 O.2       7 ALL1        0.0000 
     36 CA         17.0590   15.4390    2.1420 C.3       3 GLC5        0.0000 
     37 CA         17.3530   17.2110    2.1980 C.3       9 GLL5        0.0000 
     38 CA         16.7650   13.6670    2.0860 C.3       6 GLP5        0.0000 
     39 CA         19.8025   18.2960    3.9490 C.3       3 GLC5        0.0000 
     40 CA         17.8820   17.7640    4.7340 C.3       9 GLL5        0.0000 
     41 CA         21.7230   18.8280    3.1640 C.3       6 GLP5        0.0000 
     42 CA         10.7495   27.3860    6.2275 C.3       3 GLC5        0.0000 
     43 CA          9.7180   25.7970    6.8500 C.3       9 GLL5        0.0000 
     44 CA         11.7810   28.9750    5.6050 C.3       6 GLP5        0.0000 
     45 CA          8.6225   29.2935    9.6375 C.3       3 GLC5        0.0000 
     46 CA          9.1510   27.4140    8.8140 C.3       9 GLL5        0.0000 
     47 CA          8.0940   31.1730   10.4610 C.3       6 GLP5        0.0000 
     48 CA          8.2585   26.6050   10.6820 C.3       3 GLC5        0.0000 
     49 CA          7.3660   25.7960   12.5500 C.3       6 GLP5        0.0000 
     50 CA         11.3940   26.3525   10.9730 C.3       3 GLC5        0.0000 
     51 CA         11.2420   26.0950    8.9250 C.3       9 GLL5        0.0000 
     52 CA         11.5460   26.6100   13.0210 C.3       6 GLP5        0.0000 
     53 CA         12.9175   25.4565    9.6380 C.3       3 GLC5        0.0000 
     54 CA         14.5930   24.8180   10.3510 C.3       6 GLP5        0.0000 
     55 CA          6.9700   28.4535   -0.0300 C.3       3 GLC5        0.0000 
     56 CA          6.9720   26.6170    0.4190 C.3       9 GLL5        0.0000 
     57 CA          6.9680   30.2900   -0.4790 C.3       6 GLP5        0.0000 
     58 CA          8.7450   27.3205   -0.3410 C.3       3 GLC5        0.0000 
     59 CA         10.5180   28.0240   -1.1010 C.3       6 GLP5        0.0000 
     60 CA          6.5685   25.3940   -1.0600 C.3       3 GLC5        0.0000 
     61 CA          6.1650   24.1710   -2.5390 C.3       6 GLP5        0.0000 
     62 CA          8.1950   25.3760   10.8435 C.3       3 GLC5        0.0000 
     63 CA          9.0240   24.9560    9.1370 C.3       9 GLL5        0.0000 
     64 CA         13.6230   19.1153    8.3352 C.3       3 GLC5        0.0000 
     65 CA         14.2840   20.9720    8.6230 C.3       9 GLL5        0.0000 
     66 CA         12.5250   17.6640    7.6470 C.3       6 GLP5        0.0000 
     67 CA         12.7620   20.2368    9.5802 C.3       3 GLC5        0.0000 
     68 CA         10.8030   19.9070   10.1370 C.3       6 GLP5        0.0000 
     69 CA         15.1088   19.7617   11.1575 C.3       3 GLC5        0.0000 
     70 CA         15.1580   20.1610    9.4240 C.3       9 GLL5        0.0000 
     71 CA         14.3600   19.1980   12.8450 C.3       6 GLP5        0.0000 
     72 CA         16.6782   21.5802   10.6875 C.3       3 GLC5        0.0000 
     73 CA         17.4990   22.8350   11.9050 C.3       6 GLP5        0.0000 
     74 CA         17.9252   23.3055    8.4810 C.3       3 GLC5        0.0000 
     75 CA         17.0770   21.6270    8.8100 C.3       9 GLL5        0.0000 
     76 CA         19.2080   24.5770    8.5530 C.3       6 GLP5        0.0000 
     77 CA         17.0707   22.4345   10.1570 C.3       3 GLC5        0.0000 
     78 CA         15.6178   23.4260    9.3800 C.3       3 GLC5        0.0000 
     79 CA          9.6558   26.7195    0.0528 C.3       3 GLC5        0.0000 
     80 CA          9.4820   25.3570    1.0200 C.3       9 GLL5        0.0000 
     81 CA          8.7926   24.5264   -0.2581 C.3       3 GLC5        0.0000 
     82 CA          8.1050   25.4730    1.3930 C.3       9 GLL5        0.0000 
     83 CA          8.5760   23.8490   -1.9100 C.3       6 GLP5        0.0000 
     84 CA          7.0293   22.7900    2.0137 C.3       3 GLC5        0.0000 
     85 CA          7.5870   24.7400    2.5030 C.3       9 GLL5        0.0000 
     86 CA          6.0410   21.2610    1.1520 C.3       6 GLP5        0.0000 
     87 CA         11.1822   22.4056    1.5680 C.3       3 GLC5        0.0000 
     88 CA          9.8270   23.7910    2.8810 C.3       9 GLL5        0.0000 
     89 CA         11.9470   21.2680    0.1380 C.3       6 GLP5        0.0000 
     90 CA         14.3986   23.5328    8.9980 C.3       3 GLC5        0.0000 
     91 CA         13.8670   22.9520    7.0240 C.3       9 GLL5        0.0000 
     92 CA         16.2643   20.4228    1.5510 C.3       3 GLC5        0.0000 
     93 CA         17.1810   22.0080    1.2780 C.3       6 GLP5        0.0000 
     94 CA         15.3590   17.1180   -0.1590 C.3       3 GLC5        0.0000 
     95 CA         14.7410   16.2270   -1.4590 C.3       6 GLP5        0.0000 
     96 CA         14.9795   16.4535    1.3805 C.3       3 GLC5        0.0000 
     97 CA         16.5020   17.5210    1.0810 C.3       9 GLL5        0.0000 
     98 CA         13.9820   14.8980    1.6200 C.3       6 GLP5        0.0000 
     99 CA         18.2152   17.0480    0.5128 C.3       3 GLC5        0.0000 
    100 CA         19.5030   16.7300   -0.6140 C.3       6 GLP5        0.0000 
    101 CA         17.6341   20.4540    3.5347 C.3       3 GLC5        0.0000 
    102 CA         17.5640   19.1040    5.4340 C.3       9 GLL5        0.0000 
    103 CA         18.1750   22.0980    2.4350 C.3       6 GLP5        0.0000 
    104 CA         11.5129   27.6213    7.8003 C.3       3 GLC5        0.0000 
    105 CA         12.6670   28.8260    6.8350 C.3       6 GLP5        0.0000 
    106 CA         10.1792   23.9291    9.8091 C.3       3 GLC5        0.0000 
    107 CA         10.5860   22.3410   10.7190 C.3       6 GLP5        0.0000 
@<TRIPOS>BOND
@<TRIPOS>SUBSTRUCTURE
     1 ALC1       14 GROUP        1 X    ALC  0     ROOT ALC X 1
     2 SEC2       11 GROUP        1 X    SEC  0     **** SEC X 2
     3 GLC5        1 GROUP        1 X    GLC  0     **** GLC X 6
     4 ALP1       16 GROUP        1 Y    ALP  0     ROOT ALP Y 8
     5 SEP2       13 GROUP        1 Y    SEP  0     **** SEP Y 9
     6 GLP5        3 GROUP        1 Y    GLP  0     **** GLP Y 13
     7 ALL1       15 GROUP        1 Z    ALL  0     ROOT ALL Z 15
     8 SEL2       12 GROUP        1 Z    SEL  0     **** SEL Z 16
     9 GLL5        2 GROUP        1 Z    GLL  0     **** GLL Z 20
@<TRIPOS>SET

