#    Name: 2cej_1AH_1_ligand
#    Modification time : Mon Mar 24 23:35:59 2014

@<TRIPOS>MOLECULE
2cej_1AH_1_ligand
   86    89     1     0     0
SMALL
NO_CHARGES


@<TRIPOS>ATOM
      1 C23        14.7990   22.1140    7.9090 C.ar      1 1AH1200     0.0000 
      2 C24        14.2840   20.9720    8.6230 C.ar      1 1AH1200     0.0000 
      3 C25        15.1580   20.1610    9.4240 C.ar      1 1AH1200     0.0000 
      4 C26        16.5570   20.4900    9.5160 C.ar      1 1AH1200     0.0000 
      5 C27        17.0770   21.6270    8.8100 C.ar      1 1AH1200     0.0000 
      6 C28        16.2080   22.4410    8.0080 C.ar      1 1AH1200     0.0000 
      7 C33         9.8270   23.7910    2.8810 C.ar      1 1AH1200     0.0000 
      8 C34        10.3450   24.5120    1.7690 C.ar      1 1AH1200     0.0000 
      9 C35         9.4820   25.3570    1.0200 C.ar      1 1AH1200     0.0000 
     10 C36         8.1050   25.4730    1.3930 C.ar      1 1AH1200     0.0000 
     11 C37         7.5870   24.7400    2.5030 C.ar      1 1AH1200     0.0000 
     12 C38         8.4480   23.8980    3.2480 C.ar      1 1AH1200     0.0000 
     13 C32        10.7490   22.9350    3.6710 C.3       1 1AH1200     0.0000 
     14 C7          5.5460   27.2890    4.6170 C.3       1 1AH1200     0.0000 
     15 C4         12.6900   22.6490    4.6390 C.3       1 1AH1200     0.0000 
     16 O3          8.2660   27.6630    5.1840 O.2       1 1AH1200     0.0000 
     17 N1          8.2980   25.7790    6.4460 N.am      1 1AH1200     0.0000 
     18 C22        13.8670   22.9520    7.0240 C.3       1 1AH1200     0.0000 
     19 O6         14.9360   23.5260    4.9140 O.3       1 1AH1200     0.0000 
     20 O8          6.3440   26.4270    5.4320 O.3       1 1AH1200     0.0000 
     21 C10        14.4260   21.1560    5.2090 C.2       1 1AH1200     0.0000 
     22 O11        13.5450   20.2820    5.1370 O.2       1 1AH1200     0.0000 
     23 N12        15.7200   20.8040    5.1140 N.am      1 1AH1200     0.0000 
     24 C51        16.1280   19.4050    4.9480 C.3       1 1AH1200     0.0000 
     25 C52        16.1050   18.8570    3.5460 C.ar      1 1AH1200     0.0000 
     26 C57        17.1280   17.9010    3.4230 C.ar      1 1AH1200     0.0000 
     27 C53        15.2430   19.1780    2.4470 C.ar      1 1AH1200     0.0000 
     28 C54        15.4520   18.4970    1.2010 C.ar      1 1AH1200     0.0000 
     29 C55        16.5020   17.5210    1.0810 C.ar      1 1AH1200     0.0000 
     30 C59        17.5640   19.1040    5.4340 C.3       1 1AH1200     0.0000 
     31 O60        18.4930   20.0600    4.9250 O.3       1 1AH1200     0.0000 
     32 C30         7.6580   26.6680    5.6650 C.2       1 1AH1200     0.0000 
     33 C56        17.3530   17.2110    2.1980 C.ar      1 1AH1200     0.0000 
     34 C58        17.8820   17.7640    4.7340 C.3       1 1AH1200     0.0000 
     35 C41         9.7180   25.7970    6.8500 C.3       1 1AH1200     0.0000 
     36 C42         9.8000   26.0620    8.3980 C.3       1 1AH1200     0.0000 
     37 C43         9.1510   27.4140    8.8140 C.3       1 1AH1200     0.0000 
     38 C1         13.9900   22.6400    5.4810 C.3       1 1AH1200     0.0000 
     39 C44        11.2420   26.0950    8.9250 C.3       1 1AH1200     0.0000 
     40 C45        10.3790   24.4880    6.3210 C.2       1 1AH1200     0.0000 
     41 N24        11.7750   23.7090    4.4380 N.3       1 1AH1200     0.0000 
     42 O46        10.0150   23.3910    6.7380 O.2       1 1AH1200     0.0000 
     43 N47        11.3600   24.6310    5.3950 N.am      1 1AH1200     0.0000 
     44 BR          6.9720   26.6170    0.4190 Br        1 1AH1200     0.0000 
     45 C86         9.0240   24.9560    9.1370 C.3       1 1AH1200     0.0000 
     46 H          13.2976   20.7418    8.5576 H         1 1AH1200     0.0000 
     47 H          14.7934   19.3604    9.9229 H         1 1AH1200     0.0000 
     48 H          17.1736   19.9173   10.0801 H         1 1AH1200     0.0000 
     49 H          18.0638   21.8563    8.8783 H         1 1AH1200     0.0000 
     50 H          16.5717   23.2418    7.5110 H         1 1AH1200     0.0000 
     51 H          11.3223   24.4231    1.5136 H         1 1AH1200     0.0000 
     52 H           9.8357   25.8770    0.2245 H         1 1AH1200     0.0000 
     53 H           6.6069   24.8252    2.7526 H         1 1AH1200     0.0000 
     54 H           8.0950   23.3700    4.0399 H         1 1AH1200     0.0000 
     55 H          11.2646   22.2247    2.9936 H         1 1AH1200     0.0000 
     56 H          10.1620   22.3146    4.3779 H         1 1AH1200     0.0000 
     57 H          12.0988   21.6916    5.0057 H         1 1AH1200     0.0000 
     58 H          13.0211   22.2187    3.5874 H         1 1AH1200     0.0000 
     59 H           7.7541   24.9402    6.8467 H         1 1AH1200     0.0000 
     60 H          14.0823   24.0178    7.1691 H         1 1AH1200     0.0000 
     61 H          12.8250   22.7782    7.3195 H         1 1AH1200     0.0000 
     62 H          16.4878   21.4997    5.1532 H         1 1AH1200     0.0000 
     63 H          15.4797   18.7362    5.5560 H         1 1AH1200     0.0000 
     64 H          14.5155   19.8578    2.5446 H         1 1AH1200     0.0000 
     65 H          14.8605   18.7027    0.4046 H         1 1AH1200     0.0000 
     66 H          16.6445   17.0431    0.1926 H         1 1AH1200     0.0000 
     67 H          17.5742   18.9624    6.4504 H         1 1AH1200     0.0000 
     68 H          18.0804   16.5291    2.1102 H         1 1AH1200     0.0000 
     69 H          18.9183   17.7010    4.5566 H         1 1AH1200     0.0000 
     70 H          17.4868   16.9711    5.3036 H         1 1AH1200     0.0000 
     71 H          10.2007   26.6415    6.3443 H         1 1AH1200     0.0000 
     72 H          11.8969   25.5795    5.3888 H         1 1AH1200     0.0000 
     73 H           5.5143   28.2199    4.9810 H         1 1AH1200     0.0000 
     74 H           5.9005   27.3510    3.6840 H         1 1AH1200     0.0000 
     75 H           4.6013   26.9679    4.5508 H         1 1AH1200     0.0000 
     76 H           9.2131   27.5679    9.8001 H         1 1AH1200     0.0000 
     77 H           9.5939   28.1915    8.3676 H         1 1AH1200     0.0000 
     78 H           8.1814   27.4505    8.5721 H         1 1AH1200     0.0000 
     79 H          11.7180   25.2314    8.7588 H         1 1AH1200     0.0000 
     80 H          11.7807   26.8154    8.4881 H         1 1AH1200     0.0000 
     81 H          11.2735   26.2622    9.9104 H         1 1AH1200     0.0000 
     82 H           9.4009   24.0490    8.9492 H         1 1AH1200     0.0000 
     83 H           9.0486   25.0841   10.1285 H         1 1AH1200     0.0000 
     84 H           8.0611   24.9348    8.8680 H         1 1AH1200     0.0000 
     85 H          14.9781   24.2991    5.5469 H         1 1AH1200     0.0000 
     86 H          18.0948   20.9504    5.1455 H         1 1AH1200     0.0000 
@<TRIPOS>BOND
     1    2    1 ar   
     2    6    1 ar   
     3   18    1 1    
     4    3    2 ar   
     5   46    2 1    
     6    4    3 ar   
     7   47    3 1    
     8    5    4 ar   
     9   48    4 1    
    10    6    5 ar   
    11   49    5 1    
    12   50    6 1    
    13    8    7 ar   
    14   12    7 ar   
    15   13    7 1    
    16    9    8 ar   
    17   51    8 1    
    18   10    9 ar   
    19   52    9 1    
    20   11   10 ar   
    21   44   10 1    
    22   12   11 ar   
    23   53   11 1    
    24   54   12 1    
    25   41   13 1    
    26   55   13 1    
    27   56   13 1    
    28   20   14 1    
    29   73   14 1    
    30   74   14 1    
    31   75   14 1    
    32   38   15 1    
    33   41   15 1    
    34   57   15 1    
    35   58   15 1    
    36   32   16 2    
    37   32   17 am   
    38   35   17 1    
    39   59   17 1    
    40   38   18 1    
    41   60   18 1    
    42   61   18 1    
    43   38   19 1    
    44   85   19 1    
    45   32   20 1    
    46   22   21 2    
    47   23   21 am   
    48   38   21 1    
    49   24   23 1    
    50   62   23 1    
    51   25   24 1    
    52   30   24 1    
    53   63   24 1    
    54   26   25 ar   
    55   27   25 ar   
    56   33   26 ar   
    57   34   26 1    
    58   28   27 ar   
    59   64   27 1    
    60   29   28 ar   
    61   65   28 1    
    62   33   29 ar   
    63   66   29 1    
    64   31   30 1    
    65   34   30 1    
    66   67   30 1    
    67   86   31 1    
    68   68   33 1    
    69   69   34 1    
    70   70   34 1    
    71   36   35 1    
    72   40   35 1    
    73   71   35 1    
    74   37   36 1    
    75   39   36 1    
    76   45   36 1    
    77   76   37 1    
    78   77   37 1    
    79   78   37 1    
    80   79   39 1    
    81   80   39 1    
    82   81   39 1    
    83   42   40 2    
    84   43   40 am   
    85   43   41 1    
    86   72   43 1    
    87   82   45 1    
    88   83   45 1    
    89   84   45 1    
@<TRIPOS>SUBSTRUCTURE
     1 1AH1200     1 GROUP   
@<TRIPOS>SET

