#    Name: 4bco_T6Q_2_INTS_M
#    Modification time : Tue Mar 25 07:32:11 2014

@<TRIPOS>MOLECULE
4bco_T6Q_2_INTS_M
   68     0     6     0     0
SMALL
NO_CHARGES


@<TRIPOS>ATOM
      1 CA        -35.5785  -15.6445  -36.2635 C.3       2 GLC5        0.0000 
      2 CA        -36.4720  -16.5460  -34.5590 C.3       6 GLL5        0.0000 
      3 CA        -34.6850  -14.7430  -37.9680 C.3       4 GLP5        0.0000 
      4 CA        -37.5115  -14.5930  -34.1660 C.3       2 GLC5        0.0000 
      5 CA        -38.5510  -12.6400  -33.7730 C.3       4 GLP5        0.0000 
      6 CA        -30.9985  -14.4260  -29.7015 C.3       2 GLC5        0.0000 
      7 CA        -32.3120  -13.6310  -31.1020 C.3       6 GLL5        0.0000 
      8 CA        -29.6850  -15.2210  -28.3010 C.3       4 GLP5        0.0000 
      9 CA        -32.5345  -12.1975  -32.6850 C.3       2 GLC5        0.0000 
     10 CA        -32.7570  -10.7640  -34.2680 C.3       4 GLP5        0.0000 
     11 CA        -31.9410  -12.1285  -30.2375 C.3       2 GLC5        0.0000 
     12 CA        -31.5700  -10.6260  -29.3730 C.3       4 GLP5        0.0000 
     13 CA        -31.0235  -18.4980  -29.2425 C.3       2 GLC5        0.0000 
     14 CA        -32.7860  -18.0960  -28.2560 C.3       6 GLL5        0.0000 
     15 CA        -29.2610  -18.9000  -30.2290 C.3       4 GLP5        0.0000 
     16 CA        -31.2355  -16.6585  -28.2785 C.3       2 GLC5        0.0000 
     17 CA        -33.3155  -18.5605  -26.1415 C.3       2 GLC5        0.0000 
     18 CA        -33.8450  -19.0250  -24.0270 C.3       4 GLP5        0.0000 
     19 CA        -34.5985  -17.3290  -28.1085 C.3       2 GLC5        0.0000 
     20 CA        -36.4110  -16.5620  -27.9610 C.3       4 GLP5        0.0000 
     21 CA        -35.6730  -19.3390  -29.6165 C.3       2 GLC5        0.0000 
     22 CA        -33.8390  -20.2250  -30.0320 C.3       6 GLL5        0.0000 
     23 CA        -37.5070  -18.4530  -29.2010 C.3       4 GLP5        0.0000 
     24 CA        -36.2790  -21.3730  -30.9560 C.3       2 GLC5        0.0000 
     25 CA        -34.2300  -21.1990  -30.9520 C.3       6 GLL5        0.0000 
     26 CA        -38.3280  -21.5470  -30.9600 C.3       4 GLP5        0.0000 
     27 CA        -25.7170  -24.3995  -29.2280 C.3       2 GLC5        0.0000 
     28 CA        -27.2720  -25.2950  -28.0810 C.3       6 GLL5        0.0000 
     29 CA        -24.1620  -23.5040  -30.3750 C.3       4 GLP5        0.0000 
     30 CA        -26.6090  -23.5140  -27.4235 C.3       2 GLC5        0.0000 
     31 CA        -25.9460  -21.7330  -26.7660 C.3       4 GLP5        0.0000 
     32 CA        -29.6955  -22.8215  -27.2970 C.3       2 GLC5        0.0000 
     33 CA        -29.8350  -24.2790  -28.7460 C.3       6 GLL5        0.0000 
     34 CA        -29.5560  -21.3640  -25.8480 C.3       4 GLP5        0.0000 
     35 N         -32.8450  -17.6785  -25.7815 N.am      1 SEC2        0.0000 
     36 N         -32.8510  -17.3200  -27.1620 N.am      5 SEL2        0.0000 
     37 N         -32.8390  -18.0370  -24.4010 N.am      3 SEP2        0.0000 
     38 CA        -34.5095  -14.3870  -26.4640 C.3       2 GLC5        0.0000 
     39 CA        -33.2000  -15.9990  -27.2640 C.3       6 GLL5        0.0000 
     40 CA        -35.8190  -12.7750  -25.6640 C.3       4 GLP5        0.0000 
     41 CA        -31.9980  -16.3830  -25.6490 C.3       2 GLC5        0.0000 
     42 CA        -30.7960  -16.7670  -24.0340 C.3       4 GLP5        0.0000 
     43 CA        -34.2855  -16.0885  -25.4140 C.3       2 GLC5        0.0000 
     44 CA        -35.3710  -16.1780  -23.5640 C.3       4 GLP5        0.0000 
     45 CA        -31.7760  -14.6320  -28.4745 C.3       2 GLC5        0.0000 
     46 CA        -33.8670  -14.0430  -28.6480 C.3       6 GLL5        0.0000 
     47 CA        -34.8430  -13.4090  -27.1560 C.3       2 GLC5        0.0000 
     48 CA        -32.6945  -12.8355  -27.8635 C.3       2 GLC5        0.0000 
     49 CA        -31.5220  -11.6280  -27.0790 C.3       4 GLP5        0.0000 
     50 CA        -36.1500  -17.5325  -30.5945 C.3       2 GLC5        0.0000 
     51 CA        -34.7930  -16.6120  -31.9880 C.3       6 GLL5        0.0000 
     52 CA        -31.5240  -15.4151  -31.8675 C.3       2 GLC5        0.0000 
     53 CA        -33.2920  -14.6480  -31.6520 C.3       6 GLL5        0.0000 
     54 CA        -29.7970  -15.8620  -32.5750 C.3       4 GLP5        0.0000 
     55 CA        -34.9783  -16.2998  -29.1280 C.3       2 GLC5        0.0000 
     56 CA        -33.7000  -15.7970  -30.9430 C.3       6 GLL5        0.0000 
     57 CA        -32.1295  -20.1467  -31.0358 C.3       2 GLC5        0.0000 
     58 CA        -32.8430  -20.5100  -29.0810 C.3       6 GLL5        0.0000 
     59 CA        -30.9180  -19.9260  -32.5150 C.3       4 GLP5        0.0000 
     60 CA        -32.4213  -20.8840  -31.7245 C.3       2 GLC5        0.0000 
     61 CA        -33.6190  -22.4850  -30.9160 C.3       6 GLL5        0.0000 
     62 CA        -31.6767  -21.1010  -31.0125 C.3       2 GLC5        0.0000 
     63 CA        -32.6290  -22.7640  -29.9680 C.3       6 GLL5        0.0000 
     64 CA        -31.5020  -15.5772  -28.2372 C.3       2 GLC5        0.0000 
     65 CA        -33.3910  -16.2780  -29.6470 C.3       6 GLL5        0.0000 
     66 CA        -35.0079  -15.7239  -28.1154 C.3       2 GLC5        0.0000 
     67 CA        -34.4631  -22.6381  -28.7913 C.3       2 GLC5        0.0000 
     68 CA        -35.6710  -23.3770  -27.3570 C.3       4 GLP5        0.0000 
@<TRIPOS>BOND
@<TRIPOS>SUBSTRUCTURE
     1 SEC2       35 GROUP        1 X    SEC  0     ROOT SEC X 2
     2 GLC5        1 GROUP        1 X    GLC  0     **** GLC X 6
     3 SEP2       37 GROUP        1 Y    SEP  0     ROOT SEP Y 9
     4 GLP5        3 GROUP        1 Y    GLP  0     **** GLP Y 13
     5 SEL2       36 GROUP        1 Z    SEL  0     ROOT SEL Z 16
     6 GLL5        2 GROUP        1 Z    GLL  0     **** GLL Z 20
@<TRIPOS>SET

