#    Name: 4bco_T6Q_2_ligand
#    Modification time : Tue Mar 25 07:32:11 2014

@<TRIPOS>MOLECULE
4bco_T6Q_2_ligand
   59    62     1     0     0
SMALL
NO_CHARGES


@<TRIPOS>ATOM
      1 C01       -36.4720  -16.5460  -34.5590 C.3       1 T6Q1298     0.0000 
      2 N02       -35.3820  -15.5800  -34.5020 N.pl3     1 T6Q1298     0.0000 
      3 C03       -34.6810  -15.4720  -33.2790 C.2       1 T6Q1298     0.0000 
      4 N04       -33.8170  -14.5010  -32.8860 N.2       1 T6Q1298     0.0000 
      5 C05       -33.2920  -14.6480  -31.6520 C.2       1 T6Q1298     0.0000 
      6 C06       -32.3120  -13.6310  -31.1020 C.3       1 T6Q1298     0.0000 
      7 C07       -33.7000  -15.7970  -30.9430 C.2       1 T6Q1298     0.0000 
      8 C08       -33.3910  -16.2780  -29.6470 C.ar      1 T6Q1298     0.0000 
      9 N09       -33.0580  -17.5840  -29.4920 N.ar      1 T6Q1298     0.0000 
     10 C10       -32.7860  -18.0960  -28.2560 C.ar      1 T6Q1298     0.0000 
     11 N11       -32.4160  -19.5060  -28.1140 N.pl3     1 T6Q1298     0.0000 
     12 C12       -32.8430  -20.5100  -29.0810 C.ar      1 T6Q1298     0.0000 
     13 C13       -33.8390  -20.2250  -30.0320 C.ar      1 T6Q1298     0.0000 
     14 C14       -34.2300  -21.1990  -30.9520 C.ar      1 T6Q1298     0.0000 
     15 C15       -33.6190  -22.4850  -30.9160 C.ar      1 T6Q1298     0.0000 
     16 C16       -32.6290  -22.7640  -29.9680 C.ar      1 T6Q1298     0.0000 
     17 N17       -31.9960  -24.0940  -29.9190 N.3       1 T6Q1298     0.0000 
     18 C18       -31.8110  -24.5200  -31.2820 C.3       1 T6Q1298     0.0000 
     19 C19       -30.5920  -25.3240  -31.5360 C.3       1 T6Q1298     0.0000 
     20 C20       -29.3260  -24.5970  -31.2390 C.3       1 T6Q1298     0.0000 
     21 N21       -29.0100  -24.6600  -29.8560 N.am      1 T6Q1298     0.0000 
     22 C22       -27.6970  -25.1820  -29.5260 C.2       1 T6Q1298     0.0000 
     23 C23       -27.2720  -25.2950  -28.0810 C.3       1 T6Q1298     0.0000 
     24 O24       -26.9390  -25.5340  -30.4240 O.2       1 T6Q1298     0.0000 
     25 C25       -29.8350  -24.2790  -28.7460 C.3       1 T6Q1298     0.0000 
     26 C26       -31.2430  -24.7860  -28.9020 C.3       1 T6Q1298     0.0000 
     27 C27       -32.2420  -21.7880  -29.0520 C.ar      1 T6Q1298     0.0000 
     28 N28       -32.8510  -17.3200  -27.1620 N.ar      1 T6Q1298     0.0000 
     29 C29       -33.2000  -15.9990  -27.2640 C.ar      1 T6Q1298     0.0000 
     30 C30       -33.4850  -15.4580  -28.5190 C.ar      1 T6Q1298     0.0000 
     31 C31       -33.8670  -14.0430  -28.6480 C.1       1 T6Q1298     0.0000 
     32 N32       -34.1620  -12.9420  -28.7510 N.1       1 T6Q1298     0.0000 
     33 S33       -34.7930  -16.6120  -31.9880 S.3       1 T6Q1298     0.0000 
     34 H         -35.1577  -15.0317  -35.2983 H         1 T6Q1298     0.0000 
     35 H         -31.8470  -19.7889  -27.3201 H         1 T6Q1298     0.0000 
     36 H         -34.2766  -19.2970  -30.0457 H         1 T6Q1298     0.0000 
     37 H         -34.9464  -21.0040  -31.6495 H         1 T6Q1298     0.0000 
     38 H         -33.9119  -23.1968  -31.5880 H         1 T6Q1298     0.0000 
     39 H         -31.7949  -23.6282  -31.9646 H         1 T6Q1298     0.0000 
     40 H         -32.7024  -25.1116  -31.6242 H         1 T6Q1298     0.0000 
     41 H         -30.5817  -25.6535  -32.5957 H         1 T6Q1298     0.0000 
     42 H         -30.6291  -26.2520  -30.9285 H         1 T6Q1298     0.0000 
     43 H         -29.4381  -23.5487  -31.5763 H         1 T6Q1298     0.0000 
     44 H         -28.5180  -25.0373  -31.8543 H         1 T6Q1298     0.0000 
     45 H         -29.8735  -23.1794  -28.6395 H         1 T6Q1298     0.0000 
     46 H         -29.4290  -24.6732  -27.7964 H         1 T6Q1298     0.0000 
     47 H         -31.1957  -25.8756  -29.1236 H         1 T6Q1298     0.0000 
     48 H         -31.7513  -24.7044  -27.9154 H         1 T6Q1298     0.0000 
     49 H         -31.5204  -21.9894  -28.3523 H         1 T6Q1298     0.0000 
     50 H         -33.2549  -15.4013  -26.4301 H         1 T6Q1298     0.0000 
     51 H         -36.1539  -17.4761  -34.3755 H         1 T6Q1298     0.0000 
     52 H         -37.1845  -16.3421  -33.8876 H         1 T6Q1298     0.0000 
     53 H         -36.9108  -16.5582  -35.4575 H         1 T6Q1298     0.0000 
     54 H         -32.0082  -13.8691  -30.1795 H         1 T6Q1298     0.0000 
     55 H         -31.4928  -13.5592  -31.6710 H         1 T6Q1298     0.0000 
     56 H         -32.7146  -12.7170  -31.0512 H         1 T6Q1298     0.0000 
     57 H         -26.3471  -25.6652  -27.9938 H         1 T6Q1298     0.0000 
     58 H         -27.2766  -24.4066  -27.6220 H         1 T6Q1298     0.0000 
     59 H         -27.8787  -25.8966  -27.5614 H         1 T6Q1298     0.0000 
@<TRIPOS>BOND
     1    2    1 1    
     2   51    1 1    
     3   52    1 1    
     4   53    1 1    
     5    3    2 1    
     6   34    2 1    
     7    4    3 2    
     8   33    3 1    
     9    5    4 1    
    10    6    5 1    
    11    7    5 2    
    12   54    6 1    
    13   55    6 1    
    14   56    6 1    
    15    8    7 1    
    16   33    7 1    
    17    9    8 ar   
    18   30    8 ar   
    19   10    9 ar   
    20   11   10 1    
    21   28   10 ar   
    22   12   11 1    
    23   35   11 1    
    24   13   12 ar   
    25   27   12 ar   
    26   14   13 ar   
    27   36   13 1    
    28   15   14 ar   
    29   37   14 1    
    30   16   15 ar   
    31   38   15 1    
    32   17   16 1    
    33   27   16 ar   
    34   18   17 1    
    35   26   17 1    
    36   19   18 1    
    37   39   18 1    
    38   40   18 1    
    39   20   19 1    
    40   41   19 1    
    41   42   19 1    
    42   21   20 1    
    43   43   20 1    
    44   44   20 1    
    45   22   21 am   
    46   25   21 1    
    47   23   22 1    
    48   24   22 2    
    49   57   23 1    
    50   58   23 1    
    51   59   23 1    
    52   26   25 1    
    53   45   25 1    
    54   46   25 1    
    55   47   26 1    
    56   48   26 1    
    57   49   27 1    
    58   29   28 ar   
    59   30   29 ar   
    60   50   29 1    
    61   31   30 1    
    62   32   31 3    
@<TRIPOS>SUBSTRUCTURE
     1 T6Q1298     1 GROUP   
@<TRIPOS>SET

