#    Name: 4dph_P65_2_INTS_M
#    Modification time : Mon Apr  7 22:53:39 2014

@<TRIPOS>MOLECULE
4dph_P65_2_INTS_M
   63     0     6     0     0
SMALL
NO_CHARGES


@<TRIPOS>ATOM
      1 O          26.3655  -29.1465    9.8395 O.2       1 ALC1        0.0000 
      2 O          27.2880  -29.4960    8.8900 O.2       5 ALL1        0.0000 
      3 O          25.4430  -28.7970   10.7890 O.2       3 ALP1        0.0000 
      4 O          25.7190  -29.8710    8.8130 O.2       1 ALC1        0.0000 
      5 O          24.1500  -30.2460    8.7360 O.2       3 ALP1        0.0000 
      6 CA         26.2410  -27.5345    8.9450 C.3       2 GLC5        0.0000 
      7 CA         28.0250  -28.4090    8.5540 C.3       6 GLL5        0.0000 
      8 CA         24.4570  -26.6600    9.3360 C.3       4 GLP5        0.0000 
      9 CA         27.8000  -26.2655   10.9380 C.3       2 GLC5        0.0000 
     10 CA         28.5320  -26.1300    8.8860 C.3       6 GLL5        0.0000 
     11 CA         27.0680  -26.4010   12.9900 C.3       4 GLP5        0.0000 
     12 CA         26.4945  -26.3950    9.1110 C.3       2 GLC5        0.0000 
     13 CA         27.5195  -25.1765    7.4200 C.3       2 GLC5        0.0000 
     14 CA         26.5070  -24.2230    5.9540 C.3       4 GLP5        0.0000 
     15 CA         30.3550  -26.0300    9.7660 C.3       2 GLC5        0.0000 
     16 CA         32.1780  -25.9300   10.6460 C.3       4 GLP5        0.0000 
     17 O          28.8580  -23.7555    8.8005 O.2       1 ALC1        0.0000 
     18 O          28.3120  -24.9650    9.5370 O.2       5 ALL1        0.0000 
     19 O          29.4040  -22.5460    8.0640 O.2       3 ALP1        0.0000 
     20 CA         30.9505  -26.6170    8.9485 C.3       2 GLC5        0.0000 
     21 CA         29.7230  -27.3040    7.2510 C.3       6 GLL5        0.0000 
     22 CA         30.8760  -27.4400    3.9780 C.3       2 GLC5        0.0000 
     23 CA         30.7860  -27.2880    6.1810 C.3       6 GLL5        0.0000 
     24 CA         30.9660  -27.5920    1.7750 C.3       4 GLP5        0.0000 
     25 CA         32.5265  -26.7735    5.6300 C.3       2 GLC5        0.0000 
     26 CA         34.2670  -26.2590    5.0790 C.3       4 GLP5        0.0000 
     27 CA         31.9480  -27.7030    8.0580 C.3       2 GLC5        0.0000 
     28 CA         33.1100  -28.1180    9.9350 C.3       4 GLP5        0.0000 
     29 CA         28.1785  -30.6685    6.7455 C.3       2 GLC5        0.0000 
     30 CA         30.2240  -30.5520    7.4030 C.3       6 GLL5        0.0000 
     31 CA         26.1330  -30.7850    6.0880 C.3       4 GLP5        0.0000 
     32 CA         29.2365  -32.5670    8.6320 C.3       2 GLC5        0.0000 
     33 CA         30.1320  -31.8990    6.6930 C.3       6 GLL5        0.0000 
     34 CA         28.3410  -33.2350   10.5710 C.3       4 GLP5        0.0000 
     35 CA         31.8285  -33.3960    5.0650 C.3       2 GLC5        0.0000 
     36 CA         30.4860  -31.7670    5.2130 C.3       6 GLL5        0.0000 
     37 CA         33.1710  -35.0250    4.9170 C.3       4 GLP5        0.0000 
     38 CA         31.8000  -31.1805   -1.5835 C.3       2 GLC5        0.0000 
     39 CA         32.0800  -31.3180    0.2080 C.3       6 GLL5        0.0000 
     40 CA         31.5200  -31.0430   -3.3750 C.3       4 GLP5        0.0000 
     41 CA         32.4930  -29.1390    1.7435 C.3       2 GLC5        0.0000 
     42 CA         34.0200  -30.6860    1.7120 C.3       6 GLL5        0.0000 
     43 CA         31.0725  -30.7033    8.7260 C.3       2 GLC5        0.0000 
     44 CA         31.9670  -30.1810   10.4040 C.3       4 GLP5        0.0000 
     45 CA         28.3025  -32.0245    5.8220 C.3       2 GLC5        0.0000 
     46 CA         26.2960  -32.2160    5.6910 C.3       4 GLP5        0.0000 
     47 CA         32.7197  -33.1905    4.1382 C.3       2 GLC5        0.0000 
     48 CA         32.5650  -31.2730    3.9880 C.3       6 GLL5        0.0000 
     49 CA         31.0776  -29.8735    1.0964 C.3       2 GLC5        0.0000 
     50 CA         31.9720  -31.4390    2.7310 C.3       6 GLL5        0.0000 
     51 CA         29.9450  -28.4420    1.0110 C.3       4 GLP5        0.0000 
     52 CA         34.8035  -28.7497    3.0225 C.3       2 GLC5        0.0000 
     53 CA         35.2900  -26.8950    3.7140 C.3       4 GLP5        0.0000 
     54 CA         35.3411  -31.9694    1.3885 C.3       2 GLC5        0.0000 
     55 CA         34.8580  -30.3440    0.5240 C.3       6 GLL5        0.0000 
     56 CA         36.5710  -33.3090    1.6920 C.3       4 GLP5        0.0000 
     57 CA         35.4085  -31.9915    2.6035 C.3       2 GLC5        0.0000 
     58 CA         34.6140  -30.5230    2.9500 C.3       6 GLL5        0.0000 
     59 CA         34.7512  -28.8158    4.2290 C.3       2 GLC5        0.0000 
     60 CA         33.8780  -30.8250    4.0800 C.3       6 GLL5        0.0000 
     61 CA         34.9372  -32.6668    4.9090 C.3       2 GLC5        0.0000 
     62 CA         34.5470  -30.6480    5.4080 C.3       6 GLL5        0.0000 
     63 CA         35.6620  -34.5970    5.0740 C.3       4 GLP5        0.0000 
@<TRIPOS>BOND
@<TRIPOS>SUBSTRUCTURE
     1 ALC1        1 GROUP        1 X    ALC  0     ROOT ALC X 1
     2 GLC5        6 GROUP        1 X    GLC  0     **** GLC X 6
     3 ALP1        3 GROUP        1 Y    ALP  0     ROOT ALP Y 8
     4 GLP5        8 GROUP        1 Y    GLP  0     **** GLP Y 13
     5 ALL1        2 GROUP        1 Z    ALL  0     ROOT ALL Z 15
     6 GLL5        7 GROUP        1 Z    GLL  0     **** GLL Z 20
@<TRIPOS>SET

