#    Name: 4dph_P65_2_ligand
#    Modification time : Mon Apr  7 22:53:39 2014

@<TRIPOS>MOLECULE
4dph_P65_2_ligand
   38    39     1     0     0
SMALL
NO_CHARGES


@<TRIPOS>ATOM
      1 NH2        27.2880  -29.4960    8.8900 N.pl3     1 P65701      0.0000 
      2 C5         28.0250  -28.4090    8.5540 C.ar      1 P65701      0.0000 
      3 N4         27.8090  -27.2420    9.1970 N.ar      1 P65701      0.0000 
      4 C3         28.5320  -26.1300    8.8860 C.ar      1 P65701      0.0000 
      5 NH1        28.3120  -24.9650    9.5370 N.pl3     1 P65701      0.0000 
      6 N2         29.4720  -26.1630    7.9220 N.ar      1 P65701      0.0000 
      7 C6         29.0010  -28.4600    7.5590 C.ar      1 P65701      0.0000 
      8 C1         29.7230  -27.3040    7.2510 C.ar      1 P65701      0.0000 
      9 CM1        30.7860  -27.2880    6.1810 C.3       1 P65701      0.0000 
     10 O7         29.2510  -29.6300    6.8850 O.3       1 P65701      0.0000 
     11 C8         30.2240  -30.5520    7.4030 C.3       1 P65701      0.0000 
     12 C9         30.1320  -31.8990    6.6930 C.3       1 P65701      0.0000 
     13 C10        30.4860  -31.7670    5.2130 C.3       1 P65701      0.0000 
     14 O11        31.8910  -31.5440    5.1520 O.3       1 P65701      0.0000 
     15 C12        32.5650  -31.2730    3.9880 C.ar      1 P65701      0.0000 
     16 C17        31.9720  -31.4390    2.7310 C.ar      1 P65701      0.0000 
     17 C16        32.7090  -31.1450    1.5800 C.ar      1 P65701      0.0000 
     18 CL3        32.0800  -31.3180    0.2080 Cl        1 P65701      0.0000 
     19 C15        34.0200  -30.6860    1.7120 C.ar      1 P65701      0.0000 
     20 CL2        34.8580  -30.3440    0.5240 Cl        1 P65701      0.0000 
     21 C14        34.6140  -30.5230    2.9500 C.ar      1 P65701      0.0000 
     22 C13        33.8780  -30.8250    4.0800 C.ar      1 P65701      0.0000 
     23 CL1        34.5470  -30.6480    5.4080 Cl        1 P65701      0.0000 
     24 H          27.7311  -30.3837    8.7651 H         1 P65701      0.0000 
     25 H          26.3665  -29.3139    9.2330 H         1 P65701      0.0000 
     26 H          27.6153  -24.9864   10.2540 H         1 P65701      0.0000 
     27 H          28.8656  -24.1856    9.2435 H         1 P65701      0.0000 
     28 H          30.0770  -30.7276    8.4792 H         1 P65701      0.0000 
     29 H          31.2478  -30.1708    7.2712 H         1 P65701      0.0000 
     30 H          29.1170  -32.2863    6.7858 H         1 P65701      0.0000 
     31 H          30.8189  -32.6023    7.1647 H         1 P65701      0.0000 
     32 H          29.9213  -30.9364    4.8065 H         1 P65701      0.0000 
     33 H          30.1948  -32.6848    4.7160 H         1 P65701      0.0000 
     34 H          31.0093  -31.7720    2.6562 H         1 P65701      0.0000 
     35 H          35.5748  -30.1870    3.0271 H         1 P65701      0.0000 
     36 H          31.6807  -27.0362    6.5500 H         1 P65701      0.0000 
     37 H          30.8894  -28.1829    5.7468 H         1 P65701      0.0000 
     38 H          30.5732  -26.6331    5.4558 H         1 P65701      0.0000 
@<TRIPOS>BOND
     1    2    1 1    
     2   24    1 1    
     3   25    1 1    
     4    3    2 ar   
     5    7    2 ar   
     6    4    3 ar   
     7    5    4 1    
     8    6    4 ar   
     9   26    5 1    
    10   27    5 1    
    11    8    6 ar   
    12    8    7 ar   
    13   10    7 1    
    14    9    8 1    
    15   36    9 1    
    16   37    9 1    
    17   38    9 1    
    18   11   10 1    
    19   12   11 1    
    20   28   11 1    
    21   29   11 1    
    22   13   12 1    
    23   30   12 1    
    24   31   12 1    
    25   14   13 1    
    26   32   13 1    
    27   33   13 1    
    28   15   14 1    
    29   16   15 ar   
    30   22   15 ar   
    31   17   16 ar   
    32   34   16 1    
    33   18   17 1    
    34   19   17 ar   
    35   20   19 1    
    36   21   19 ar   
    37   22   21 ar   
    38   35   21 1    
    39   23   22 1    
@<TRIPOS>SUBSTRUCTURE
     1 P65701      1 GROUP   
@<TRIPOS>SET

