#    Name: 4brx_KGW_1_INTS_M
#    Modification time : Tue Mar 25 08:20:20 2014

@<TRIPOS>MOLECULE
4brx_KGW_1_INTS_M
   82     0     9     0     0
SMALL
NO_CHARGES


@<TRIPOS>ATOM
      1 CA        -10.8635    5.0850   -0.5510 C.3       3 GLC5        0.0000 
      2 CA        -10.4060    3.0680   -1.1270 C.3       9 GLL5        0.0000 
      3 CA        -11.3210    7.1020    0.0250 C.3       6 GLP5        0.0000 
      4 CA         -8.5265    3.0760   -5.0740 C.3       3 GLC5        0.0000 
      5 CA         -8.5580    3.3080   -2.9820 C.3       9 GLL5        0.0000 
      6 CA         -8.4950    2.8440   -7.1660 C.3       6 GLP5        0.0000 
      7 CA        -11.7475    5.8360   -1.4110 C.3       3 GLC5        0.0000 
      8 CA        -12.1740    4.5700   -2.8470 C.3       9 GLL5        0.0000 
      9 CA        -12.9590    6.0420   -0.9645 C.3       3 GLC5        0.0000 
     10 CA        -14.5970    4.9820   -1.9540 C.3       9 GLL5        0.0000 
     11 CA        -15.0370    7.0190   -2.7185 C.3       3 GLC5        0.0000 
     12 CA        -15.4770    9.0560   -3.4830 C.3       6 GLP5        0.0000 
     13 CA        -11.0390    5.6540   -7.2740 C.3       3 GLC5        0.0000 
     14 CA        -11.2420    5.7570   -5.1890 C.3       9 GLL5        0.0000 
     15 CA        -10.8360    5.5510   -9.3590 C.3       6 GLP5        0.0000 
     16 O         -14.7295    6.0045   -5.7935 O.2       1 ALC1        0.0000 
     17 O         -13.4230    6.7610   -5.4880 O.2       7 ALL1        0.0000 
     18 O         -16.0360    5.2480   -6.0990 O.2       4 ALP1        0.0000 
     19 CA        -12.3980    8.3825   -4.3335 C.3       3 GLC5        0.0000 
     20 CA        -13.1570    7.8440   -6.2600 C.3       9 GLL5        0.0000 
     21 CA        -11.6390    8.9210   -2.4070 C.3       6 GLP5        0.0000 
     22 CA        -14.3170    8.4500   -4.8715 C.3       3 GLC5        0.0000 
     23 CA        -12.6405    7.7290   -8.0440 C.3       3 GLC5        0.0000 
     24 CA        -12.1240    7.6140   -9.8280 C.3       6 GLP5        0.0000 
     25 N         -15.6035    8.1220   -7.0485 N.am      2 SEC2        0.0000 
     26 N         -14.1820    8.4690   -6.8980 N.am      8 SEL2        0.0000 
     27 N         -17.0250    7.7750   -7.1990 N.am      5 SEP2        0.0000 
     28 CA        -13.8670   10.8905   -6.2630 C.3       3 GLC5        0.0000 
     29 CA        -13.9550    9.5430   -7.6620 C.3       9 GLL5        0.0000 
     30 CA        -13.7790   12.2380   -4.8640 C.3       6 GLP5        0.0000 
     31 CA        -14.4570    9.8585   -9.6910 C.3       3 GLC5        0.0000 
     32 CA        -14.9590   10.1740  -11.7200 C.3       6 GLP5        0.0000 
     33 CA        -15.7280    9.7045   -6.8625 C.3       3 GLC5        0.0000 
     34 CA        -17.5010    9.8660   -6.0630 C.3       6 GLP5        0.0000 
     35 CA        -15.1490    8.3850   -8.9235 C.3       3 GLC5        0.0000 
     36 CA        -16.3430    7.2270  -10.1850 C.3       6 GLP5        0.0000 
     37 CA        -13.0395    8.5785   -8.7450 C.3       3 GLC5        0.0000 
     38 CA        -12.7355   10.8195   -6.0330 C.3       3 GLC5        0.0000 
     39 CA        -11.6920    9.4010   -7.2020 C.3       9 GLL5        0.0000 
     40 CA        -11.9080    8.5075   -8.5150 C.3       3 GLC5        0.0000 
     41 CA        -10.7220    8.4670   -8.4015 C.3       3 GLC5        0.0000 
     42 CA         -9.3200    9.3200   -6.9750 C.3       9 GLL5        0.0000 
     43 CA        -10.4405    8.9785   -4.0030 C.3       3 GLC5        0.0000 
     44 CA         -9.2420    9.0360   -5.5990 C.3       9 GLL5        0.0000 
     45 CA         -9.2120    8.6285   -3.3580 C.3       3 GLC5        0.0000 
     46 CA         -8.0780    8.5050   -5.0780 C.3       9 GLL5        0.0000 
     47 CA        -10.3460    8.7520   -1.6380 C.3       6 GLP5        0.0000 
     48 CA         -6.7525    8.4295   -3.3860 C.3       3 GLC5        0.0000 
     49 CA         -5.4270    8.3540   -1.6940 C.3       6 GLP5        0.0000 
     50 CA         -8.0090   10.2830   -3.9835 C.3       3 GLC5        0.0000 
     51 CA         -7.9400   12.0610   -2.8890 C.3       6 GLP5        0.0000 
     52 N          -9.6095   10.9045  -11.0105 N.am      2 SEC2        0.0000 
     53 N          -9.0550   10.2010   -9.8520 N.am      8 SEL2        0.0000 
     54 N         -10.1640   11.6080  -12.1690 N.am      5 SEP2        0.0000 
     55 CA         -7.1350    7.2135  -12.5355 C.3       3 GLC5        0.0000 
     56 CA         -7.3660    8.8450  -11.5430 C.3       9 GLL5        0.0000 
     57 CA         -6.9040    5.5820  -13.5280 C.3       6 GLP5        0.0000 
     58 CA         -9.1910    9.1710  -12.2475 C.3       3 GLC5        0.0000 
     59 CA        -11.0160    9.4970  -12.9520 C.3       6 GLP5        0.0000 
     60 CA         -6.6095   10.4795  -10.3530 C.3       3 GLC5        0.0000 
     61 CA         -5.8530   12.1140   -9.1630 C.3       6 GLP5        0.0000 
     62 CA         -5.7480    9.6305  -12.3640 C.3       3 GLC5        0.0000 
     63 CA         -4.1300   10.4160  -13.1850 C.3       6 GLP5        0.0000 
     64 CA        -10.3923    6.0170   -2.3893 C.3       3 GLC5        0.0000 
     65 CA        -10.3880    4.9470   -4.4340 C.3       9 GLL5        0.0000 
     66 CA        -10.1640    7.3950   -0.9290 C.3       6 GLP5        0.0000 
     67 CA        -12.3493    3.4623   -4.5175 C.3       3 GLC5        0.0000 
     68 CA        -10.8530    4.3310   -3.2650 C.3       9 GLL5        0.0000 
     69 CA        -13.1850    2.4740   -5.9790 C.3       6 GLP5        0.0000 
     70 CA        -14.1270    7.3755   -3.8453 C.3       3 GLC5        0.0000 
     71 CA        -12.5480    5.9920   -4.7920 C.3       9 GLL5        0.0000 
     72 CA        -12.9810    4.0845   -5.0933 C.3       3 GLC5        0.0000 
     73 CA        -13.0060    5.3980   -3.6230 C.3       9 GLL5        0.0000 
     74 CA        -12.0000    3.9130   -5.3952 C.3       3 GLC5        0.0000 
     75 CA         -9.6550    4.0980   -5.9888 C.3       3 GLC5        0.0000 
     76 CA        -11.8242    7.3235   -3.5526 C.3       3 GLC5        0.0000 
     77 CA         -9.2930   10.6935   -4.9300 C.3       3 GLC5        0.0000 
     78 CA         -9.3050   12.2090   -3.5730 C.3       6 GLP5        0.0000 
     79 CA         -8.4465   10.9120   -6.8540 C.3       3 GLC5        0.0000 
     80 CA         -7.6120   12.6460   -7.4210 C.3       6 GLP5        0.0000 
     81 CA         -7.6222   10.7453   -7.4908 C.3       3 GLC5        0.0000 
     82 CA         -8.2180    9.1210   -7.8260 C.3       9 GLL5        0.0000 
@<TRIPOS>BOND
@<TRIPOS>SUBSTRUCTURE
     1 ALC1       16 GROUP        1 X    ALC  0     ROOT ALC X 1
     2 SEC2       25 GROUP        1 X    SEC  0     **** SEC X 2
     3 GLC5        1 GROUP        1 X    GLC  0     **** GLC X 6
     4 ALP1       18 GROUP        1 Y    ALP  0     ROOT ALP Y 8
     5 SEP2       27 GROUP        1 Y    SEP  0     **** SEP Y 9
     6 GLP5        3 GROUP        1 Y    GLP  0     **** GLP Y 13
     7 ALL1       17 GROUP        1 Z    ALL  0     ROOT ALL Z 15
     8 SEL2       26 GROUP        1 Z    SEL  0     **** SEL Z 16
     9 GLL5        2 GROUP        1 Z    GLL  0     **** GLL Z 20
@<TRIPOS>SET

