#    Name: 4brx_KGW_1_ligand
#    Modification time : Tue Mar 25 08:20:20 2014

@<TRIPOS>MOLECULE
4brx_KGW_1_ligand
   57    60     1     0     0
SMALL
NO_CHARGES


@<TRIPOS>ATOM
      1 CBC       -10.4060    3.0680   -1.1270 C.3       1 KGW1685     0.0000 
      2 CBE        -9.4360    2.0920   -0.4360 C.3       1 KGW1685     0.0000 
      3 OBG        -8.0290    2.3360   -0.8170 O.3       1 KGW1685     0.0000 
      4 CBF        -7.7180    2.2780   -2.1980 C.3       1 KGW1685     0.0000 
      5 CBD        -8.5580    3.3080   -2.9820 C.3       1 KGW1685     0.0000 
      6 NBB        -9.9410    3.5130   -2.4760 N.3       1 KGW1685     0.0000 
      7 CBA       -10.8530    4.3310   -3.2650 C.ar      1 KGW1685     0.0000 
      8 CAY       -12.1740    4.5700   -2.8470 C.ar      1 KGW1685     0.0000 
      9 CAS       -13.0060    5.3980   -3.6230 C.ar      1 KGW1685     0.0000 
     10 OAT       -14.2890    5.6360   -3.2880 O.3       1 KGW1685     0.0000 
     11 CAU       -14.5970    4.9820   -1.9540 C.3       1 KGW1685     0.0000 
     12 CAX       -10.3880    4.9470   -4.4340 C.ar      1 KGW1685     0.0000 
     13 CAR       -11.2420    5.7570   -5.1890 C.ar      1 KGW1685     0.0000 
     14 CAL       -12.5480    5.9920   -4.7920 C.ar      1 KGW1685     0.0000 
     15 NAH       -13.4230    6.7610   -5.4880 N.pl3     1 KGW1685     0.0000 
     16 C2        -13.1570    7.8440   -6.2600 C.ar      1 KGW1685     0.0000 
     17 N3        -11.9210    8.3250   -6.4160 N.ar      1 KGW1685     0.0000 
     18 N1        -14.1820    8.4690   -6.8980 N.ar      1 KGW1685     0.0000 
     19 C6        -13.9550    9.5430   -7.6620 C.ar      1 KGW1685     0.0000 
     20 C4        -11.6920    9.4010   -7.2020 C.ar      1 KGW1685     0.0000 
     21 NAE       -10.4600    9.8600   -7.4290 N.pl3     1 KGW1685     0.0000 
     22 CAJ        -9.3200    9.3200   -6.9750 C.ar      1 KGW1685     0.0000 
     23 CAQ        -9.2420    9.0360   -5.5990 C.ar      1 KGW1685     0.0000 
     24 CAW        -8.0780    8.5050   -5.0780 C.ar      1 KGW1685     0.0000 
     25 CAZ        -6.9850    8.2550   -5.9300 C.ar      1 KGW1685     0.0000 
     26 CAV        -7.0470    8.5680   -7.2950 C.ar      1 KGW1685     0.0000 
     27 CAP        -8.2180    9.1210   -7.8260 C.ar      1 KGW1685     0.0000 
     28 CAO        -8.2440    9.4030   -9.3440 C.2       1 KGW1685     0.0000 
     29 OAI        -9.0550   10.2010   -9.8520 O.2       1 KGW1685     0.0000 
     30 NAN        -7.4290    8.6130  -10.0680 N.am      1 KGW1685     0.0000 
     31 NAQ       -12.7040   10.0120   -7.8160 N.ar      1 KGW1685     0.0000 
     32 CAM        -7.3660    8.8450  -11.5430 C.3       1 KGW1685     0.0000 
     33 H         -10.5412    3.9419   -0.4686 H         1 KGW1685     0.0000 
     34 H         -11.3881    2.5742   -1.2117 H         1 KGW1685     0.0000 
     35 H          -9.7351    1.0685   -0.7039 H         1 KGW1685     0.0000 
     36 H          -9.5641    2.1977    0.6509 H         1 KGW1685     0.0000 
     37 H          -7.9304    1.2905   -2.6306 H         1 KGW1685     0.0000 
     38 H          -6.6611    2.5044   -2.3957 H         1 KGW1685     0.0000 
     39 H          -8.5871    2.9833   -4.0439 H         1 KGW1685     0.0000 
     40 H          -8.0051    4.2714   -2.9752 H         1 KGW1685     0.0000 
     41 H         -12.5264    4.1474   -1.9893 H         1 KGW1685     0.0000 
     42 H          -9.4177    4.8028   -4.7363 H         1 KGW1685     0.0000 
     43 H         -10.8851    6.1875   -6.0623 H         1 KGW1685     0.0000 
     44 H         -14.4778    6.4700   -5.4172 H         1 KGW1685     0.0000 
     45 H         -14.7510   10.0223   -8.1429 H         1 KGW1685     0.0000 
     46 H         -10.3694   10.7558   -8.0391 H         1 KGW1685     0.0000 
     47 H         -10.0488    9.2258   -4.9978 H         1 KGW1685     0.0000 
     48 H          -7.9984    8.2903   -4.0798 H         1 KGW1685     0.0000 
     49 H          -6.1276    7.8354   -5.5414 H         1 KGW1685     0.0000 
     50 H          -6.2406    8.3929   -7.8987 H         1 KGW1685     0.0000 
     51 H          -6.8566    7.8763   -9.6961 H         1 KGW1685     0.0000 
     52 H         -14.4651    3.9913   -1.9868 H         1 KGW1685     0.0000 
     53 H         -14.0094    5.3319   -1.2244 H         1 KGW1685     0.0000 
     54 H         -15.5426    5.1426   -1.6712 H         1 KGW1685     0.0000 
     55 H          -7.0585    9.7714  -11.7605 H         1 KGW1685     0.0000 
     56 H          -6.7337    8.2134  -11.9916 H         1 KGW1685     0.0000 
     57 H          -8.2588    8.7232  -11.9766 H         1 KGW1685     0.0000 
@<TRIPOS>BOND
     1    2    1 1    
     2    6    1 1    
     3   33    1 1    
     4   34    1 1    
     5    3    2 1    
     6   35    2 1    
     7   36    2 1    
     8    4    3 1    
     9    5    4 1    
    10   37    4 1    
    11   38    4 1    
    12    6    5 1    
    13   39    5 1    
    14   40    5 1    
    15    7    6 1    
    16    8    7 ar   
    17   12    7 ar   
    18    9    8 ar   
    19   41    8 1    
    20   10    9 1    
    21   14    9 ar   
    22   11   10 1    
    23   52   11 1    
    24   53   11 1    
    25   54   11 1    
    26   13   12 ar   
    27   42   12 1    
    28   14   13 ar   
    29   43   13 1    
    30   15   14 1    
    31   16   15 1    
    32   44   15 1    
    33   17   16 ar   
    34   18   16 ar   
    35   20   17 ar   
    36   19   18 ar   
    37   31   19 ar   
    38   45   19 1    
    39   21   20 1    
    40   31   20 ar   
    41   22   21 1    
    42   46   21 1    
    43   23   22 ar   
    44   27   22 ar   
    45   24   23 ar   
    46   47   23 1    
    47   25   24 ar   
    48   48   24 1    
    49   26   25 ar   
    50   49   25 1    
    51   27   26 ar   
    52   50   26 1    
    53   28   27 1    
    54   29   28 2    
    55   30   28 am   
    56   32   30 1    
    57   51   30 1    
    58   55   32 1    
    59   56   32 1    
    60   57   32 1    
@<TRIPOS>SUBSTRUCTURE
     1 KGW1685     1 GROUP   
@<TRIPOS>SET

