#    Name: 1WAY_1_CAVITY_N1_6.mol2
#    Modification time : Mon Mar 10 15:52:04 2014

@<TRIPOS>MOLECULE
1WAY_1_CAVITY_N1_6.mol2
   81     0     6     0     0
SMALL
NO_CHARGES


@<TRIPOS>ATOM
      1 CA         10.5262   15.6447   49.4183 C.3       5 GLY6        0.0000 
      2 CA         10.9283   16.8651   52.8605 C.3       5 GLY6        0.0000 
      3 CA         12.1055   17.1392   51.9722 C.3       5 GLY6        0.0000 
      4 DU         10.0262   16.8552   51.6621 H         6 CUB7        0.0000 
      5 CA         11.2034   17.1293   50.7738 C.3       5 GLY6        0.0000 
      6 CA         10.3014   17.1194   49.5753 C.3       5 GLY6        0.0000 
      7 CA         10.7034   18.3398   53.0176 C.3       5 GLY6        0.0000 
      8 NZ          9.8014   18.3299   51.8191 N.2       3 LYS4        0.0000 
      9 CA         10.9786   18.6040   50.9308 C.3       5 GLY6        0.0000 
     10 NZ          7.7222   18.0459   51.5090 N.2       3 LYS4        0.0000 
     11 DU          8.8994   18.3200   50.6207 H         6 CUB7        0.0000 
     12 N          10.0766   18.5941   49.7324 N.2       2 ALA2        0.0000 
     13 N           7.9973   18.3101   49.4222 N.2       2 ALA2        0.0000 
     14 N           9.1745   18.5842   48.5339 N.2       2 ALA2        0.0000 
     15 N           5.0161   18.0163   47.9137 N.2       2 ALA2        0.0000 
     16 NZ          9.5766   19.8046   51.9762 N.2       3 LYS4        0.0000 
     17 O          10.7537   20.0787   51.0879 O.2       2 ALA2        0.0000 
     18 CZ          5.1429   18.9725   53.4427 C.ar      4 PHE5        0.0000 
     19 NZ          6.3201   19.2466   52.5544 N.2       3 LYS4        0.0000 
     20 NZ          7.4973   19.5207   51.6660 N.2       3 LYS4        0.0000 
     21 NZ          8.6745   19.7947   50.7777 N.2       3 LYS4        0.0000 
     22 N           9.8517   20.0688   49.8894 N.2       2 ALA2        0.0000 
     23 N          11.0289   20.3429   49.0011 N.2       2 ALA2        0.0000 
     24 CZ          4.2409   18.9626   52.2442 C.ar      4 PHE5        0.0000 
     25 DU          5.4181   19.2367   51.3559 H         6 CUB7        0.0000 
     26 DU          6.5953   19.5108   50.4676 H         6 CUB7        0.0000 
     27 N           7.7725   19.7849   49.5793 N.2       2 ALA2        0.0000 
     28 N           8.9497   20.0589   48.6910 N.2       2 ALA2        0.0000 
     29 N          10.1269   20.3330   47.8027 N.2       2 ALA2        0.0000 
     30 CZ          3.3389   18.9527   51.0458 C.ar      4 PHE5        0.0000 
     31 DU          4.5161   19.2268   50.1575 H         6 CUB7        0.0000 
     32 N           5.6933   19.5009   49.2692 N.2       2 ALA2        0.0000 
     33 N           4.7912   19.4910   48.0707 N.2       2 ALA2        0.0000 
     34 NZ          5.8201   20.4571   54.7982 N.2       3 LYS4        0.0000 
     35 CA          9.3517   21.2793   52.1332 C.3       5 GLY6        0.0000 
     36 O          10.5289   21.5534   51.2449 O.2       2 ALA2        0.0000 
     37 CZ          4.9181   20.4472   53.5997 C.ar      4 PHE5        0.0000 
     38 NZ          6.0953   20.7213   52.7114 N.2       3 LYS4        0.0000 
     39 NZ          7.2725   20.9954   51.8231 N.2       3 LYS4        0.0000 
     40 DU          8.4497   21.2695   50.9348 H         6 CUB7        0.0000 
     41 DU          9.6269   21.5435   50.0465 H         6 CUB7        0.0000 
     42 N          10.8041   21.8176   49.1582 N.2       2 ALA2        0.0000 
     43 CZ          4.0161   20.4373   52.4013 C.ar      4 PHE5        0.0000 
     44 DU          5.1933   20.7114   51.5130 H         6 CUB7        0.0000 
     45 DU          6.3705   20.9855   50.6247 H         6 CUB7        0.0000 
     46 O           7.5477   21.2596   49.7364 O.2       2 ALA2        0.0000 
     47 O           8.7249   21.5337   48.8481 O.2       2 ALA2        0.0000 
     48 O           9.9021   21.8077   47.9598 O.2       2 ALA2        0.0000 
     49 CA         11.0793   22.0818   47.0715 C.3       5 GLY6        0.0000 
     50 DU          4.2912   20.7015   50.3145 H         6 CUB7        0.0000 
     51 CA          5.4684   20.9756   49.4262 C.3       5 GLY6        0.0000 
     52 NZ          6.4973   21.9417   56.1537 N.2       3 LYS4        0.0000 
     53 NZ          7.6745   22.2158   55.2653 N.2       3 LYS4        0.0000 
     54 NZ          5.5953   21.9318   54.9552 N.2       3 LYS4        0.0000 
     55 OG          6.7725   22.2059   54.0669 O.2       1 SER1        0.0000 
     56 OG          7.9497   22.4800   53.1786 O.2       1 SER1        0.0000 
     57 N           9.1269   22.7541   52.2903 N.2       2 ALA2        0.0000 
     58 CA          4.6932   21.9219   53.7568 C.3       5 GLY6        0.0000 
     59 N           5.8704   22.1960   52.8685 N.2       2 ALA2        0.0000 
     60 CA          7.0476   22.4701   51.9802 C.3       5 GLY6        0.0000 
     61 CA          8.2248   22.7442   51.0919 C.3       5 GLY6        0.0000 
     62 N           9.4020   23.0183   50.2036 N.2       2 ALA2        0.0000 
     63 CA         10.5792   23.2923   49.3153 C.3       5 GLY6        0.0000 
     64 N          11.7564   23.5664   48.4270 N.2       2 ALA2        0.0000 
     65 CA          3.7912   21.9120   52.5583 C.3       5 GLY6        0.0000 
     66 N           4.9684   22.1861   51.6700 N.2       2 ALA2        0.0000 
     67 N           6.1456   22.4602   50.7817 N.2       2 ALA2        0.0000 
     68 CA          7.3228   22.7343   49.8934 C.3       5 GLY6        0.0000 
     69 CA          8.5000   23.0084   49.0051 C.3       5 GLY6        0.0000 
     70 O           9.6772   23.2825   48.1168 O.2       2 ALA2        0.0000 
     71 NZ         10.8544   23.5565   47.2285 N.2       3 LYS4        0.0000 
     72 N           4.0664   22.1762   50.4716 N.2       2 ALA2        0.0000 
     73 N           5.2436   22.4503   49.5833 N.2       2 ALA2        0.0000 
     74 N           9.9524   23.5467   46.0301 N.2       2 ALA2        0.0000 
     75 CA          9.1772   24.4930   50.3606 C.3       5 GLY6        0.0000 
     76 CA         10.3544   24.7671   49.4723 C.3       5 GLY6        0.0000 
     77 N           7.0980   24.2090   50.0505 N.2       2 ALA2        0.0000 
     78 CA          8.2752   24.4831   49.1622 C.3       5 GLY6        0.0000 
     79 CA          9.4524   24.7572   48.2739 C.3       5 GLY6        0.0000 
     80 CA         10.6296   25.0313   47.3856 C.3       5 GLY6        0.0000 
     81 N           8.5503   24.7473   47.0755 N.2       2 ALA2        0.0000 
@<TRIPOS>BOND
@<TRIPOS>SUBSTRUCTURE
     1 SER1       55 GROUP   
     2 ALA2       12 GROUP   
     3 LYS4        8 GROUP   
     4 PHE5       18 GROUP   
     5 GLY6        1 GROUP   
     6 CUB7        4 GROUP   
@<TRIPOS>SET

