#    Name: 1way_L02_1_INTS_M
#    Modification time : Tue Mar 25 08:52:00 2014

@<TRIPOS>MOLECULE
1way_L02_1_INTS_M
   51     0     9     0     0
SMALL
NO_CHARGES


@<TRIPOS>ATOM
      1 O           9.0690   19.5700   53.2490 O.2       1 ALC1        0.0000 
      2 O           9.4380   19.8340   51.9440 O.2       7 ALL1        0.0000 
      3 O           8.7000   19.3060   54.5540 O.2       4 ALP1        0.0000 
      4 N           9.1455   22.2045   52.3360 N.am      2 SEC2        0.0000 
      5 N           9.4610   21.0800   51.3350 N.am      8 SEL2        0.0000 
      6 N           8.8300   23.3290   53.3370 N.am      5 SEP2        0.0000 
      7 CA         10.5980   20.0510   52.6985 C.3       3 GLC5        0.0000 
      8 CA          9.8620   18.9330   51.0430 C.3       9 GLL5        0.0000 
      9 CA         11.3340   21.1690   54.3540 C.3       6 GLP5        0.0000 
     10 CA         10.6930   18.6205   53.1755 C.3       3 GLC5        0.0000 
     11 CA          9.9790   17.4840   51.3890 C.3       9 GLL5        0.0000 
     12 CA         11.4070   19.7570   54.9620 C.3       6 GLP5        0.0000 
     13 CA         12.3225   20.5835   49.0530 C.3       3 GLC5        0.0000 
     14 CA         10.9360   22.0640   48.0980 C.3       9 GLL5        0.0000 
     15 CA         13.7090   19.1030   50.0080 C.3       6 GLP5        0.0000 
     16 CA         11.5890   25.7380   47.7405 C.3       3 GLC5        0.0000 
     17 CA         10.0900   25.6240   46.3620 C.3       9 GLL5        0.0000 
     18 CA         13.0880   25.8520   49.1190 C.3       6 GLP5        0.0000 
     19 CA         10.4665   25.0035   44.7750 C.3       3 GLC5        0.0000 
     20 CA         10.8430   24.3830   43.1880 C.3       6 GLP5        0.0000 
     21 CA          8.7905   25.8255   44.5390 C.3       3 GLC5        0.0000 
     22 CA          7.4910   26.0270   42.7160 C.3       6 GLP5        0.0000 
     23 CA         10.9020   27.1585   45.6285 C.3       3 GLC5        0.0000 
     24 CA         11.7140   28.6930   44.8950 C.3       6 GLP5        0.0000 
     25 CA         11.8567   19.1750   50.2350 C.3       3 GLC5        0.0000 
     26 CA         10.1470   19.5610   49.8810 C.3       9 GLL5        0.0000 
     27 CA         12.0167   18.0825   50.4330 C.3       3 GLC5        0.0000 
     28 CA         12.5605   15.4028   50.2030 C.3       3 GLC5        0.0000 
     29 CA         10.6700   16.6400   50.3270 C.3       9 GLL5        0.0000 
     30 CA         14.4020   14.8840   49.8120 C.3       6 GLP5        0.0000 
     31 CA         11.3115   16.0882   48.7205 C.3       3 GLC5        0.0000 
     32 CA         10.7680   15.2030   50.8610 C.3       9 GLL5        0.0000 
     33 CA         11.9040   16.2550   46.8470 C.3       6 GLP5        0.0000 
     34 CA         12.0170   24.2327   48.3930 C.3       3 GLC5        0.0000 
     35 CA         11.9730   22.1187   50.0110 C.3       3 GLC5        0.0000 
     36 CA         13.4790   22.1760   51.4020 C.3       6 GLP5        0.0000 
     37 CA          9.4105   21.4357   47.0260 C.3       3 GLC5        0.0000 
     38 CA          9.9980   22.0590   49.1420 C.3       9 GLL5        0.0000 
     39 CA          8.3540   20.8100   45.4320 C.3       6 GLP5        0.0000 
     40 CA          9.4328   25.5385   49.1898 C.3       3 GLC5        0.0000 
     41 CA          9.1070   23.1330   49.3190 C.3       9 GLL5        0.0000 
     42 CA          9.7400   27.4050   49.4870 C.3       6 GLP5        0.0000 
     43 CA         11.3460   25.0378   48.5307 C.3       3 GLC5        0.0000 
     44 CA          9.1440   24.2110   48.4660 C.3       9 GLL5        0.0000 
     45 CA          9.9085   26.1675   48.1887 C.3       3 GLC5        0.0000 
     46 CA         10.0640   24.2360   47.4190 C.3       9 GLL5        0.0000 
     47 CA          7.8059   23.6765   47.5479 C.3       3 GLC5        0.0000 
     48 CA          6.0170   23.3990   46.9400 C.3       6 GLP5        0.0000 
     49 CA          9.4320   22.2548   46.3798 C.3       3 GLC5        0.0000 
     50 CA         10.6765   24.0412   45.2578 C.3       3 GLC5        0.0000 
     51 CA         10.9560   23.1630   47.2360 C.3       9 GLL5        0.0000 
@<TRIPOS>BOND
@<TRIPOS>SUBSTRUCTURE
     1 ALC1        1 GROUP        1 X    ALC  0     ROOT ALC X 1
     2 SEC2        4 GROUP        1 X    SEC  0     **** SEC X 2
     3 GLC5        7 GROUP        1 X    GLC  0     **** GLC X 6
     4 ALP1        3 GROUP        1 Y    ALP  0     ROOT ALP Y 8
     5 SEP2        6 GROUP        1 Y    SEP  0     **** SEP Y 9
     6 GLP5        9 GROUP        1 Y    GLP  0     **** GLP Y 13
     7 ALL1        2 GROUP        1 Z    ALL  0     ROOT ALL Z 15
     8 SEL2        5 GROUP        1 Z    SEL  0     **** SEL Z 16
     9 GLL5        8 GROUP        1 Z    GLL  0     **** GLL Z 20
@<TRIPOS>SET

