#    Name: 1way_L02_1_ligand
#    Modification time : Tue Mar 25 08:52:00 2014

@<TRIPOS>MOLECULE
1way_L02_1_ligand
   33    35     1     0     0
SMALL
NO_CHARGES


@<TRIPOS>ATOM
      1 N1          9.4380   19.8340   51.9440 N.pl3     1 L021248     0.0000 
      2 N3          9.4610   21.0800   51.3350 N.2       1 L021248     0.0000 
      3 C4          9.8790   20.9360   50.0980 C.2       1 L021248     0.0000 
      4 C5         10.1470   19.5610   49.8810 C.2       1 L021248     0.0000 
      5 C6          9.8620   18.9330   51.0430 C.2       1 L021248     0.0000 
      6 C7          9.9790   17.4840   51.3890 C.3       1 L021248     0.0000 
      7 C8         10.6700   16.6400   50.3270 C.3       1 L021248     0.0000 
      8 C10        10.7680   15.2030   50.8610 C.3       1 L021248     0.0000 
      9 N12         9.4150   14.6860   51.1170 N.4       1 L021248     0.0000 
     10 C13         8.8100   15.4700   52.2180 C.3       1 L021248     0.0000 
     11 C15         8.6070   16.9220   51.7550 C.3       1 L021248     0.0000 
     12 C20        10.9360   22.0640   48.0980 C.ar      1 L021248     0.0000 
     13 C21         9.9980   22.0590   49.1420 C.ar      1 L021248     0.0000 
     14 C22         9.1070   23.1330   49.3190 C.ar      1 L021248     0.0000 
     15 C24         9.1440   24.2110   48.4660 C.ar      1 L021248     0.0000 
     16 C26        10.0640   24.2360   47.4190 C.ar      1 L021248     0.0000 
     17 C28        10.9560   23.1630   47.2360 C.ar      1 L021248     0.0000 
     18 CL1        10.0900   25.6240   46.3620 Cl        1 L021248     0.0000 
     19 H           9.1651   19.6728   52.8446 H         1 L021248     0.0000 
     20 H          10.4599   19.1979   49.0743 H         1 L021248     0.0000 
     21 H          10.5964   17.4109   52.3192 H         1 L021248     0.0000 
     22 H          11.6602   17.0197   50.1470 H         1 L021248     0.0000 
     23 H          10.0874   16.6433   49.4228 H         1 L021248     0.0000 
     24 H          11.3577   15.2179   51.7753 H         1 L021248     0.0000 
     25 H          11.2814   14.5967   50.1176 H         1 L021248     0.0000 
     26 H           9.4602   15.4749   53.0886 H         1 L021248     0.0000 
     27 H           7.8429   15.0597   52.4955 H         1 L021248     0.0000 
     28 H           7.9684   16.9334   50.8915 H         1 L021248     0.0000 
     29 H           8.1831   17.4950   52.5584 H         1 L021248     0.0000 
     30 H          11.5784   21.2918   47.9758 H         1 L021248     0.0000 
     31 H           8.4299   23.0986   50.0942 H         1 L021248     0.0000 
     32 H           8.4975   25.0017   48.5932 H         1 L021248     0.0000 
     33 H          11.6286   23.1927   46.4573 H         1 L021248     0.0000 
@<TRIPOS>BOND
     1    2    1 1    
     2    5    1 1    
     3   19    1 1    
     4    3    2 2    
     5    4    3 1    
     6   13    3 1    
     7    5    4 2    
     8   20    4 1    
     9    6    5 1    
    10    7    6 1    
    11   11    6 1    
    12   21    6 1    
    13    8    7 1    
    14   22    7 1    
    15   23    7 1    
    16    9    8 1    
    17   24    8 1    
    18   25    8 1    
    19   10    9 1    
    20   11   10 1    
    21   26   10 1    
    22   27   10 1    
    23   28   11 1    
    24   29   11 1    
    25   13   12 ar   
    26   17   12 ar   
    27   30   12 1    
    28   14   13 ar   
    29   15   14 ar   
    30   31   14 1    
    31   16   15 ar   
    32   32   15 1    
    33   17   16 ar   
    34   18   16 1    
    35   33   17 1    
@<TRIPOS>SUBSTRUCTURE
     1 L021248     1 GROUP   
@<TRIPOS>SET

