#    Name: 3dk1_G05_1_INTS_M
#    Modification time : Mon Mar 24 23:31:37 2014

@<TRIPOS>MOLECULE
3dk1_G05_1_INTS_M
   93     0     9     0     0
SMALL
NO_CHARGES


@<TRIPOS>ATOM
      1 CA         21.4070   26.9005   12.9435 C.3       3 GLC5        0.0000 
      2 CA         20.8680   27.7330   14.8850 C.3       9 GLL5        0.0000 
      3 CA         21.9460   26.0680   11.0020 C.3       6 GLP5        0.0000 
      4 N          20.6645   30.3980   14.9035 N.am      2 SEC2        0.0000 
      5 N          21.4580   28.9590   14.7130 N.am      8 SEL2        0.0000 
      6 N          19.8710   31.8370   15.0940 N.am      5 SEP2        0.0000 
      7 CA         22.2110   30.3155   16.3565 C.3       3 GLC5        0.0000 
      8 CA         22.8290   28.9460   15.0250 C.3       9 GLL5        0.0000 
      9 CA         21.5930   31.6850   17.6880 C.3       6 GLP5        0.0000 
     10 CA         21.9885   30.4290   14.0395 C.3       3 GLC5        0.0000 
     11 CA         21.1480   31.9120   13.0540 C.3       6 GLP5        0.0000 
     12 CA         23.7175   28.1300   13.4785 C.3       3 GLC5        0.0000 
     13 CA         24.6060   27.3140   11.9320 C.3       6 GLP5        0.0000 
     14 CA         22.7940   26.2625   13.8990 C.3       3 GLC5        0.0000 
     15 CA         21.4340   26.6140   15.4840 C.3       9 GLL5        0.0000 
     16 CA         24.1540   25.9110   12.3140 C.3       6 GLP5        0.0000 
     17 CA         16.9645   26.0740   13.6770 C.3       3 GLC5        0.0000 
     18 CA         18.7090   26.6500   14.8530 C.3       9 GLL5        0.0000 
     19 CA         15.2200   25.4980   12.5010 C.3       6 GLP5        0.0000 
     20 CA         19.9315   21.8060   18.3375 C.3       3 GLC5        0.0000 
     21 CA         18.3460   22.5130   19.6590 C.3       9 GLL5        0.0000 
     22 CA         21.5170   21.0990   17.0160 C.3       6 GLP5        0.0000 
     23 CA         16.9065   21.7545   21.0875 C.3       3 GLC5        0.0000 
     24 CA         15.4670   20.9960   22.5160 C.3       6 GLP5        0.0000 
     25 CA         18.7145   25.8645   22.0995 C.3       3 GLC5        0.0000 
     26 CA         19.3290   24.5420   20.8460 C.3       9 GLL5        0.0000 
     27 CA         18.1000   27.1870   23.3530 C.3       6 GLP5        0.0000 
     28 CA         19.9575   24.4580   22.6750 C.3       3 GLC5        0.0000 
     29 CA         20.5860   24.3740   24.5040 C.3       6 GLP5        0.0000 
     30 CA         16.4570   27.1500   16.8030 C.3       3 GLC5        0.0000 
     31 CA         16.3340   25.1440   17.4410 C.3       9 GLL5        0.0000 
     32 CA         16.5800   29.1560   16.1650 C.3       6 GLP5        0.0000 
     33 N          13.6100   26.3600   18.3465 N.am      2 SEC2        0.0000 
     34 N          14.0600   25.0110   18.2740 N.am      8 SEL2        0.0000 
     35 N          13.1600   27.7090   18.4190 N.am      5 SEP2        0.0000 
     36 O          13.6675   25.5245   19.4475 O.2       1 ALC1        0.0000 
     37 O          14.0600   25.0110   18.2740 O.2       7 ALL1        0.0000 
     38 O          13.2750   26.0380   20.6210 O.2       4 ALP1        0.0000 
     39 O          14.3920   24.7500   19.8220 O.2       1 ALC1        0.0000 
     40 O          14.7240   24.4890   21.3700 O.2       4 ALP1        0.0000 
     41 O          12.4430   22.7285   17.7030 O.2       1 ALC1        0.0000 
     42 O          13.9520   22.1820   17.7540 O.2       7 ALL1        0.0000 
     43 O          10.9340   23.2750   17.6520 O.2       4 ALP1        0.0000 
     44 CA         15.4065   18.5995   20.0100 C.3       3 GLC5        0.0000 
     45 CA         13.5610   18.9970   19.2350 C.3       9 GLL5        0.0000 
     46 CA         17.2520   18.2020   20.7850 C.3       6 GLP5        0.0000 
     47 CA         14.5140   19.9965   20.8755 C.3       3 GLC5        0.0000 
     48 CA         13.4180   17.8995   21.8535 C.3       3 GLC5        0.0000 
     49 CA         12.3380   18.6100   20.0800 C.3       9 GLL5        0.0000 
     50 CA         14.4980   17.1890   23.6270 C.3       6 GLP5        0.0000 
     51 CA          9.2575   18.5385   19.4540 C.3       3 GLC5        0.0000 
     52 CA         11.3020   18.0090   19.1070 C.3       9 GLL5        0.0000 
     53 CA          7.2130   19.0680   19.8010 C.3       6 GLP5        0.0000 
     54 N           9.8095   19.9635   19.3055 N.am      2 SEC2        0.0000 
     55 N          10.6550   19.1440   18.4210 N.am      8 SEL2        0.0000 
     56 N           8.9640   20.7830   20.1900 N.am      5 SEP2        0.0000 
     57 CA          8.5730   18.8870   18.5295 C.3       3 GLC5        0.0000 
     58 CA          9.9330   18.7060   17.2580 C.3       9 GLL5        0.0000 
     59 CA         12.8180   15.4645   18.5560 C.3       3 GLC5        0.0000 
     60 CA         12.1490   17.2850   18.1360 C.3       9 GLL5        0.0000 
     61 CA         13.4870   13.6440   18.9760 C.3       6 GLP5        0.0000 
     62 CA         14.9405   17.9385   16.5755 C.3       3 GLC5        0.0000 
     63 CA         13.4480   18.0590   18.0260 C.3       9 GLL5        0.0000 
     64 CA         16.4330   17.8180   15.1250 C.3       6 GLP5        0.0000 
     65 CA         11.2015   23.4940   14.6085 C.3       3 GLC5        0.0000 
     66 CA         12.5080   21.8350   14.8170 C.3       9 GLL5        0.0000 
     67 CA          9.8950   25.1530   14.4000 C.3       6 GLP5        0.0000 
     68 CA         19.0965   24.8788   13.4890 C.3       3 GLC5        0.0000 
     69 CA         19.1970   23.6670   11.8390 C.3       6 GLP5        0.0000 
     70 CA         17.8485   28.1803   15.4458 C.3       3 GLC5        0.0000 
     71 CA         18.9785   27.6202   12.7993 C.3       3 GLC5        0.0000 
     72 CA         18.8400   28.0360   10.8720 C.3       6 GLP5        0.0000 
     73 CA         17.8955   23.7090   22.0882 C.3       3 GLC5        0.0000 
     74 CA         18.2970   24.0360   19.8010 C.3       9 GLL5        0.0000 
     75 CA         16.9780   23.1290   23.8530 C.3       6 GLP5        0.0000 
     76 CA         12.3687   20.5527   20.5527 C.3       3 GLC5        0.0000 
     77 CA         11.7880   22.3020   21.4480 C.3       6 GLP5        0.0000 
     78 CA         10.8150   17.6288   21.3483 C.3       3 GLC5        0.0000 
     79 CA          9.8100   16.9480   23.1030 C.3       6 GLP5        0.0000 
     80 CA         12.3345   22.1657   12.9318 C.3       3 GLC5        0.0000 
     81 CA         12.2980   23.0730   11.4080 C.3       6 GLP5        0.0000 
     82 CA         14.3848   19.7757   11.7080 C.3       3 GLC5        0.0000 
     83 CA         13.2230   20.0520   13.3500 C.3       9 GLL5        0.0000 
     84 CA         14.9080   19.2210   10.0520 C.3       6 GLP5        0.0000 
     85 CA         13.0798   21.7018   12.3860 C.3       3 GLC5        0.0000 
     86 CA         14.5000   20.6090   13.3780 C.3       9 GLL5        0.0000 
     87 CA         16.4865   20.5988   13.2225 C.3       3 GLC5        0.0000 
     88 CA         18.3320   20.0110   12.6940 C.3       6 GLP5        0.0000 
     89 CA         13.2907   22.5730   12.9490 C.3       3 GLC5        0.0000 
     90 CA         14.7820   21.7640   14.1240 C.3       9 GLL5        0.0000 
     91 CA         14.7966   23.9291   13.6111 C.3       3 GLC5        0.0000 
     92 CA         13.7850   22.3820   14.8560 C.3       9 GLL5        0.0000 
     93 CA         15.3774   19.4326   14.4345 C.3       3 GLC5        0.0000 
@<TRIPOS>BOND
@<TRIPOS>SUBSTRUCTURE
     1 ALC1       36 GROUP        1 X    ALC  0     ROOT ALC X 1
     2 SEC2        4 GROUP        1 X    SEC  0     **** SEC X 2
     3 GLC5        1 GROUP        1 X    GLC  0     **** GLC X 6
     4 ALP1       38 GROUP        1 Y    ALP  0     ROOT ALP Y 8
     5 SEP2        6 GROUP        1 Y    SEP  0     **** SEP Y 9
     6 GLP5        3 GROUP        1 Y    GLP  0     **** GLP Y 13
     7 ALL1       37 GROUP        1 Z    ALL  0     ROOT ALL Z 15
     8 SEL2        5 GROUP        1 Z    SEL  0     **** SEL Z 16
     9 GLL5        2 GROUP        1 Z    GLL  0     **** GLL Z 20
@<TRIPOS>SET

