#    Name: 3dk1_G05_1_ligand
#    Modification time : Mon Mar 24 23:31:37 2014

@<TRIPOS>MOLECULE
3dk1_G05_1_ligand
   80    83     1     0     0
SMALL
NO_CHARGES


@<TRIPOS>ATOM
      1 C2         20.8680   27.7330   14.8850 C.ar      1 G05401      0.0000 
      2 O39        21.4580   28.9590   14.7130 O.3       1 G05401      0.0000 
      3 C40        22.8290   28.9460   15.0250 C.3       1 G05401      0.0000 
      4 C3         21.4340   26.6140   15.4840 C.ar      1 G05401      0.0000 
      5 C4         20.6410   25.5190   15.7310 C.ar      1 G05401      0.0000 
      6 C5         19.2830   25.5310   15.4250 C.ar      1 G05401      0.0000 
      7 C6         18.7090   26.6500   14.8530 C.ar      1 G05401      0.0000 
      8 C7         19.5250   27.7590   14.6000 C.ar      1 G05401      0.0000 
      9 S8         18.2990   24.1590   15.9000 S.o2      1 G05401      0.0000 
     10 O9         17.1840   24.0540   14.9470 O.2       1 G05401      0.0000 
     11 O10        19.1870   23.0200   16.0500 O.2       1 G05401      0.0000 
     12 N11        17.6260   24.4540   17.3920 N.pl3     1 G05401      0.0000 
     13 C12        18.5710   24.7340   18.4620 C.3       1 G05401      0.0000 
     14 C13        18.2970   24.0360   19.8010 C.3       1 G05401      0.0000 
     15 C14        18.3460   22.5130   19.6590 C.3       1 G05401      0.0000 
     16 C15        19.3290   24.5420   20.8460 C.3       1 G05401      0.0000 
     17 C16        16.3340   25.1440   17.4410 C.3       1 G05401      0.0000 
     18 C17        15.2320   24.2270   17.9790 C.3       1 G05401      0.0000 
     19 O18        14.0600   25.0110   18.2740 O.3       1 G05401      0.0000 
     20 C19        14.8660   23.0850   17.0340 C.3       1 G05401      0.0000 
     21 N20        13.9520   22.1820   17.7540 N.am      1 G05401      0.0000 
     22 C21        14.2950   20.9940   18.1590 C.2       1 G05401      0.0000 
     23 O22        15.4020   20.4420   18.0020 O.2       1 G05401      0.0000 
     24 O23        13.3030   20.3560   18.8090 O.3       1 G05401      0.0000 
     25 C24        13.5610   18.9970   19.2350 C.3       1 G05401      0.0000 
     26 C25        12.3380   18.6100   20.0800 C.3       1 G05401      0.0000 
     27 C26        11.3020   18.0090   19.1070 C.3       1 G05401      0.0000 
     28 O27        10.6550   19.1440   18.4210 O.3       1 G05401      0.0000 
     29 C28         9.9330   18.7060   17.2580 C.3       1 G05401      0.0000 
     30 C29        10.9550   18.1230   16.2780 C.3       1 G05401      0.0000 
     31 O30        11.5180   16.9510   16.8810 O.3       1 G05401      0.0000 
     32 C31        12.1490   17.2850   18.1360 C.3       1 G05401      0.0000 
     33 C41        13.4480   18.0590   18.0260 C.3       1 G05401      0.0000 
     34 C32        14.1440   23.5310   15.7810 C.3       1 G05401      0.0000 
     35 C33        12.5080   21.8350   14.8170 C.ar      1 G05401      0.0000 
     36 C34        12.2340   20.6820   14.0940 C.ar      1 G05401      0.0000 
     37 C35        13.2230   20.0520   13.3500 C.ar      1 G05401      0.0000 
     38 C36        14.5000   20.6090   13.3780 C.ar      1 G05401      0.0000 
     39 C37        14.7820   21.7640   14.1240 C.ar      1 G05401      0.0000 
     40 C38        13.7850   22.3820   14.8560 C.ar      1 G05401      0.0000 
     41 H          22.4267   26.6123   15.7347 H         1 G05401      0.0000 
     42 H          21.0543   24.6648   16.1527 H         1 G05401      0.0000 
     43 H          17.7202   26.6758   14.6187 H         1 G05401      0.0000 
     44 H          19.0962   28.6104   14.1896 H         1 G05401      0.0000 
     45 H          18.6186   25.8337   18.6634 H         1 G05401      0.0000 
     46 H          19.6091   24.4576   18.1487 H         1 G05401      0.0000 
     47 H          17.3128   24.3300   20.1417 H         1 G05401      0.0000 
     48 H          16.0367   25.4844   16.4405 H         1 G05401      0.0000 
     49 H          16.3895   26.0280   18.0897 H         1 G05401      0.0000 
     50 H          15.6063   23.7785   18.9118 H         1 G05401      0.0000 
     51 H          15.7529   22.5467   16.7655 H         1 G05401      0.0000 
     52 H          12.9893   22.5829   17.9145 H         1 G05401      0.0000 
     53 H          14.4113   18.8483   19.7502 H         1 G05401      0.0000 
     54 H          11.9277   19.4831   20.5398 H         1 G05401      0.0000 
     55 H          12.6177   17.8719   20.8005 H         1 G05401      0.0000 
     56 H          10.6628   17.4012   19.6083 H         1 G05401      0.0000 
     57 H           9.4252   19.5280   16.7644 H         1 G05401      0.0000 
     58 H           9.2153   17.9283   17.4972 H         1 G05401      0.0000 
     59 H          11.7081   18.8832   16.0878 H         1 G05401      0.0000 
     60 H          10.4366   17.8932   15.3508 H         1 G05401      0.0000 
     61 H          12.4451   16.3160   18.6606 H         1 G05401      0.0000 
     62 H          14.2838   17.3754   18.0292 H         1 G05401      0.0000 
     63 H          13.4491   18.6472   17.1205 H         1 G05401      0.0000 
     64 H          14.7772   24.2475   15.2338 H         1 G05401      0.0000 
     65 H          13.2227   24.0645   16.0644 H         1 G05401      0.0000 
     66 H          11.7407   22.3005   15.3416 H         1 G05401      0.0000 
     67 H          11.2770   20.2852   14.1096 H         1 G05401      0.0000 
     68 H          13.0266   19.2220   12.8087 H         1 G05401      0.0000 
     69 H          15.2631   20.1628   12.8362 H         1 G05401      0.0000 
     70 H          15.7382   22.1454   14.1201 H         1 G05401      0.0000 
     71 H          23.3347   28.3028   14.4500 H         1 G05401      0.0000 
     72 H          23.2475   29.8451   14.8971 H         1 G05401      0.0000 
     73 H          22.9911   28.6797   15.9752 H         1 G05401      0.0000 
     74 H          19.2385   22.1987   19.3357 H         1 G05401      0.0000 
     75 H          18.1710   22.0530   20.5295 H         1 G05401      0.0000 
     76 H          17.6641   22.1785   19.0085 H         1 G05401      0.0000 
     77 H          20.2684   24.3439   20.5663 H         1 G05401      0.0000 
     78 H          19.2659   25.5307   20.9816 H         1 G05401      0.0000 
     79 H          19.1929   24.1143   21.7396 H         1 G05401      0.0000 
     80 H          14.0058   25.0297   19.2724 H         1 G05401      0.0000 
@<TRIPOS>BOND
     1    2    1 1    
     2    4    1 ar   
     3    8    1 ar   
     4    3    2 1    
     5   71    3 1    
     6   72    3 1    
     7   73    3 1    
     8    5    4 ar   
     9   41    4 1    
    10    6    5 ar   
    11   42    5 1    
    12    7    6 ar   
    13    9    6 1    
    14    8    7 ar   
    15   43    7 1    
    16   44    8 1    
    17   10    9 2    
    18   11    9 2    
    19   12    9 1    
    20   13   12 1    
    21   17   12 1    
    22   14   13 1    
    23   45   13 1    
    24   46   13 1    
    25   15   14 1    
    26   16   14 1    
    27   47   14 1    
    28   74   15 1    
    29   75   15 1    
    30   76   15 1    
    31   77   16 1    
    32   78   16 1    
    33   79   16 1    
    34   18   17 1    
    35   48   17 1    
    36   49   17 1    
    37   19   18 1    
    38   20   18 1    
    39   50   18 1    
    40   80   19 1    
    41   21   20 1    
    42   34   20 1    
    43   51   20 1    
    44   22   21 am   
    45   52   21 1    
    46   23   22 2    
    47   24   22 1    
    48   25   24 1    
    49   26   25 1    
    50   33   25 1    
    51   53   25 1    
    52   27   26 1    
    53   54   26 1    
    54   55   26 1    
    55   28   27 1    
    56   32   27 1    
    57   56   27 1    
    58   29   28 1    
    59   30   29 1    
    60   57   29 1    
    61   58   29 1    
    62   31   30 1    
    63   59   30 1    
    64   60   30 1    
    65   32   31 1    
    66   33   32 1    
    67   61   32 1    
    68   62   33 1    
    69   63   33 1    
    70   40   34 1    
    71   64   34 1    
    72   65   34 1    
    73   36   35 ar   
    74   40   35 ar   
    75   66   35 1    
    76   37   36 ar   
    77   67   36 1    
    78   38   37 ar   
    79   68   37 1    
    80   39   38 ar   
    81   69   38 1    
    82   40   39 ar   
    83   70   39 1    
@<TRIPOS>SUBSTRUCTURE
     1 G05401      1 GROUP   
@<TRIPOS>SET

