#    Name: 2w0j_ZAT_1_INTS_M
#    Modification time : Tue Mar 25 03:28:29 2014

@<TRIPOS>MOLECULE
2w0j_ZAT_1_INTS_M
   74     0     9     0     0
SMALL
NO_CHARGES


@<TRIPOS>ATOM
      1 CA         42.4720  -33.0050    2.9915 C.3       3 GLC5        0.0000 
      2 CA         40.8990  -32.5410    2.1060 C.3       9 GLL5        0.0000 
      3 CA         44.0450  -33.4690    3.8770 C.3       6 GLP5        0.0000 
      4 CA         40.6460  -34.4885    2.7610 C.3       3 GLC5        0.0000 
      5 CA         40.3930  -36.4360    3.4160 C.3       6 GLP5        0.0000 
      6 CA         39.3975  -32.9175    0.7410 C.3       3 GLC5        0.0000 
      7 CA         37.8960  -33.2940   -0.6240 C.3       6 GLP5        0.0000 
      8 CA         40.5770  -33.6340    4.7230 C.3       3 GLC5        0.0000 
      9 CA         38.8260  -32.4690    4.3510 C.3       9 GLL5        0.0000 
     10 CA         42.3280  -34.7990    5.0950 C.3       6 GLP5        0.0000 
     11 CA         39.6095  -34.4525    3.8835 C.3       3 GLC5        0.0000 
     12 CA         37.2695  -33.6360    3.2250 C.3       3 GLC5        0.0000 
     13 CA         35.7130  -34.8030    2.0990 C.3       6 GLP5        0.0000 
     14 CA         36.4270  -33.3220    4.3035 C.3       3 GLC5        0.0000 
     15 CA         38.1120  -32.5600    5.5470 C.3       9 GLL5        0.0000 
     16 CA         34.7420  -34.0840    3.0600 C.3       6 GLP5        0.0000 
     17 CA         36.2220  -31.2490    6.7895 C.3       3 GLC5        0.0000 
     18 CA         38.2880  -31.5780    6.5210 C.3       9 GLL5        0.0000 
     19 CA         34.1560  -30.9200    7.0580 C.3       6 GLP5        0.0000 
     20 CA         36.7455  -36.0040   12.4105 C.3       3 GLC5        0.0000 
     21 CA         34.9960  -35.0630   11.3890 C.3       9 GLL5        0.0000 
     22 CA         38.4950  -36.9450   13.4320 C.3       6 GLP5        0.0000 
     23 CA         33.2200  -34.3590   10.8675 C.3       3 GLC5        0.0000 
     24 CA         31.4440  -33.6550   10.3460 C.3       6 GLP5        0.0000 
     25 CA         33.3190  -32.5410   13.7225 C.3       3 GLC5        0.0000 
     26 CA         35.0630  -33.0910   12.7560 C.3       9 GLL5        0.0000 
     27 CA         31.5750  -31.9910   14.6890 C.3       6 GLP5        0.0000 
     28 CA         32.8500  -33.8865   13.5895 C.3       3 GLC5        0.0000 
     29 CA         34.7180  -34.4390   12.6210 C.3       9 GLL5        0.0000 
     30 CA         30.9820  -33.3340   14.5580 C.3       6 GLP5        0.0000 
     31 CA         31.6880  -37.8565   13.8580 C.3       3 GLC5        0.0000 
     32 CA         33.3300  -36.4180   13.6250 C.3       9 GLL5        0.0000 
     33 CA         30.0460  -39.2950   14.0910 C.3       6 GLP5        0.0000 
     34 CA         34.3635  -37.7935   15.0135 C.3       3 GLC5        0.0000 
     35 CA         35.3970  -39.1690   16.4020 C.3       6 GLP5        0.0000 
     36 CA         33.6020  -37.7980   12.1930 C.3       3 GLC5        0.0000 
     37 CA         33.8740  -39.1780   10.7610 C.3       6 GLP5        0.0000 
     38 CA         32.1560  -34.8760   14.0915 C.3       3 GLC5        0.0000 
     39 O          32.8485  -35.8260   16.3385 O.2       1 ALC1        0.0000 
     40 O          33.9460  -35.0110   16.0280 O.2       7 ALL1        0.0000 
     41 O          31.7510  -36.6410   16.6490 O.2       4 ALP1        0.0000 
     42 OD1        32.7710  -35.7140   17.4940 O.co2     2 ASC3        0.0000 
     43 OD1        34.2300  -34.3560   17.1740 O.co2     8 ASL3        0.0000 
     44 OD1        31.7510  -36.6410   16.6490 O.co2     5 ASP3        0.0000 
     45 OD1        33.0085  -35.8625   18.5765 O.co2     2 ASC3        0.0000 
     46 OD1        32.2260  -36.9380   18.8140 O.co2     5 ASP3        0.0000 
     47 OD1        32.9785  -33.4725   17.0770 O.co2     2 ASC3        0.0000 
     48 OD1        31.7270  -32.5890   16.9800 O.co2     5 ASP3        0.0000 
     49 O          32.7710  -35.7140   17.4940 O.2       1 ALC1        0.0000 
     50 O          33.7910  -34.7870   18.3390 O.2       7 ALL1        0.0000 
     51 O          33.0085  -35.8625   18.5765 O.2       1 ALC1        0.0000 
     52 O          32.2260  -36.9380   18.8140 O.2       4 ALP1        0.0000 
     53 CA         38.4865  -29.9995    3.8163 C.3       3 GLC5        0.0000 
     54 CA         39.8940  -30.4400    5.0910 C.3       9 GLL5        0.0000 
     55 CA         37.1580  -29.0630    3.0240 C.3       6 GLP5        0.0000 
     56 CA         41.2360  -31.6258    5.7056 C.3       3 GLC5        0.0000 
     57 CA         42.9740  -32.5250    5.9660 C.3       6 GLP5        0.0000 
     58 CA         37.9462  -30.0553    4.7127 C.3       3 GLC5        0.0000 
     59 CA         39.1810  -30.5170    6.2820 C.3       9 GLL5        0.0000 
     60 CA         37.8135  -30.7888    3.9865 C.3       3 GLC5        0.0000 
     61 CA         34.5980  -33.4980    8.7993 C.3       3 GLC5        0.0000 
     62 CA         35.9090  -33.0090   10.4710 C.3       9 GLL5        0.0000 
     63 CA         33.4510  -33.3080    7.1990 C.3       6 GLP5        0.0000 
     64 CA         33.9285  -32.9995   10.4712 C.3       3 GLC5        0.0000 
     65 CA         35.5810  -34.3670   10.3280 C.3       9 GLL5        0.0000 
     66 CA         32.1120  -32.3110   10.5430 C.3       6 GLP5        0.0000 
     67 CA         37.7275  -33.2505   11.0806 C.3       3 GLC5        0.0000 
     68 CA         39.7620  -33.4600   11.1130 C.3       6 GLP5        0.0000 
     69 CA         36.7750  -34.0799   13.3279 C.3       3 GLC5        0.0000 
     70 CA         35.6410  -32.3940   11.6970 C.3       9 GLL5        0.0000 
     71 CA         38.5150  -34.5690   14.2320 C.3       6 GLP5        0.0000 
     72 CA         35.5941  -36.3320   11.1649 C.3       3 GLC5        0.0000 
     73 CA         36.1850  -38.0870   10.5900 C.3       6 GLP5        0.0000 
     74 CA         33.5735  -32.9509   11.4834 C.3       3 GLC5        0.0000 
@<TRIPOS>BOND
@<TRIPOS>SUBSTRUCTURE
     1 ALC1       39 GROUP        1 X    ALC  0     ROOT ALC X 1
     2 ASC3       42 GROUP        1 X    ASC  0     **** ASC X 3
     3 GLC5        1 GROUP        1 X    GLC  0     **** GLC X 6
     4 ALP1       41 GROUP        1 Y    ALP  0     ROOT ALP Y 8
     5 ASP3       44 GROUP        1 Y    ASP  0     **** ASP Y 10
     6 GLP5        3 GROUP        1 Y    GLP  0     **** GLP Y 13
     7 ALL1       40 GROUP        1 Z    ALL  0     ROOT ALL Z 15
     8 ASL3       43 GROUP        1 Z    ASL  0     **** ASL Z 17
     9 GLL5        2 GROUP        1 Z    GLL  0     **** GLL Z 20
@<TRIPOS>SET

