#    Name: 2w0j_ZAT_1_ligand
#    Modification time : Tue Mar 25 03:28:29 2014

@<TRIPOS>MOLECULE
2w0j_ZAT_1_ligand
   56    57     1     0     0
SMALL
NO_CHARGES


@<TRIPOS>ATOM
      1 NAA        41.4160  -28.0480   -0.1660 N.pl3     1 ZAT1511     0.0000 
      2 CAK        40.8920  -28.4310    1.0040 C.cat     1 ZAT1511     0.0000 
      3 NAB        40.3830  -27.5060    1.8270 N.pl3     1 ZAT1511     0.0000 
      4 NAC        40.9140  -29.7350    1.3350 N.pl3     1 ZAT1511     0.0000 
      5 NAD        40.4600  -30.0950    2.4220 N.2       1 ZAT1511     0.0000 
      6 CAL        40.4070  -31.3320    2.9090 C.2       1 ZAT1511     0.0000 
      7 CAM        40.8990  -32.5410    2.1060 C.3       1 ZAT1511     0.0000 
      8 CAN        39.7360  -31.4320    4.1260 C.ar      1 ZAT1511     0.0000 
      9 CAS        39.8940  -30.4400    5.0910 C.ar      1 ZAT1511     0.0000 
     10 CAR        39.1810  -30.5170    6.2820 C.ar      1 ZAT1511     0.0000 
     11 CAO        38.8260  -32.4690    4.3510 C.ar      1 ZAT1511     0.0000 
     12 CAP        38.1120  -32.5600    5.5470 C.ar      1 ZAT1511     0.0000 
     13 CAQ        38.2880  -31.5780    6.5210 C.ar      1 ZAT1511     0.0000 
     14 NAE        37.6450  -31.5640    7.7030 N.am      1 ZAT1511     0.0000 
     15 CAT        37.0690  -32.6010    8.3470 C.2       1 ZAT1511     0.0000 
     16 OBD        37.0270  -33.7560    7.8750 O.2       1 ZAT1511     0.0000 
     17 NAF        36.5040  -32.2210    9.5300 N.am      1 ZAT1511     0.0000 
     18 CAU        35.9090  -33.0090   10.4710 C.ar      1 ZAT1511     0.0000 
     19 CAZ        35.5810  -34.3670   10.3280 C.ar      1 ZAT1511     0.0000 
     20 CAY        34.9960  -35.0630   11.3890 C.ar      1 ZAT1511     0.0000 
     21 CAV        35.6410  -32.3940   11.6970 C.ar      1 ZAT1511     0.0000 
     22 CAW        35.0630  -33.0910   12.7560 C.ar      1 ZAT1511     0.0000 
     23 CAX        34.7180  -34.4390   12.6210 C.ar      1 ZAT1511     0.0000 
     24 CBA        34.1270  -35.1110   13.7320 C.2       1 ZAT1511     0.0000 
     25 CBB        33.3300  -36.4180   13.6250 C.3       1 ZAT1511     0.0000 
     26 NAG        34.3360  -34.5680   14.9360 N.2       1 ZAT1511     0.0000 
     27 NAH        33.9460  -35.0110   16.0280 N.pl3     1 ZAT1511     0.0000 
     28 CBC        34.2300  -34.3560   17.1740 C.cat     1 ZAT1511     0.0000 
     29 NAJ        33.7910  -34.7870   18.3390 N.pl3     1 ZAT1511     0.0000 
     30 NAI        34.9560  -33.2450   17.1820 N.pl3     1 ZAT1511     0.0000 
     31 H          41.3575  -27.0720   -0.3759 H         1 ZAT1511     0.0000 
     32 H          41.8192  -28.7721   -0.7256 H         1 ZAT1511     0.0000 
     33 H          39.9836  -27.8464    2.6783 H         1 ZAT1511     0.0000 
     34 H          40.4478  -26.5575    1.5168 H         1 ZAT1511     0.0000 
     35 H          41.3309  -30.4075    0.6280 H         1 ZAT1511     0.0000 
     36 H          40.5343  -29.6562    4.9224 H         1 ZAT1511     0.0000 
     37 H          39.3029  -29.7908    7.0044 H         1 ZAT1511     0.0000 
     38 H          38.6794  -33.1829    3.6158 H         1 ZAT1511     0.0000 
     39 H          37.4685  -33.3369    5.7060 H         1 ZAT1511     0.0000 
     40 H          37.5801  -30.5908    8.2063 H         1 ZAT1511     0.0000 
     41 H          36.5321  -31.1498    9.7508 H         1 ZAT1511     0.0000 
     42 H          35.7726  -34.8462    9.4414 H         1 ZAT1511     0.0000 
     43 H          34.7585  -36.0650   11.2714 H         1 ZAT1511     0.0000 
     44 H          35.8798  -31.3904   11.8203 H         1 ZAT1511     0.0000 
     45 H          34.8868  -32.6085   13.6510 H         1 ZAT1511     0.0000 
     46 H          33.3811  -35.9089   16.1139 H         1 ZAT1511     0.0000 
     47 H          33.2140  -35.6035   18.3171 H         1 ZAT1511     0.0000 
     48 H          34.0747  -34.2584   19.1391 H         1 ZAT1511     0.0000 
     49 H          35.3028  -32.9396   16.2952 H         1 ZAT1511     0.0000 
     50 H          35.0906  -32.8137   18.0741 H         1 ZAT1511     0.0000 
     51 H          41.8678  -32.4616    1.8713 H         1 ZAT1511     0.0000 
     52 H          40.7898  -33.3946    2.6154 H         1 ZAT1511     0.0000 
     53 H          40.3971  -32.6458    1.2475 H         1 ZAT1511     0.0000 
     54 H          33.8822  -37.1596   13.2442 H         1 ZAT1511     0.0000 
     55 H          33.0007  -36.7263   14.5175 H         1 ZAT1511     0.0000 
     56 H          32.5284  -36.3170   13.0357 H         1 ZAT1511     0.0000 
@<TRIPOS>BOND
     1    2    1 ar   
     2   31    1 1    
     3   32    1 1    
     4    3    2 ar   
     5    4    2 ar   
     6   33    3 1    
     7   34    3 1    
     8    5    4 1    
     9   35    4 1    
    10    6    5 2    
    11    7    6 1    
    12    8    6 1    
    13   51    7 1    
    14   52    7 1    
    15   53    7 1    
    16    9    8 ar   
    17   11    8 ar   
    18   10    9 ar   
    19   36    9 1    
    20   13   10 ar   
    21   37   10 1    
    22   12   11 ar   
    23   38   11 1    
    24   13   12 ar   
    25   39   12 1    
    26   14   13 1    
    27   15   14 am   
    28   40   14 1    
    29   16   15 2    
    30   17   15 am   
    31   18   17 1    
    32   41   17 1    
    33   19   18 ar   
    34   21   18 ar   
    35   20   19 ar   
    36   42   19 1    
    37   23   20 ar   
    38   43   20 1    
    39   22   21 ar   
    40   44   21 1    
    41   23   22 ar   
    42   45   22 1    
    43   24   23 1    
    44   25   24 1    
    45   26   24 2    
    46   54   25 1    
    47   55   25 1    
    48   56   25 1    
    49   27   26 1    
    50   28   27 ar   
    51   46   27 1    
    52   29   28 ar   
    53   30   28 ar   
    54   47   29 1    
    55   48   29 1    
    56   49   30 1    
    57   50   30 1    
@<TRIPOS>SUBSTRUCTURE
     1 ZAT1511     1 GROUP   
@<TRIPOS>SET

