#    Name: 1c70_L75_1_INTS_M
#    Modification time : Mon Mar 24 20:20:44 2014

@<TRIPOS>MOLECULE
1c70_L75_1_INTS_M
  128     0     9     0     0
SMALL
NO_CHARGES


@<TRIPOS>ATOM
      1 CA          8.7770   22.5575    5.6045 C.3       3 GLC5        0.0000 
      2 CA          9.2320   23.8990    4.1620 C.3       9 GLL5        0.0000 
      3 CA          8.3220   21.2160    7.0470 C.3       6 GLP5        0.0000 
      4 O           9.5745   27.1565    5.5550 O.2       1 ALC1        0.0000 
      5 O          10.0480   26.0520    6.6740 O.2       7 ALL1        0.0000 
      6 O           9.1010   28.2610    4.4360 O.2       4 ALP1        0.0000 
      7 CA          8.9105   29.6175    9.1650 C.3       3 GLC5        0.0000 
      8 CA          9.5350   27.7760    8.3410 C.3       9 GLL5        0.0000 
      9 CA          8.2860   31.4590    9.9890 C.3       6 GLP5        0.0000 
     10 CA         13.1850   27.3390    9.1560 C.3       3 GLC5        0.0000 
     11 CA         11.4640   26.2560    8.6960 C.3       9 GLL5        0.0000 
     12 CA         14.9060   28.4220    9.6160 C.3       6 GLP5        0.0000 
     13 CA          8.2185   25.6950   10.6835 C.3       3 GLC5        0.0000 
     14 CA          9.0790   25.3510    8.8630 C.3       9 GLL5        0.0000 
     15 CA          7.3580   26.0390   12.5040 C.3       6 GLP5        0.0000 
     16 CA          8.9510   23.5420    9.8025 C.3       3 GLC5        0.0000 
     17 CA          8.8230   21.7330   10.7420 C.3       6 GLP5        0.0000 
     18 CA         12.0920   25.5030    0.9270 C.3       3 GLC5        0.0000 
     19 CA         11.6610   24.1760    2.6430 C.3       9 GLL5        0.0000 
     20 CA         12.5230   26.8300   -0.7890 C.3       6 GLP5        0.0000 
     21 CA          9.5295   23.4680    0.2995 C.3       3 GLC5        0.0000 
     22 CA         10.4460   23.3390    2.1640 C.3       9 GLL5        0.0000 
     23 CA          8.6130   23.5970   -1.5650 C.3       6 GLP5        0.0000 
     24 CA         13.3685   26.8170    3.3660 C.3       3 GLC5        0.0000 
     25 CA         12.7950   25.0880    4.5620 C.3       9 GLL5        0.0000 
     26 CA         13.9420   28.5460    2.1700 C.3       6 GLP5        0.0000 
     27 CA         12.4815   27.2730    4.9820 C.3       3 GLC5        0.0000 
     28 CA         12.1680   29.4580    5.4020 C.3       6 GLP5        0.0000 
     29 N          15.0425   24.8615    2.9020 N.am      2 SEC2        0.0000 
     30 N          15.1190   24.9000    4.3380 N.am      8 SEL2        0.0000 
     31 N          14.9660   24.8230    1.4660 N.am      5 SEP2        0.0000 
     32 O          15.6095   25.8465    5.6225 O.2       1 ALC1        0.0000 
     33 O          15.1190   24.9000    4.3380 O.2       7 ALL1        0.0000 
     34 O          16.1000   26.7930    6.9070 O.2       4 ALP1        0.0000 
     35 O          15.5900   26.2435    4.6110 O.2       1 ALC1        0.0000 
     36 O          16.0610   27.5870    4.8840 O.2       4 ALP1        0.0000 
     37 CA         14.0390   22.9520    9.7805 C.3       3 GLC5        0.0000 
     38 CA         15.5560   23.1740    8.2650 C.3       9 GLL5        0.0000 
     39 CA         12.5220   22.7300   11.2960 C.3       6 GLP5        0.0000 
     40 CA         14.3240   21.9165   10.4655 C.3       3 GLC5        0.0000 
     41 CA         16.1260   21.1030    9.6350 C.3       9 GLL5        0.0000 
     42 O          17.5425   22.2965    5.4470 O.2       1 ALC1        0.0000 
     43 O          16.3950   21.2200    5.5770 O.2       7 ALL1        0.0000 
     44 O          18.6900   23.3730    5.3170 O.2       4 ALP1        0.0000 
     45 N          19.6905   20.5770    4.1045 N.am      2 SEC2        0.0000 
     46 N          18.9080   20.2670    5.3540 N.am      8 SEL2        0.0000 
     47 N          20.4730   20.8870    2.8550 N.am      5 SEP2        0.0000 
     48 O          18.7990   21.8200    5.3355 O.2       1 ALC1        0.0000 
     49 O          18.9080   20.2670    5.3540 O.2       7 ALL1        0.0000 
     50 CA         20.0520   18.5595    4.2535 C.3       3 GLC5        0.0000 
     51 CA         18.1730   18.0050    5.0670 C.3       9 GLL5        0.0000 
     52 CA         21.9310   19.1140    3.4400 C.3       6 GLP5        0.0000 
     53 CA         16.6570   16.2305    3.8360 C.3       3 GLC5        0.0000 
     54 CA         17.3740   18.2930    3.8190 C.3       9 GLL5        0.0000 
     55 CA         15.9400   14.1680    3.8530 C.3       6 GLP5        0.0000 
     56 CA         17.3885   15.8420    2.7580 C.3       3 GLC5        0.0000 
     57 CA         17.6360   17.7740    2.5530 C.3       9 GLL5        0.0000 
     58 CA         17.1410   13.9100    2.9630 C.3       6 GLP5        0.0000 
     59 CA         14.1920   20.2875    0.7605 C.3       3 GLC5        0.0000 
     60 CA         15.9700   19.3330    1.7130 C.3       9 GLL5        0.0000 
     61 CA         12.4140   21.2420   -0.1920 C.3       6 GLP5        0.0000 
     62 CA         13.9170   19.9185    3.5465 C.3       3 GLC5        0.0000 
     63 CA         15.7440   19.8340    2.9960 C.3       9 GLL5        0.0000 
     64 CA         12.0900   20.0030    4.0970 C.3       6 GLP5        0.0000 
     65 CA         14.3565   18.9105    4.2245 C.3       3 GLC5        0.0000 
     66 CA         16.5100   19.3110    4.0150 C.3       9 GLL5        0.0000 
     67 CA         12.2030   18.5100    4.4340 C.3       6 GLP5        0.0000 
     68 CA         10.8865   18.4940    3.1860 C.3       3 GLC5        0.0000 
     69 CA          9.5700   18.4780    1.9380 C.3       9 GLL5        0.0000 
     70 CA         10.4275   19.8120    3.1170 C.3       3 GLC5        0.0000 
     71 CA          8.7650   19.6210    2.1370 C.3       9 GLL5        0.0000 
     72 CA          7.6290   21.0565    4.9405 C.3       3 GLC5        0.0000 
     73 CA          6.9360   20.8970    2.8340 C.3       9 GLL5        0.0000 
     74 CA          6.5355   20.3835    1.1865 C.3       3 GLC5        0.0000 
     75 CA          6.1350   19.8700   -0.4610 C.3       6 GLP5        0.0000 
     76 CA         11.7224   27.9862    7.6113 C.3       3 GLC5        0.0000 
     77 CA         12.8190   29.3160    6.7560 C.3       6 GLP5        0.0000 
     78 CA         10.6704   27.3407   10.3543 C.3       3 GLC5        0.0000 
     79 CA         10.7150   28.0250   12.2420 C.3       6 GLP5        0.0000 
     80 CA         11.5717   21.8803    3.2503 C.3       3 GLC5        0.0000 
     81 CA         11.7338   22.4997    1.1058 C.3       3 GLC5        0.0000 
     82 CA         16.2490   24.3387    9.6058 C.3       3 GLC5        0.0000 
     83 CA         16.4280   26.0030   10.6690 C.3       6 GLP5        0.0000 
     84 CA         17.6915   22.7203   10.4917 C.3       3 GLC5        0.0000 
     85 CA         16.5840   22.1750    8.8200 C.3       9 GLL5        0.0000 
     86 CA         18.1050   23.1950   12.3110 C.3       6 GLP5        0.0000 
     87 CA         19.1688   23.5725    8.9210 C.3       3 GLC5        0.0000 
     88 CA         17.9720   22.3160    8.5250 C.3       9 GLL5        0.0000 
     89 CA         19.9140   25.2850    9.0480 C.3       6 GLP5        0.0000 
     90 CA         18.3720   22.0370   10.8893 C.3       3 GLC5        0.0000 
     91 CA         18.8750   21.4040    9.0630 C.3       9 GLL5        0.0000 
     92 CA         16.1028   20.1250   11.8655 C.3       3 GLC5        0.0000 
     93 CA         17.0430   20.1910   10.1550 C.3       9 GLL5        0.0000 
     94 CA         15.6210   19.6030   13.8360 C.3       6 GLP5        0.0000 
     95 CA         17.3447   21.9210   11.1030 C.3       3 GLC5        0.0000 
     96 CA         15.1203   19.5870    9.4410 C.3       3 GLC5        0.0000 
     97 CA         13.6560   18.5270    8.9870 C.3       6 GLP5        0.0000 
     98 CA         17.5945   21.0367    3.6970 C.3       3 GLC5        0.0000 
     99 CA         16.5420   19.7620    5.4030 C.3       9 GLL5        0.0000 
    100 CA         18.6630   22.5370    2.6850 C.3       6 GLP5        0.0000 
    101 CA         18.6735   17.5368    0.7863 C.3       3 GLC5        0.0000 
    102 CA         20.0730   17.0390   -0.4480 C.3       6 GLP5        0.0000 
    103 CA         15.7500   17.9395    0.2363 C.3       3 GLC5        0.0000 
    104 CA         15.0590   17.0650   -1.1280 C.3       6 GLP5        0.0000 
    105 CA         15.4590   16.9840    1.8498 C.3       3 GLC5        0.0000 
    106 CA         16.9120   18.2950    1.4880 C.3       9 GLL5        0.0000 
    107 CA         14.4770   15.1540    2.0990 C.3       6 GLP5        0.0000 
    108 CA         16.8847   20.9460    1.9131 C.3       3 GLC5        0.0000 
    109 CA         17.6770   22.5680    1.5280 C.3       6 GLP5        0.0000 
    110 CA          6.7598   21.8402    0.9295 C.3       3 GLC5        0.0000 
    111 CA          8.0760   21.6860    2.3730 C.3       9 GLL5        0.0000 
    112 CA          5.4810   21.2320   -0.4130 C.3       6 GLP5        0.0000 
    113 CA          8.3257   23.0228    0.3535 C.3       3 GLC5        0.0000 
    114 CA          9.1300   17.6435    3.9980 C.3       3 GLC5        0.0000 
    115 CA          8.9420   17.2010    2.1820 C.3       9 GLL5        0.0000 
    116 CA         10.0120   18.1180    5.6200 C.3       6 GLP5        0.0000 
    117 CA          9.4215   15.5120    2.4080 C.3       3 GLC5        0.0000 
    118 CA         10.5950   13.8550    2.4400 C.3       6 GLP5        0.0000 
    119 CA          7.6513   19.4597    0.7882 C.3       3 GLC5        0.0000 
    120 CA          8.9683   18.2686    0.1907 C.3       3 GLC5        0.0000 
    121 CA          8.9260   17.8070   -1.7170 C.3       6 GLP5        0.0000 
    122 CA          8.5690   18.5343    4.1532 C.3       3 GLC5        0.0000 
    123 CA          7.4530   19.5700    2.5920 C.3       9 GLL5        0.0000 
    124 CA          7.3028   17.6285    0.5892 C.3       3 GLC5        0.0000 
    125 CA          6.7990   18.3310    2.7810 C.3       9 GLL5        0.0000 
    126 CA          7.4290   17.5230   -1.4970 C.3       6 GLP5        0.0000 
    127 CA          6.7375   18.9569    1.0836 C.3       3 GLC5        0.0000 
    128 CA          7.5540   17.1370    2.5700 C.3       9 GLL5        0.0000 
@<TRIPOS>BOND
@<TRIPOS>SUBSTRUCTURE
     1 ALC1        4 GROUP        1 X    ALC  0     ROOT ALC X 1
     2 SEC2       29 GROUP        1 X    SEC  0     **** SEC X 2
     3 GLC5        1 GROUP        1 X    GLC  0     **** GLC X 6
     4 ALP1        6 GROUP        1 Y    ALP  0     ROOT ALP Y 8
     5 SEP2       31 GROUP        1 Y    SEP  0     **** SEP Y 9
     6 GLP5        3 GROUP        1 Y    GLP  0     **** GLP Y 13
     7 ALL1        5 GROUP        1 Z    ALL  0     ROOT ALL Z 15
     8 SEL2       30 GROUP        1 Z    SEL  0     **** SEL Z 16
     9 GLL5        2 GROUP        1 Z    GLL  0     **** GLL Z 20
@<TRIPOS>SET

