#    Name: 1c70_L75_1_ligand
#    Modification time : Mon Mar 24 20:20:44 2014

@<TRIPOS>MOLECULE
1c70_L75_1_ligand
   97   102     1     0     0
SMALL
NO_CHARGES


@<TRIPOS>ATOM
      1 N1          9.2130   23.9200    2.6960 N.3       1 L75423      0.0000 
      2 C1          9.2320   23.8990    4.1620 C.3       1 L75423      0.0000 
      3 C2         10.3950   24.7820    4.6440 C.3       1 L75423      0.0000 
      4 C3         10.3890   24.8560    6.1620 C.2       1 L75423      0.0000 
      5 O1         10.7510   23.8540    6.8230 O.2       1 L75423      0.0000 
      6 N2         10.0480   26.0520    6.6740 N.am      1 L75423      0.0000 
      7 C4         10.0400   26.3380    8.1330 C.3       1 L75423      0.0000 
      8 C5          9.5350   27.7760    8.3410 C.3       1 L75423      0.0000 
      9 C6         11.4640   26.2560    8.6960 C.3       1 L75423      0.0000 
     10 C7          9.0790   25.3510    8.8630 C.3       1 L75423      0.0000 
     11 N3         11.6710   24.2400    4.1300 N.4       1 L75423      0.0000 
     12 C8         11.6610   24.1760    2.6430 C.3       1 L75423      0.0000 
     13 C9         10.4460   23.3390    2.1640 C.3       1 L75423      0.0000 
     14 C10        12.7950   25.0880    4.5620 C.3       1 L75423      0.0000 
     15 C11        13.9980   24.2240    4.8280 C.3       1 L75423      0.0000 
     16 O2         15.1190   24.9000    4.3380 O.3       1 L75423      0.0000 
     17 C12        14.2440   23.9660    6.2840 C.3       1 L75423      0.0000 
     18 C13        15.4490   23.1300    6.7380 C.3       1 L75423      0.0000 
     19 C14        15.5560   23.1740    8.2650 C.3       1 L75423      0.0000 
     20 C15        16.5840   22.1750    8.8200 C.ar      1 L75423      0.0000 
     21 C16        17.9720   22.3160    8.5250 C.ar      1 L75423      0.0000 
     22 C17        18.8750   21.4040    9.0630 C.ar      1 L75423      0.0000 
     23 C18        18.4030   20.3540    9.8720 C.ar      1 L75423      0.0000 
     24 C19        17.0430   20.1910   10.1550 C.ar      1 L75423      0.0000 
     25 C20        16.1260   21.1030    9.6350 C.ar      1 L75423      0.0000 
     26 C21        15.3170   21.6910    6.2250 C.2       1 L75423      0.0000 
     27 O3         14.2920   21.0510    6.4710 O.2       1 L75423      0.0000 
     28 N4         16.3950   21.2200    5.5770 N.am      1 L75423      0.0000 
     29 C22        16.5420   19.7620    5.4030 C.3       1 L75423      0.0000 
     30 C23        17.9850   19.3260    5.8830 C.3       1 L75423      0.0000 
     31 O4         18.9080   20.2670    5.3540 O.3       1 L75423      0.0000 
     32 C24        18.1730   18.0050    5.0670 C.3       1 L75423      0.0000 
     33 C25        17.3740   18.2930    3.8190 C.ar      1 L75423      0.0000 
     34 C26        17.6360   17.7740    2.5530 C.ar      1 L75423      0.0000 
     35 C27        16.9120   18.2950    1.4880 C.ar      1 L75423      0.0000 
     36 C28        15.9700   19.3330    1.7130 C.ar      1 L75423      0.0000 
     37 C29        15.7440   19.8340    2.9960 C.ar      1 L75423      0.0000 
     38 C30        16.5100   19.3110    4.0150 C.ar      1 L75423      0.0000 
     39 C31         8.0010   23.2110    2.1710 C.3       1 L75423      0.0000 
     40 C32         8.9420   17.2010    2.1820 C.ar      1 L75423      0.0000 
     41 C33         9.5700   18.4780    1.9380 C.ar      1 L75423      0.0000 
     42 C34         8.7650   19.6210    2.1370 C.ar      1 L75423      0.0000 
     43 C35         7.4530   19.5700    2.5920 C.ar      1 L75423      0.0000 
     44 C36         6.7990   18.3310    2.7810 C.ar      1 L75423      0.0000 
     45 C37         7.5540   17.1370    2.5700 C.ar      1 L75423      0.0000 
     46 O5          9.1560   20.8990    1.9530 O.3       1 L75423      0.0000 
     47 C38         8.0760   21.6860    2.3730 C.2       1 L75423      0.0000 
     48 C39         6.9360   20.8970    2.8340 C.2       1 L75423      0.0000 
     49 H           9.3904   22.8937    4.5371 H         1 L75423      0.0000 
     50 H           8.3101   24.2979    4.5712 H         1 L75423      0.0000 
     51 H          10.2328   25.7783    4.2486 H         1 L75423      0.0000 
     52 H           9.7671   26.8541    6.0678 H         1 L75423      0.0000 
     53 H          11.8173   23.2365    4.5191 H         1 L75423      0.0000 
     54 H          12.5656   23.7023    2.2731 H         1 L75423      0.0000 
     55 H          11.5760   25.1712    2.2165 H         1 L75423      0.0000 
     56 H          10.4480   23.3428    1.0757 H         1 L75423      0.0000 
     57 H          10.5863   22.3184    2.5150 H         1 L75423      0.0000 
     58 H          12.5349   25.6280    5.4740 H         1 L75423      0.0000 
     59 H          13.0424   25.8150    3.7866 H         1 L75423      0.0000 
     60 H          13.8713   23.2804    4.3203 H         1 L75423      0.0000 
     61 H          13.3147   23.4918    6.7324 H         1 L75423      0.0000 
     62 H          14.2993   24.9620    6.8266 H         1 L75423      0.0000 
     63 H          16.3419   23.5692    6.3160 H         1 L75423      0.0000 
     64 H          14.5749   22.9520    8.7001 H         1 L75423      0.0000 
     65 H          15.8408   24.1857    8.5759 H         1 L75423      0.0000 
     66 H          18.2821   23.0777    7.9281 H         1 L75423      0.0000 
     67 H          19.8764   21.4904    8.8757 H         1 L75423      0.0000 
     68 H          19.0875   19.6820   10.2691 H         1 L75423      0.0000 
     69 H          16.7279   19.4128   10.7356 H         1 L75423      0.0000 
     70 H          15.1288   21.0131    9.8306 H         1 L75423      0.0000 
     71 H          17.1294   21.8067    5.1913 H         1 L75423      0.0000 
     72 H          15.8581   19.2103    6.0006 H         1 L75423      0.0000 
     73 H          17.9876   19.1453    6.8574 H         1 L75423      0.0000 
     74 H          17.7487   17.2106    5.6095 H         1 L75423      0.0000 
     75 H          19.1935   17.8906    4.8414 H         1 L75423      0.0000 
     76 H          18.3246   17.0486    2.4169 H         1 L75423      0.0000 
     77 H          17.0475   17.9405    0.5380 H         1 L75423      0.0000 
     78 H          15.4504   19.7155    0.9101 H         1 L75423      0.0000 
     79 H          15.0495   20.5465    3.1609 H         1 L75423      0.0000 
     80 H           7.8848   23.4118    1.0979 H         1 L75423      0.0000 
     81 H           7.1006   23.5825    2.6777 H         1 L75423      0.0000 
     82 H           9.4778   16.3482    2.0804 H         1 L75423      0.0000 
     83 H          10.5148   18.5332    1.6473 H         1 L75423      0.0000 
     84 H           5.8348   18.2846    3.0548 H         1 L75423      0.0000 
     85 H           7.1130   16.2270    2.6933 H         1 L75423      0.0000 
     86 H           6.1766   21.1590    3.1565 H         1 L75423      0.0000 
     87 H           9.5093   28.0242    9.3094 H         1 L75423      0.0000 
     88 H          10.1199   28.4450    7.8823 H         1 L75423      0.0000 
     89 H           8.6100   27.9004    7.9819 H         1 L75423      0.0000 
     90 H          11.8638   25.3489    8.5643 H         1 L75423      0.0000 
     91 H          12.0760   26.9128    8.2554 H         1 L75423      0.0000 
     92 H          11.4869   26.4468    9.6774 H         1 L75423      0.0000 
     93 H           9.3590   24.3992    8.7379 H         1 L75423      0.0000 
     94 H           9.0501   25.5210    9.8480 H         1 L75423      0.0000 
     95 H           8.1410   25.4275    8.5248 H         1 L75423      0.0000 
     96 H          15.0556   25.8202    4.7243 H         1 L75423      0.0000 
     97 H          18.4512   21.1527    5.4379 H         1 L75423      0.0000 
@<TRIPOS>BOND
     1    2    1 1    
     2   13    1 1    
     3   39    1 1    
     4    3    2 1    
     5   49    2 1    
     6   50    2 1    
     7    4    3 1    
     8   11    3 1    
     9   51    3 1    
    10    5    4 2    
    11    6    4 am   
    12    7    6 1    
    13   52    6 1    
    14    8    7 1    
    15    9    7 1    
    16   10    7 1    
    17   87    8 1    
    18   88    8 1    
    19   89    8 1    
    20   90    9 1    
    21   91    9 1    
    22   92    9 1    
    23   93   10 1    
    24   94   10 1    
    25   95   10 1    
    26   12   11 1    
    27   14   11 1    
    28   53   11 1    
    29   13   12 1    
    30   54   12 1    
    31   55   12 1    
    32   56   13 1    
    33   57   13 1    
    34   15   14 1    
    35   58   14 1    
    36   59   14 1    
    37   16   15 1    
    38   17   15 1    
    39   60   15 1    
    40   96   16 1    
    41   18   17 1    
    42   61   17 1    
    43   62   17 1    
    44   19   18 1    
    45   26   18 1    
    46   63   18 1    
    47   20   19 1    
    48   64   19 1    
    49   65   19 1    
    50   21   20 ar   
    51   25   20 ar   
    52   22   21 ar   
    53   66   21 1    
    54   23   22 ar   
    55   67   22 1    
    56   24   23 ar   
    57   68   23 1    
    58   25   24 ar   
    59   69   24 1    
    60   70   25 1    
    61   27   26 2    
    62   28   26 am   
    63   29   28 1    
    64   71   28 1    
    65   30   29 1    
    66   38   29 1    
    67   72   29 1    
    68   31   30 1    
    69   32   30 1    
    70   73   30 1    
    71   97   31 1    
    72   33   32 1    
    73   74   32 1    
    74   75   32 1    
    75   34   33 ar   
    76   38   33 ar   
    77   35   34 ar   
    78   76   34 1    
    79   36   35 ar   
    80   77   35 1    
    81   37   36 ar   
    82   78   36 1    
    83   38   37 ar   
    84   79   37 1    
    85   47   39 1    
    86   80   39 1    
    87   81   39 1    
    88   41   40 ar   
    89   45   40 ar   
    90   82   40 1    
    91   42   41 ar   
    92   83   41 1    
    93   43   42 ar   
    94   46   42 1    
    95   44   43 ar   
    96   48   43 1    
    97   45   44 ar   
    98   84   44 1    
    99   85   45 1    
   100   47   46 1    
   101   48   47 2    
   102   86   48 1    
@<TRIPOS>SUBSTRUCTURE
     1 L75423      1 GROUP   
@<TRIPOS>SET

