#    Name: 4fda_NAP_1_INTS_M
#    Modification time : Mon Mar 24 19:21:29 2014

@<TRIPOS>MOLECULE
4fda_NAP_1_INTS_M
   89     0    12     0     0
SMALL
NO_CHARGES


@<TRIPOS>ATOM
      1 N         -45.4910   21.1060   16.6695 N.am      2 SEC2        0.0000 
      2 N         -44.9420   21.7410   17.9430 N.am     10 SEL2        0.0000 
      3 N         -46.0400   20.4710   15.3960 N.am      6 SEP2        0.0000 
      4 CA        -41.1200   21.5100   16.9575 C.3       4 GLC5        0.0000 
      5 CA        -42.3960   19.9980   17.9900 C.3      12 GLL5        0.0000 
      6 CA        -39.8440   23.0220   15.9250 C.3       8 GLP5        0.0000 
      7 CA        -41.8380   19.9785   14.9580 C.3       4 GLC5        0.0000 
      8 CA        -42.4440   19.0820   16.7820 C.3      12 GLL5        0.0000 
      9 CA        -41.2320   20.8750   13.1340 C.3       8 GLP5        0.0000 
     10 N         -40.7775   20.5775   15.6015 N.am      2 SEC2        0.0000 
     11 N         -41.2340   19.2400   16.0920 N.am     10 SEL2        0.0000 
     12 N         -40.3210   21.9150   15.1110 N.am      6 SEP2        0.0000 
     13 CA        -44.0555   17.1400   18.4270 C.3       4 GLC5        0.0000 
     14 CA        -42.6040   17.6080   17.1840 C.3      12 GLL5        0.0000 
     15 CA        -45.5070   16.6720   19.6700 C.3       8 GLP5        0.0000 
     16 O         -43.6930   15.6665   16.6760 O.2       1 ALC1        0.0000 
     17 O         -43.4380   16.9760   16.2800 O.2       9 ALL1        0.0000 
     18 O         -43.9480   14.3570   17.0720 O.2       5 ALP1        0.0000 
     19 CA        -40.3965   18.9640   14.3235 C.3       4 GLC5        0.0000 
     20 CA        -40.5950   18.0370   16.0110 C.3      12 GLL5        0.0000 
     21 CA        -40.1980   19.8910   12.6360 C.3       8 GLP5        0.0000 
     22 CA        -35.2370   17.8335   13.4665 C.3       4 GLC5        0.0000 
     23 CA        -35.8240   17.2110   15.3690 C.3      12 GLL5        0.0000 
     24 CA        -34.6500   18.4560   11.5640 C.3       8 GLP5        0.0000 
     25 CA        -34.9425   18.8455   15.1500 C.3       4 GLC5        0.0000 
     26 CA        -34.0610   20.4800   14.9310 C.3       8 GLP5        0.0000 
     27 O         -33.5600   16.4010   15.5715 O.2       1 ALC1        0.0000 
     28 O         -34.6160   17.3090   15.8880 O.2       9 ALL1        0.0000 
     29 O         -32.5040   15.4930   15.2550 O.2       5 ALP1        0.0000 
     30 N         -34.9025   16.4790   13.2910 N.am      2 SEC2        0.0000 
     31 N         -36.0060   16.6710   14.1940 N.am     10 SEL2        0.0000 
     32 N         -33.7990   16.2870   12.3880 N.am      6 SEP2        0.0000 
     33 CA        -37.1185   15.2985   15.0170 C.3       4 GLC5        0.0000 
     34 CA        -37.2020   16.5570   13.6920 C.3      12 GLL5        0.0000 
     35 CA        -37.0350   14.0400   16.3420 C.3       8 GLP5        0.0000 
     36 CA        -35.3815   15.2795   13.4240 C.3       4 GLC5        0.0000 
     37 CA        -33.5610   14.0020   13.1560 C.3       8 GLP5        0.0000 
     38 CA        -35.9260   17.5065   12.6280 C.3       4 GLC5        0.0000 
     39 CA        -39.2420   18.7170   14.0200 C.3       4 GLC5        0.0000 
     40 CA        -38.2860   17.5430   15.4040 C.3      12 GLL5        0.0000 
     41 N         -42.6620   20.4070   21.4905 N.am      2 SEC2        0.0000 
     42 N         -42.1360   21.9540   21.5760 N.am     10 SEL2        0.0000 
     43 N         -43.1880   18.8600   21.4050 N.am      6 SEP2        0.0000 
     44 CA        -41.3600   26.1095   21.6070 C.3       4 GLC5        0.0000 
     45 CA        -42.8900   27.1680   21.0780 C.3      12 GLL5        0.0000 
     46 CA        -39.8300   25.0510   22.1360 C.3       8 GLP5        0.0000 
     47 N         -43.8520   30.1795   18.5455 N.am      2 SEC2        0.0000 
     48 N         -43.8820   28.8450   19.5710 N.am     10 SEL2        0.0000 
     49 N         -43.8220   31.5140   17.5200 N.am      6 SEP2        0.0000 
     50 O         -42.8170   28.3265   18.7580 O.2       1 ALC1        0.0000 
     51 O         -43.8820   28.8450   19.5710 O.2       9 ALL1        0.0000 
     52 O         -41.7520   27.8080   17.9450 O.2       5 ALP1        0.0000 
     53 N         -37.0055   27.7875   22.2695 N.am      2 SEC2        0.0000 
     54 N         -38.2320   28.7470   22.1920 N.am     10 SEL2        0.0000 
     55 N         -35.7790   26.8280   22.3470 N.am      6 SEP2        0.0000 
     56 NZ        -42.7020   15.5915   19.8290 N.4       3 LYC4        0.0000 
     57 NZ        -42.0510   14.5680   18.7840 N.4      11 LYL4        0.0000 
     58 NZ        -42.6190   17.7100   21.0540 N.4       7 LYP4        0.0000 
     59 N         -42.9995   14.4625   17.9280 N.am      2 SEC2        0.0000 
     60 N         -42.0510   14.5680   18.7840 N.am     10 SEL2        0.0000 
     61 N         -43.9480   14.3570   17.0720 N.am      6 SEP2        0.0000 
     62 N         -42.7020   15.5915   19.8290 N.am      2 SEC2        0.0000 
     63 N         -43.3530   16.6150   20.8740 N.am      6 SEP2        0.0000 
     64 N         -41.6465   13.0375   18.5020 N.am      2 SEC2        0.0000 
     65 N         -41.2420   11.5070   18.2200 N.am      6 SEP2        0.0000 
     66 N         -39.4880   13.3950   16.2915 N.am      2 SEC2        0.0000 
     67 N         -40.1230   13.7330   17.5820 N.am     10 SEL2        0.0000 
     68 N         -38.8530   13.0570   15.0010 N.am      6 SEP2        0.0000 
     69 N         -38.8335   13.6060   17.5595 N.am      2 SEC2        0.0000 
     70 N         -37.5440   13.4790   17.5370 N.am      6 SEP2        0.0000 
     71 N         -40.6825   12.6200   17.9010 N.am      2 SEC2        0.0000 
     72 NZ        -40.6330   16.5380   20.0255 N.4       3 LYC4        0.0000 
     73 NZ        -39.9620   15.4220   19.1610 N.4      11 LYL4        0.0000 
     74 N         -40.6330   16.5380   20.0255 N.am      2 SEC2        0.0000 
     75 N         -39.9620   15.4220   19.1610 N.am     10 SEL2        0.0000 
     76 N         -41.3040   17.6540   20.8900 N.am      6 SEP2        0.0000 
     77 CA        -37.0273   19.4205   15.1073 C.3       4 GLC5        0.0000 
     78 CA        -37.0010   17.7150   16.0450 C.3      12 GLL5        0.0000 
     79 CA        -36.4110   21.2120   14.4900 C.3       8 GLP5        0.0000 
     80 CA        -37.1921   15.7715   15.9488 C.3       4 GLC5        0.0000 
     81 CA        -41.7620   28.0935   19.6082 C.3       4 GLC5        0.0000 
     82 CA        -40.5290   28.3040   18.3160 C.3       8 GLP5        0.0000 
     83 CA        -40.3825   26.9395   22.4682 C.3       4 GLC5        0.0000 
     84 CA        -41.4750   28.7540   22.3420 C.3      12 GLL5        0.0000 
     85 CA        -39.5330   30.7097   23.8775 C.3       4 GLC5        0.0000 
     86 CA        -40.3950   28.9020   23.2590 C.3      12 GLL5        0.0000 
     87 CA        -38.5170   32.3230   23.8670 C.3       8 GLP5        0.0000 
     88 CA        -42.5630   17.8925   15.0623 C.3       4 GLC5        0.0000 
     89 CA        -43.4180   17.8190   13.3510 C.3       8 GLP5        0.0000 
@<TRIPOS>BOND
@<TRIPOS>SUBSTRUCTURE
     1 ALC1       16 GROUP        1 X    ALC  0     ROOT ALC X 1
     2 SEC2        1 GROUP        1 X    SEC  0     **** SEC X 2
     3 LYC4       56 GROUP        1 X    LYC  0     **** LYC X 4
     4 GLC5        4 GROUP        1 X    GLC  0     **** GLC X 6
     5 ALP1       18 GROUP        1 Y    ALP  0     ROOT ALP Y 8
     6 SEP2        3 GROUP        1 Y    SEP  0     **** SEP Y 9
     7 LYP4       58 GROUP        1 Y    LYP  0     **** LYP Y 11
     8 GLP5        6 GROUP        1 Y    GLP  0     **** GLP Y 13
     9 ALL1       17 GROUP        1 Z    ALL  0     ROOT ALL Z 15
    10 SEL2        2 GROUP        1 Z    SEL  0     **** SEL Z 16
    11 LYL4       57 GROUP        1 Z    LYL  0     **** LYL Z 18
    12 GLL5        5 GROUP        1 Z    GLL  0     **** GLL Z 20
@<TRIPOS>SET

