#    Name: 4fda_NAP_1_ligand
#    Modification time : Mon Mar 24 19:21:29 2014

@<TRIPOS>MOLECULE
4fda_NAP_1_ligand
   73    77     1     0     0
SMALL
NO_CHARGES


@<TRIPOS>ATOM
      1 PA        -44.4420   21.1310   19.1190 P.3       1 NAP301      0.0000 
      2 O1A       -44.9420   21.7410   17.9430 O.co2     1 NAP301      0.0000 
      3 O2A       -45.5280   20.7610   20.0070 O.co2     1 NAP301      0.0000 
      4 O5B       -43.5200   19.8980   18.8230 O.3       1 NAP301      0.0000 
      5 C5B       -42.3960   19.9980   17.9900 C.3       1 NAP301      0.0000 
      6 C4B       -42.4440   19.0820   16.7820 C.3       1 NAP301      0.0000 
      7 O4B       -41.2340   19.2400   16.0920 O.3       1 NAP301      0.0000 
      8 C3B       -42.6040   17.6080   17.1840 C.3       1 NAP301      0.0000 
      9 O3B       -43.4380   16.9760   16.2800 O.3       1 NAP301      0.0000 
     10 C2B       -41.1890   17.1370   17.1170 C.3       1 NAP301      0.0000 
     11 O2B       -41.0150   15.7350   17.0130 O.3       1 NAP301      0.0000 
     12 C1B       -40.5950   18.0370   16.0110 C.3       1 NAP301      0.0000 
     13 N9A       -39.1600   18.0680   16.2180 N.pl3     1 NAP301      0.0000 
     14 C8A       -38.5440   18.4860   17.2790 C.2       1 NAP301      0.0000 
     15 N7A       -37.2650   18.2790   17.1820 N.2       1 NAP301      0.0000 
     16 C5A       -37.0010   17.7150   16.0450 C.ar      1 NAP301      0.0000 
     17 C6A       -35.8240   17.2110   15.3690 C.ar      1 NAP301      0.0000 
     18 N6A       -34.6160   17.3090   15.8880 N.pl3     1 NAP301      0.0000 
     19 N1A       -36.0060   16.6710   14.1940 N.ar      1 NAP301      0.0000 
     20 C2A       -37.2020   16.5570   13.6920 C.ar      1 NAP301      0.0000 
     21 N3A       -38.3200   16.9750   14.2200 N.ar      1 NAP301      0.0000 
     22 C4A       -38.2860   17.5430   15.4040 C.ar      1 NAP301      0.0000 
     23 O3        -43.4630   22.1540   19.6910 O.3       1 NAP301      0.0000 
     24 PN        -43.3160   22.6150   21.1580 P.3       1 NAP301      0.0000 
     25 O1N       -42.1360   21.9540   21.5760 O.co2     1 NAP301      0.0000 
     26 O2N       -44.4970   22.4060   21.9390 O.co2     1 NAP301      0.0000 
     27 O5D       -43.2250   24.2000   20.9190 O.3       1 NAP301      0.0000 
     28 C5D       -44.2870   25.0880   21.2990 C.3       1 NAP301      0.0000 
     29 C4D       -44.2420   26.6150   20.9840 C.3       1 NAP301      0.0000 
     30 O4D       -44.8550   27.6210   21.8350 O.3       1 NAP301      0.0000 
     31 C3D       -42.8900   27.1680   21.0780 C.3       1 NAP301      0.0000 
     32 O3D       -42.1670   26.4820   20.1880 O.3       1 NAP301      0.0000 
     33 C2D       -43.1000   28.5980   20.7230 C.3       1 NAP301      0.0000 
     34 O2D       -43.8820   28.8450   19.5710 O.3       1 NAP301      0.0000 
     35 C1D       -43.9950   28.8230   21.8680 C.3       1 NAP301      0.0000 
     36 N1N       -42.8070   28.9290   22.7310 N.pl3     1 NAP301      0.0000 
     37 C2N       -41.4750   28.7540   22.3420 C.ar      1 NAP301      0.0000 
     38 C3N       -40.3950   28.9020   23.2590 C.ar      1 NAP301      0.0000 
     39 C7N       -38.8840   28.7630   23.1690 C.2       1 NAP301      0.0000 
     40 O7N       -38.2320   28.7470   22.1920 O.2       1 NAP301      0.0000 
     41 N7N       -38.1860   28.7210   24.2740 N.am      1 NAP301      0.0000 
     42 C4N       -40.7030   29.2910   24.5170 C.ar      1 NAP301      0.0000 
     43 C5N       -42.0130   29.5040   24.8220 C.ar      1 NAP301      0.0000 
     44 C6N       -43.0420   29.3240   23.9430 C.ar      1 NAP301      0.0000 
     45 P2B       -40.7800   14.7560   18.2110 P.3       1 NAP301      0.0000 
     46 O1X       -42.0510   14.5680   18.7840 O.co2     1 NAP301      0.0000 
     47 O2X       -40.1230   13.7330   17.5820 O.co2     1 NAP301      0.0000 
     48 O3X       -39.9620   15.4220   19.1610 O.co2     1 NAP301      0.0000 
     49 H         -41.4517   19.7663   18.5416 H         1 NAP301      0.0000 
     50 H         -42.2567   21.0394   17.6082 H         1 NAP301      0.0000 
     51 H         -43.2847   19.3617   16.1729 H         1 NAP301      0.0000 
     52 H         -42.9271   17.5983   18.1910 H         1 NAP301      0.0000 
     53 H         -40.7163   17.5340   18.0664 H         1 NAP301      0.0000 
     54 H         -40.8178   17.5086   15.0777 H         1 NAP301      0.0000 
     55 H         -38.9912   18.9108   18.0670 H         1 NAP301      0.0000 
     56 H         -33.9739   16.5807   15.6488 H         1 NAP301      0.0000 
     57 H         -34.4518   18.1027   16.4736 H         1 NAP301      0.0000 
     58 H         -37.2802   16.0518   12.7129 H         1 NAP301      0.0000 
     59 H         -44.4833   25.0124   22.4269 H         1 NAP301      0.0000 
     60 H         -45.2863   24.7160   20.8754 H         1 NAP301      0.0000 
     61 H         -44.5615   26.7921   19.9498 H         1 NAP301      0.0000 
     62 H         -42.5738   27.0964   22.0853 H         1 NAP301      0.0000 
     63 H         -42.2493   29.1381   20.8545 H         1 NAP301      0.0000 
     64 H         -44.4531   29.7191   21.7218 H         1 NAP301      0.0000 
     65 H         -41.2558   28.5092   21.3598 H         1 NAP301      0.0000 
     66 H         -37.1937   28.6616   24.1656 H         1 NAP301      0.0000 
     67 H         -38.7086   28.7522   25.1260 H         1 NAP301      0.0000 
     68 H         -39.9720   29.4234   25.2264 H         1 NAP301      0.0000 
     69 H         -42.2512   29.8315   25.8076 H         1 NAP301      0.0000 
     70 H         -44.0189   29.5150   24.2809 H         1 NAP301      0.0000 
     71 H         -43.9512   16.3110   16.8226 H         1 NAP301      0.0000 
     72 H         -42.0553   25.5735   20.5906 H         1 NAP301      0.0000 
     73 H         -43.3303   28.5100   18.8072 H         1 NAP301      0.0000 
@<TRIPOS>BOND
     1    2    1 ar   
     2    3    1 ar   
     3    4    1 1    
     4   23    1 1    
     5    5    4 1    
     6    6    5 1    
     7   49    5 1    
     8   50    5 1    
     9    7    6 1    
    10    8    6 1    
    11   51    6 1    
    12   12    7 1    
    13    9    8 1    
    14   10    8 1    
    15   52    8 1    
    16   71    9 1    
    17   11   10 1    
    18   12   10 1    
    19   53   10 1    
    20   45   11 1    
    21   13   12 1    
    22   54   12 1    
    23   14   13 1    
    24   22   13 1    
    25   15   14 2    
    26   55   14 1    
    27   16   15 1    
    28   17   16 ar   
    29   22   16 ar   
    30   18   17 1    
    31   19   17 ar   
    32   56   18 1    
    33   57   18 1    
    34   20   19 ar   
    35   21   20 ar   
    36   58   20 1    
    37   22   21 ar   
    38   24   23 1    
    39   25   24 ar   
    40   26   24 ar   
    41   27   24 1    
    42   28   27 1    
    43   29   28 1    
    44   59   28 1    
    45   60   28 1    
    46   30   29 1    
    47   31   29 1    
    48   61   29 1    
    49   35   30 1    
    50   32   31 1    
    51   33   31 1    
    52   62   31 1    
    53   72   32 1    
    54   34   33 1    
    55   35   33 1    
    56   63   33 1    
    57   73   34 1    
    58   36   35 1    
    59   64   35 1    
    60   37   36 ar   
    61   44   36 ar   
    62   38   37 ar   
    63   65   37 1    
    64   39   38 1    
    65   42   38 ar   
    66   40   39 2    
    67   41   39 am   
    68   66   41 1    
    69   67   41 1    
    70   43   42 ar   
    71   68   42 1    
    72   44   43 ar   
    73   69   43 1    
    74   70   44 1    
    75   46   45 ar   
    76   47   45 ar   
    77   48   45 ar   
@<TRIPOS>SUBSTRUCTURE
     1 NAP301      1 GROUP   
@<TRIPOS>SET

