#    Name: 3AE4_1_CAVITY_N1_6.mol2
#    Modification time : Tue Mar 11 07:57:28 2014

@<TRIPOS>MOLECULE
3AE4_1_CAVITY_N1_6.mol2
   20     0     3     0     0
SMALL
NO_CHARGES


@<TRIPOS>ATOM
      1 CA          4.7838  -25.6814   59.2452 C.3       3 GLY6        0.0000 
      2 CA          5.8645  -25.4725   64.0968 C.3       3 GLY6        0.0000 
      3 CA          7.1214  -25.8479   63.3692 C.3       3 GLY6        0.0000 
      4 CA          5.2969  -26.8326   63.8181 C.3       3 GLY6        0.0000 
      5 O           6.5537  -27.2081   63.0905 O.2       2 ALA2        0.0000 
      6 O           5.9860  -28.5683   62.8117 O.2       2 ALA2        0.0000 
      7 N           4.6846  -24.4547   61.5333 N.2       2 ALA2        0.0000 
      8 CA          5.9414  -24.8301   60.8057 C.3       3 GLY6        0.0000 
      9 CA          5.3737  -26.1903   60.5269 C.3       3 GLY6        0.0000 
     10 O           4.8061  -27.5504   60.2482 O.2       2 ALA2        0.0000 
     11 CA          5.8869  -27.3416   65.0998 C.3       3 GLY6        0.0000 
     12 O           6.5760  -29.0772   64.0935 O.2       2 ALA2        0.0000 
     13 CA          5.8422  -23.6034   63.0938 C.3       3 GLY6        0.0000 
     14 OG          7.0991  -23.9788   62.3662 O.2       1 SER1        0.0000 
     15 CA          5.2746  -24.9636   62.8150 C.3       3 GLY6        0.0000 
     16 OG          6.5314  -25.3390   62.0874 O.2       1 SER1        0.0000 
     17 CA          4.7069  -26.3237   62.5363 C.3       3 GLY6        0.0000 
     18 O           5.9637  -26.6992   61.8087 O.2       2 ALA2        0.0000 
     19 O           7.2206  -27.0746   61.0811 O.2       2 ALA2        0.0000 
     20 O           5.3961  -28.0593   61.5300 O.2       2 ALA2        0.0000 
@<TRIPOS>BOND
@<TRIPOS>SUBSTRUCTURE
     1 SER1       14 GROUP   
     2 ALA2        5 GROUP   
     3 GLY6        1 GROUP   
@<TRIPOS>SET

