#    Name: 3ae4_N1M_1_INTS_M
#    Modification time : Mon Apr  7 19:01:48 2014

@<TRIPOS>MOLECULE
3ae4_N1M_1_INTS_M
   32     0     6     0     0
SMALL
NO_CHARGES


@<TRIPOS>ATOM
      1 CA         12.8700  -27.8955   56.3380 C.3       2 GLC5        0.0000 
      2 CA         12.3400  -27.9230   58.4550 C.3       6 GLL5        0.0000 
      3 CA         13.4000  -27.8680   54.2210 C.3       4 GLP5        0.0000 
      4 CA         14.0640  -28.5565   58.2095 C.3       2 GLC5        0.0000 
      5 CA         15.7880  -29.1900   57.9640 C.3       4 GLP5        0.0000 
      6 CA         10.4370  -27.9455   58.0455 C.3       2 GLC5        0.0000 
      7 CA          8.5340  -27.9680   57.6360 C.3       4 GLP5        0.0000 
      8 CA         11.8615  -25.8790   58.0975 C.3       2 GLC5        0.0000 
      9 CA         11.3830  -23.8350   57.7400 C.3       4 GLP5        0.0000 
     10 N          15.5035  -27.7340   59.6020 N.am      1 SEC2        0.0000 
     11 N          14.6070  -27.2380   60.4640 N.am      5 SEL2        0.0000 
     12 N          16.4000  -28.2300   58.7400 N.am      3 SEP2        0.0000 
     13 CA         10.1795  -23.0285   61.8435 C.3       2 GLC5        0.0000 
     14 CA         10.8710  -24.9780   62.1020 C.3       6 GLL5        0.0000 
     15 CA          9.4880  -21.0790   61.5850 C.3       4 GLP5        0.0000 
     16 CA          8.4425  -25.8035   59.6510 C.3       2 GLC5        0.0000 
     17 CA          9.9470  -25.6510   61.3020 C.3       6 GLL5        0.0000 
     18 CA          6.9380  -25.9560   58.0000 C.3       4 GLP5        0.0000 
     19 CA         15.1200  -23.4210   62.7260 C.3       2 GLC5        0.0000 
     20 CA         15.9840  -24.7350   61.5460 C.3       6 GLL5        0.0000 
     21 CA         14.2560  -22.1070   63.9060 C.3       4 GLP5        0.0000 
     22 CA          9.7858  -27.2742   58.8885 C.3       2 GLC5        0.0000 
     23 CA         11.7160  -26.6710   60.0160 C.3       6 GLL5        0.0000 
     24 CA         11.8041  -24.7754   59.4541 C.3       2 GLC5        0.0000 
     25 CA         11.7993  -23.7685   63.5410 C.3       2 GLC5        0.0000 
     26 CA         12.2420  -25.1220   61.8940 C.3       6 GLL5        0.0000 
     27 CA         12.0420  -22.4870   65.0840 C.3       4 GLP5        0.0000 
     28 CA         10.6033  -26.0505   63.2840 C.3       2 GLC5        0.0000 
     29 CA          9.6500  -27.0510   64.5700 C.3       4 GLP5        0.0000 
     30 CA         10.7680  -24.9528   59.2620 C.3       2 GLC5        0.0000 
     31 CA          9.9015  -26.5607   62.6770 C.3       2 GLC5        0.0000 
     32 CA         10.3590  -26.4900   60.2660 C.3       6 GLL5        0.0000 
@<TRIPOS>BOND
@<TRIPOS>SUBSTRUCTURE
     1 SEC2       10 GROUP        1 X    SEC  0     ROOT SEC X 2
     2 GLC5        1 GROUP        1 X    GLC  0     **** GLC X 6
     3 SEP2       12 GROUP        1 Y    SEP  0     ROOT SEP Y 9
     4 GLP5        3 GROUP        1 Y    GLP  0     **** GLP Y 13
     5 SEL2       11 GROUP        1 Z    SEL  0     ROOT SEL Z 16
     6 GLL5        2 GROUP        1 Z    GLL  0     **** GLL Z 20
@<TRIPOS>SET

