#    Name: 3ae4_N1M_1_ligand
#    Modification time : Mon Apr  7 19:01:48 2014

@<TRIPOS>MOLECULE
3ae4_N1M_1_ligand
   19    19     1     0     0
SMALL
NO_CHARGES


@<TRIPOS>ATOM
      1 I          12.3400  -27.9230   58.4550 I         1 N1M1201     0.0000 
      2 N          14.9430  -25.0190   60.5740 N.am      1 N1M1201     0.0000 
      3 O          14.6070  -27.2380   60.4640 O.2       1 N1M1201     0.0000 
      4 C1         11.7160  -26.6710   60.0160 C.ar      1 N1M1201     0.0000 
      5 C2         12.7010  -25.9480   60.8690 C.ar      1 N1M1201     0.0000 
      6 C3         12.2420  -25.1220   61.8940 C.ar      1 N1M1201     0.0000 
      7 C4         10.8710  -24.9780   62.1020 C.ar      1 N1M1201     0.0000 
      8 C5          9.9470  -25.6510   61.3020 C.ar      1 N1M1201     0.0000 
      9 C6         10.3590  -26.4900   60.2660 C.ar      1 N1M1201     0.0000 
     10 C7         14.1710  -26.1100   60.6260 C.2       1 N1M1201     0.0000 
     11 C8         15.9840  -24.7350   61.5460 C.3       1 N1M1201     0.0000 
     12 H          14.8281  -24.3048   59.8122 H         1 N1M1201     0.0000 
     13 H          12.9087  -24.6234   62.4913 H         1 N1M1201     0.0000 
     14 H          10.5329  -24.3625   62.8614 H         1 N1M1201     0.0000 
     15 H           8.9341  -25.5252   61.4808 H         1 N1M1201     0.0000 
     16 H           9.6598  -26.9730   59.6892 H         1 N1M1201     0.0000 
     17 H          16.6771  -25.4555   61.5691 H         1 N1M1201     0.0000 
     18 H          16.4583  -23.8784   61.3427 H         1 N1M1201     0.0000 
     19 H          15.6153  -24.6532   62.4719 H         1 N1M1201     0.0000 
@<TRIPOS>BOND
     1    4    1 1    
     2   10    2 am   
     3   11    2 1    
     4   12    2 1    
     5   10    3 2    
     6    5    4 ar   
     7    9    4 ar   
     8    6    5 ar   
     9   10    5 1    
    10    7    6 ar   
    11   13    6 1    
    12    8    7 ar   
    13   14    7 1    
    14    9    8 ar   
    15   15    8 1    
    16   16    9 1    
    17   17   11 1    
    18   18   11 1    
    19   19   11 1    
@<TRIPOS>SUBSTRUCTURE
     1 N1M1201     1 GROUP   
@<TRIPOS>SET

