#    Name: 4J3M_2_CAVITY_N1_6.mol2
#    Modification time : Tue Mar 11 07:09:02 2014

@<TRIPOS>MOLECULE
4J3M_2_CAVITY_N1_6.mol2
   99     0     7     0     0
SMALL
NO_CHARGES


@<TRIPOS>ATOM
      1 N          -8.1761   47.0011  -25.0549 N.2       2 ALA2        0.0000 
      2 CA         -9.4595   46.4188  -24.5413 C.3       6 GLY6        0.0000 
      3 CA         -9.0723   45.0788  -25.0932 C.3       6 GLY6        0.0000 
      4 N          -7.5031   46.6615  -23.7581 N.2       2 ALA2        0.0000 
      5 CZ         -8.7865   46.0792  -23.2445 C.ar      5 PHE5        0.0000 
      6 N          -5.8325   45.9039  -24.8235 N.2       2 ALA2        0.0000 
      7 N          -7.1159   45.3215  -24.3100 N.2       2 ALA2        0.0000 
      8 CA         -8.3993   44.7392  -23.7964 C.3       6 GLY6        0.0000 
      9 O          -6.7287   43.9816  -24.8618 O.2       2 ALA2        0.0000 
     10 CA         -8.0121   43.3992  -24.3482 C.3       6 GLY6        0.0000 
     11 CZ         -6.3415   42.6416  -25.4137 C.ar      5 PHE5        0.0000 
     12 CZ         -7.6250   42.0592  -24.9001 C.ar      5 PHE5        0.0000 
     13 CA         -8.9084   41.4769  -24.3865 C.3       6 GLY6        0.0000 
     14 CZ         -7.2378   40.7193  -25.4520 C.ar      5 PHE5        0.0000 
     15 CA         -8.5212   40.1369  -24.9384 C.3       6 GLY6        0.0000 
     16 CA         -6.8301   46.3219  -22.4613 C.3       6 GLY6        0.0000 
     17 CZ         -8.1135   45.7396  -21.9477 C.ar      5 PHE5        0.0000 
     18 N          -6.4429   44.9819  -23.0132 N.2       2 ALA2        0.0000 
     19 CA         -7.7263   44.3996  -22.4996 C.3       6 GLY6        0.0000 
     20 CZ         -6.0557   43.6420  -23.5650 C.ar      5 PHE5        0.0000 
     21 CA         -7.3391   43.0596  -23.0514 C.3       6 GLY6        0.0000 
     22 CA         -8.6225   42.4773  -22.5379 C.3       6 GLY6        0.0000 
     23 CZ         -6.9519   41.7196  -23.6033 C.ar      5 PHE5        0.0000 
     24 O          -8.2353   41.1373  -23.0897 O.2       2 ALA2        0.0000 
     25 CZ         -6.5647   40.3797  -24.1552 C.ar      5 PHE5        0.0000 
     26 CA         -7.8481   39.7973  -23.6416 C.3       6 GLY6        0.0000 
     27 CZ         -6.1776   39.0397  -24.7070 C.ar      5 PHE5        0.0000 
     28 O         -12.8394   49.0129  -16.9028 O.2       2 ALA2        0.0000 
     29 CA        -14.1228   48.4305  -16.3892 C.3       6 GLY6        0.0000 
     30 OG        -13.7356   47.0905  -16.9411 O.2       1 SER1        0.0000 
     31 OG        -15.0190   46.5082  -16.4275 O.2       1 SER1        0.0000 
     32 O          -6.1570   45.9823  -21.1645 O.2       2 ALA2        0.0000 
     33 CA         -7.4404   45.4000  -20.6509 C.3       6 GLY6        0.0000 
     34 CZ         -8.7238   44.8176  -20.1374 C.ar      5 PHE5        0.0000 
     35 N          -5.7699   44.6423  -21.7164 N.2       2 ALA2        0.0000 
     36 DU         -7.0533   44.0600  -21.2028 H         7 CUB7        0.0000 
     37 CA         -8.3367   43.4776  -20.6892 C.3       6 GLY6        0.0000 
     38 CZ         -9.6201   42.8953  -20.1756 C.ar      5 PHE5        0.0000 
     39 N          -4.0993   43.8847  -22.7818 N.2       2 ALA2        0.0000 
     40 CZ         -5.3827   43.3024  -22.2682 C.ar      5 PHE5        0.0000 
     41 DU         -6.6661   42.7200  -21.7546 H         7 CUB7        0.0000 
     42 CA         -7.9495   42.1377  -21.2411 C.3       6 GLY6        0.0000 
     43 CZ         -6.2789   41.3800  -22.3065 C.ar      5 PHE5        0.0000 
     44 CA         -7.5623   40.7977  -21.7929 C.3       6 GLY6        0.0000 
     45 CA         -8.8457   40.2153  -21.2794 C.3       6 GLY6        0.0000 
     46 CA        -13.8369   49.4309  -14.5406 C.3       6 GLY6        0.0000 
     47 CZ        -12.1664   48.6733  -15.6060 C.ar      5 PHE5        0.0000 
     48 NZ        -13.4498   48.0909  -15.0924 N.2       4 LYS4        0.0000 
     49 CA        -14.7332   47.5086  -14.5789 C.3       6 GLY6        0.0000 
     50 CZ        -11.7792   47.3333  -16.1579 C.ar      5 PHE5        0.0000 
     51 OG        -13.0626   46.7509  -15.6443 O.2       1 SER1        0.0000 
     52 OG        -14.3460   46.1686  -15.1307 O.2       1 SER1        0.0000 
     53 OD1       -15.6294   45.5862  -14.6171 O.3       3 ASP3        0.0000 
     54 OG        -11.3920   45.9933  -16.7097 O.2       1 SER1        0.0000 
     55 CZ         -8.4380   45.8180  -18.2887 C.ar      5 PHE5        0.0000 
     56 CZ         -9.7214   45.2357  -17.7751 C.ar      5 PHE5        0.0000 
     57 N          -5.4840   45.6427  -19.8677 N.2       2 ALA2        0.0000 
     58 CA         -6.7674   45.0604  -19.3541 C.3       6 GLY6        0.0000 
     59 CZ         -8.0508   44.4780  -18.8406 C.ar      5 PHE5        0.0000 
     60 CZ         -9.3342   43.8957  -18.3270 C.ar      5 PHE5        0.0000 
     61 N          -5.0968   44.3027  -20.4195 N.2       2 ALA2        0.0000 
     62 DU         -6.3802   43.7204  -19.9060 H         7 CUB7        0.0000 
     63 CZ         -7.6636   43.1380  -19.3924 C.ar      5 PHE5        0.0000 
     64 OG         -4.7096   42.9628  -20.9714 O.2       1 SER1        0.0000 
     65 OG         -5.9930   42.3804  -20.4578 O.2       1 SER1        0.0000 
     66 N          -7.2765   41.7981  -19.9443 N.2       2 ALA2        0.0000 
     67 CZ         -8.5599   41.2157  -19.4307 C.ar      5 PHE5        0.0000 
     68 CA         -6.8893   40.4581  -20.4961 C.3       6 GLY6        0.0000 
     69 NZ        -14.0601   47.1690  -13.2821 N.2       4 LYS4        0.0000 
     70 NZ        -15.3435   46.5866  -12.7685 N.2       4 LYS4        0.0000 
     71 NZ        -11.1061   46.9937  -14.8610 N.2       4 LYS4        0.0000 
     72 NZ        -13.6730   45.8290  -13.8339 N.2       4 LYS4        0.0000 
     73 CZ         -9.4356   46.2360  -15.9265 C.ar      5 PHE5        0.0000 
     74 OG        -10.7190   45.6537  -15.4129 O.2       1 SER1        0.0000 
     75 CA         -6.4816   46.0607  -17.5055 C.3       6 GLY6        0.0000 
     76 CA         -7.7650   45.4784  -16.9919 C.3       6 GLY6        0.0000 
     77 CA         -9.0484   44.8961  -16.4783 C.3       6 GLY6        0.0000 
     78 CZ        -10.3318   44.3137  -15.9648 C.ar      5 PHE5        0.0000 
     79 O          -4.8110   45.3031  -18.5709 O.2       2 ALA2        0.0000 
     80 O          -6.0944   44.7208  -18.0573 O.2       2 ALA2        0.0000 
     81 CA         -7.3778   44.1384  -17.5438 C.3       6 GLY6        0.0000 
     82 CZ         -8.6612   43.5561  -17.0302 C.ar      5 PHE5        0.0000 
     83 N          -4.4238   43.9631  -19.1227 N.2       2 ALA2        0.0000 
     84 N          -5.7072   43.3808  -18.6092 N.2       2 ALA2        0.0000 
     85 N          -6.9906   42.7984  -18.0956 N.2       2 ALA2        0.0000 
     86 CZ         -8.2740   42.2161  -17.5820 C.ar      5 PHE5        0.0000 
     87 N          -5.3200   42.0408  -19.1610 N.2       2 ALA2        0.0000 
     88 NZ        -10.0459   45.3141  -14.1161 N.2       4 LYS4        0.0000 
     89 CA         -8.3754   44.5565  -15.1815 C.3       6 GLY6        0.0000 
     90 CZ         -9.6588   43.9741  -14.6680 C.ar      5 PHE5        0.0000 
     91 N          -6.7048   43.7988  -16.2469 N.2       2 ALA2        0.0000 
     92 CZ         -7.9882   43.2165  -15.7334 C.ar      5 PHE5        0.0000 
     93 N          -6.3176   42.4588  -16.7988 N.2       2 ALA2        0.0000 
     94 N          -7.6010   41.8765  -16.2852 N.2       2 ALA2        0.0000 
     95 CA         -8.0895   45.5568  -13.3329 C.3       6 GLY6        0.0000 
     96 N          -7.7023   44.2169  -13.8847 N.2       2 ALA2        0.0000 
     97 CA         -8.9857   43.6345  -13.3711 C.3       6 GLY6        0.0000 
     98 N          -7.3151   42.8769  -14.4366 N.2       2 ALA2        0.0000 
     99 CZ         -8.5985   42.2945  -13.9230 C.ar      5 PHE5        0.0000 
@<TRIPOS>BOND
@<TRIPOS>SUBSTRUCTURE
     1 SER1       30 GROUP   
     2 ALA2        1 GROUP   
     3 ASP3       53 GROUP   
     4 LYS4       48 GROUP   
     5 PHE5        5 GROUP   
     6 GLY6        2 GROUP   
     7 CUB7       36 GROUP   
@<TRIPOS>SET

