#    Name: 4j3m_AJ8_2_INTS_M
#    Modification time : Tue Mar 25 05:20:46 2014

@<TRIPOS>MOLECULE
4j3m_AJ8_2_INTS_M
   51     0     9     0     0
SMALL
NO_CHARGES


@<TRIPOS>ATOM
      1 CA         -7.0870   46.5050  -22.1955 C.3       3 GLC5        0.0000 
      2 CA         -6.7500   44.4000  -22.8090 C.3       9 GLL5        0.0000 
      3 CA         -7.4240   48.6100  -21.5820 C.3       6 GLP5        0.0000 
      4 CA         -9.9250   43.8695  -20.6990 C.3       3 GLC5        0.0000 
      5 CA         -8.6770   44.5250  -18.9920 C.3       9 GLL5        0.0000 
      6 CA        -11.1730   43.2140  -22.4060 C.3       6 GLP5        0.0000 
      7 CA        -11.0220   43.6685  -15.3045 C.3       3 GLC5        0.0000 
      8 CA         -9.9600   45.1150  -14.8200 C.3       9 GLL5        0.0000 
      9 CA        -12.0840   42.2220  -15.7890 C.3       6 GLP5        0.0000 
     10 CA         -8.5985   41.2025  -13.3785 C.3       3 GLC5        0.0000 
     11 CA         -8.3470   43.2130  -14.3300 C.3       9 GLL5        0.0000 
     12 CA         -8.8500   39.1920  -12.4270 C.3       6 GLP5        0.0000 
     13 N          -6.0375   40.3380  -14.2570 N.am      2 SEC2        0.0000 
     14 N          -6.8390   41.4610  -13.9190 N.am      8 SEL2        0.0000 
     15 N          -5.2360   39.2150  -14.5950 N.am      5 SEP2        0.0000 
     16 N          -6.9310   40.9135  -12.6700 N.am      2 SEC2        0.0000 
     17 N          -7.0230   40.3660  -11.4210 N.am      5 SEP2        0.0000 
     18 O          -6.5895   40.9000  -16.5550 O.2       1 ALC1        0.0000 
     19 O          -7.1070   42.0300  -16.0190 O.2       7 ALL1        0.0000 
     20 O          -6.0720   39.7700  -17.0910 O.2       4 ALP1        0.0000 
     21 CA         -7.5640   46.2965  -20.8905 C.3       3 GLC5        0.0000 
     22 CA         -7.0010   44.4870  -21.4430 C.3       9 GLL5        0.0000 
     23 CA         -8.1270   48.1060  -20.3380 C.3       6 GLP5        0.0000 
     24 N          -4.5615   43.9605  -25.6695 N.am      2 SEC2        0.0000 
     25 N          -6.0820   43.7870  -25.5790 N.am      8 SEL2        0.0000 
     26 N          -3.0410   44.1340  -25.7600 N.am      5 SEP2        0.0000 
     27 CA         -6.9360   39.8435  -22.4045 C.3       3 GLC5        0.0000 
     28 CA         -7.3720   41.9840  -22.8080 C.3       9 GLL5        0.0000 
     29 CA         -6.5000   37.7030  -22.0010 C.3       6 GLP5        0.0000 
     30 CA         -6.6850   39.4005  -19.9680 C.3       3 GLC5        0.0000 
     31 CA         -8.1480   40.6210  -20.6760 C.3       9 GLL5        0.0000 
     32 CA         -5.2220   38.1800  -19.2600 C.3       6 GLP5        0.0000 
     33 CA         -7.3240   39.1620  -21.3385 C.3       3 GLC5        0.0000 
     34 CA         -8.8635   40.1950  -19.0025 C.3       3 GLC5        0.0000 
     35 CA         -9.5790   39.7690  -17.3290 C.3       6 GLP5        0.0000 
     36 CA         -9.2405   39.3720  -21.6050 C.3       3 GLC5        0.0000 
     37 CA        -10.3330   38.1230  -22.5340 C.3       6 GLP5        0.0000 
     38 CA         -9.6605   41.9175  -21.5410 C.3       3 GLC5        0.0000 
     39 CA         -8.4917   46.3638  -19.3410 C.3       3 GLC5        0.0000 
     40 CA         -7.8978   45.6270  -16.1490 C.3       3 GLC5        0.0000 
     41 CA         -9.0360   44.7180  -17.6960 C.3       9 GLL5        0.0000 
     42 CA         -7.0090   46.9560  -15.1140 C.3       6 GLP5        0.0000 
     43 CA         -9.8870   42.4015  -15.3580 C.3       3 GLC5        0.0000 
     44 CA         -8.9230   44.0210  -15.2660 C.3       9 GLL5        0.0000 
     45 CA        -11.1390   41.1860  -15.9180 C.3       6 GLP5        0.0000 
     46 CA         -7.9516   45.4233  -14.9003 C.3       3 GLC5        0.0000 
     47 CA         -8.8854   43.9864  -23.1843 C.3       3 GLC5        0.0000 
     48 CA        -10.8590   44.1720  -23.5740 C.3       6 GLP5        0.0000 
     49 CA         -9.3063   42.7776  -22.1829 C.3       3 GLC5        0.0000 
     50 CA         -8.7776   41.5396  -17.2516 C.3       3 GLC5        0.0000 
     51 CA         -7.6100   42.8520  -17.0070 C.3       9 GLL5        0.0000 
@<TRIPOS>BOND
@<TRIPOS>SUBSTRUCTURE
     1 ALC1       18 GROUP        1 X    ALC  0     ROOT ALC X 1
     2 SEC2       13 GROUP        1 X    SEC  0     **** SEC X 2
     3 GLC5        1 GROUP        1 X    GLC  0     **** GLC X 6
     4 ALP1       20 GROUP        1 Y    ALP  0     ROOT ALP Y 8
     5 SEP2       15 GROUP        1 Y    SEP  0     **** SEP Y 9
     6 GLP5        3 GROUP        1 Y    GLP  0     **** GLP Y 13
     7 ALL1       19 GROUP        1 Z    ALL  0     ROOT ALL Z 15
     8 SEL2       14 GROUP        1 Z    SEL  0     **** SEL Z 16
     9 GLL5        2 GROUP        1 Z    GLL  0     **** GLL Z 20
@<TRIPOS>SET

