#    Name: 4j3m_AJ8_2_ligand
#    Modification time : Tue Mar 25 05:20:46 2014

@<TRIPOS>MOLECULE
4j3m_AJ8_2_ligand
   33    35     1     0     0
SMALL
NO_CHARGES


@<TRIPOS>ATOM
      1 C4         -7.4090   42.1920  -14.7390 C.2       1 AJ81204     0.0000 
      2 C8         -7.6100   42.8520  -17.0070 C.ar      1 AJ81204     0.0000 
      3 C10        -7.7440   43.4620  -19.3200 C.ar      1 AJ81204     0.0000 
      4 C13        -6.7500   44.4000  -22.8090 C.ar      1 AJ81204     0.0000 
      5 C15        -6.6880   43.0390  -24.9080 C.2       1 AJ81204     0.0000 
      6 C21        -8.6770   44.5250  -18.9920 C.ar      1 AJ81204     0.0000 
      7 C22        -9.0360   44.7180  -17.6960 C.ar      1 AJ81204     0.0000 
      8 C1         -9.9600   45.1150  -14.8200 C.3       1 AJ81204     0.0000 
      9 C2         -8.9230   44.0210  -15.2660 C.2       1 AJ81204     0.0000 
     10 C3         -8.3470   43.2130  -14.3300 C.2       1 AJ81204     0.0000 
     11 O5         -6.8390   41.4610  -13.9190 O.2       1 AJ81204     0.0000 
     12 N6         -7.1070   42.0300  -16.0190 N.am      1 AJ81204     0.0000 
     13 C9         -7.2210   42.6330  -18.3460 C.ar      1 AJ81204     0.0000 
     14 C11        -7.4180   43.3210  -20.7710 C.ar      1 AJ81204     0.0000 
     15 C12        -7.0010   44.4870  -21.4430 C.ar      1 AJ81204     0.0000 
     16 C14        -6.9480   43.1580  -23.4630 C.ar      1 AJ81204     0.0000 
     17 O16        -6.0820   43.7870  -25.5790 O.co2     1 AJ81204     0.0000 
     18 O17        -7.1870   42.0640  -25.5980 O.co2     1 AJ81204     0.0000 
     19 C18        -7.3720   41.9840  -22.8080 C.ar      1 AJ81204     0.0000 
     20 C19        -7.5960   42.0760  -21.4520 C.ar      1 AJ81204     0.0000 
     21 CL         -8.1480   40.6210  -20.6760 Cl        1 AJ81204     0.0000 
     22 C23        -8.5370   43.8780  -16.6720 C.ar      1 AJ81204     0.0000 
     23 H          -6.4303   45.2053  -23.3387 H         1 AJ81204     0.0000 
     24 H          -9.0349   45.0971  -19.7559 H         1 AJ81204     0.0000 
     25 H          -9.6815   45.4825  -17.4285 H         1 AJ81204     0.0000 
     26 H          -8.5545   43.3005  -13.3317 H         1 AJ81204     0.0000 
     27 H          -6.4592   41.2495  -16.3183 H         1 AJ81204     0.0000 
     28 H          -6.5758   41.8854  -18.5725 H         1 AJ81204     0.0000 
     29 H          -6.8898   45.3574  -20.9403 H         1 AJ81204     0.0000 
     30 H          -7.5002   41.1285  -23.3196 H         1 AJ81204     0.0000 
     31 H          -9.5572   45.7697  -14.1804 H         1 AJ81204     0.0000 
     32 H         -10.3043   45.6397  -15.5986 H         1 AJ81204     0.0000 
     33 H         -10.7535   44.7110  -14.3649 H         1 AJ81204     0.0000 
@<TRIPOS>BOND
     1   10    1 1    
     2   11    1 2    
     3   12    1 am   
     4   12    2 1    
     5   13    2 ar   
     6   22    2 ar   
     7    6    3 ar   
     8   13    3 ar   
     9   14    3 1    
    10   15    4 ar   
    11   16    4 ar   
    12   23    4 1    
    13   16    5 1    
    14   17    5 ar   
    15   18    5 ar   
    16    7    6 ar   
    17   24    6 1    
    18   22    7 ar   
    19   25    7 1    
    20    9    8 1    
    21   31    8 1    
    22   32    8 1    
    23   33    8 1    
    24   10    9 2    
    25   22    9 1    
    26   26   10 1    
    27   27   12 1    
    28   28   13 1    
    29   15   14 ar   
    30   20   14 ar   
    31   29   15 1    
    32   19   16 ar   
    33   20   19 ar   
    34   30   19 1    
    35   21   20 1    
@<TRIPOS>SUBSTRUCTURE
     1 AJ81204     1 GROUP   
@<TRIPOS>SET

