#    Name: 3gmd_2M3_3_INTS_M
#    Modification time : Tue Mar 25 12:38:44 2014

@<TRIPOS>MOLECULE
3gmd_2M3_3_INTS_M
   70     0     9     0     0
SMALL
NO_CHARGES


@<TRIPOS>ATOM
      1 CA         66.9525  -11.0080   51.8055 C.3       3 GLC5        0.0000 
      2 CA         66.4490  -12.6680   50.7750 C.3       9 GLL5        0.0000 
      3 CA         67.4560   -9.3480   52.8360 C.3       6 GLP5        0.0000 
      4 CA         67.6775  -13.9410   51.0645 C.3       3 GLC5        0.0000 
      5 CA         68.9060  -15.2140   51.3540 C.3       6 GLP5        0.0000 
      6 CA         64.6455  -13.2520   53.9245 C.3       3 GLC5        0.0000 
      7 CA         64.9630  -13.8720   52.1350 C.3       9 GLL5        0.0000 
      8 CA         64.3280  -12.6320   55.7140 C.3       6 GLP5        0.0000 
      9 CA         66.9345  -14.5430   51.7445 C.3       3 GLC5        0.0000 
     10 CA         65.0585  -15.1935   50.4560 C.3       3 GLC5        0.0000 
     11 CA         65.1540  -16.5150   48.7770 C.3       6 GLP5        0.0000 
     12 CA         64.6730  -16.0050   52.3160 C.3       3 GLC5        0.0000 
     13 CA         64.3830  -18.1380   52.4970 C.3       6 GLP5        0.0000 
     14 CA         62.7095  -15.1660   49.0135 C.3       3 GLC5        0.0000 
     15 CA         60.9630  -14.8680   50.1100 C.3       9 GLL5        0.0000 
     16 CA         64.4560  -15.4640   47.9170 C.3       6 GLP5        0.0000 
     17 CA         60.7575  -10.9480   51.8620 C.3       3 GLC5        0.0000 
     18 CA         60.7050  -12.6840   51.0520 C.3       9 GLL5        0.0000 
     19 CA         60.8100   -9.2120   52.6720 C.3       6 GLP5        0.0000 
     20 CA         60.7230  -11.7045   49.0645 C.3       3 GLC5        0.0000 
     21 CA         60.7410  -10.7250   47.0770 C.3       6 GLP5        0.0000 
     22 CA         56.7295  -14.1520   53.8755 C.3       3 GLC5        0.0000 
     23 CA         55.5490  -14.4850   52.0150 C.3       9 GLL5        0.0000 
     24 CA         57.9100  -13.8190   55.7360 C.3       6 GLP5        0.0000 
     25 CA         55.9315  -11.4245   51.9485 C.3       3 GLC5        0.0000 
     26 CA         56.3250  -13.5030   51.3850 C.3       9 GLL5        0.0000 
     27 CA         55.5380   -9.3460   52.5120 C.3       6 GLP5        0.0000 
     28 O          64.7105  -15.0720   54.3965 O.2       1 ALC1        0.0000 
     29 O          64.4350  -14.6420   53.1230 O.2       7 ALL1        0.0000 
     30 O          64.9860  -15.5020   55.6700 O.2       4 ALP1        0.0000 
     31 CA         62.5720  -14.1135   55.0580 C.3       3 GLC5        0.0000 
     32 CA         62.2840  -15.6070   53.9570 C.3       9 GLL5        0.0000 
     33 CA         62.8600  -12.6200   56.1590 C.3       6 GLP5        0.0000 
     34 CA         62.9865  -16.1520   55.8865 C.3       3 GLC5        0.0000 
     35 CA         63.6890  -16.6970   57.8160 C.3       6 GLP5        0.0000 
     36 CA         60.7960  -16.2445   54.4450 C.3       3 GLC5        0.0000 
     37 CA         59.3080  -16.8820   54.9330 C.3       6 GLP5        0.0000 
     38 N          58.0140   -9.7720   50.2210 N.am      2 SEC2        0.0000 
     39 N          58.4790  -10.9480   50.6780 N.am      8 SEL2        0.0000 
     40 N          57.5490   -8.5960   49.7640 N.am      5 SEP2        0.0000 
     41 N          59.7570  -10.0815   50.9955 N.am      2 SEC2        0.0000 
     42 N          61.0350   -9.2150   51.3130 N.am      5 SEP2        0.0000 
     43 CA         55.0700  -10.2260   48.0255 C.3       3 GLC5        0.0000 
     44 CA         56.5010  -11.3120   48.4030 C.3       9 GLL5        0.0000 
     45 CA         53.6390   -9.1400   47.6480 C.3       6 GLP5        0.0000 
     46 CA         54.5305  -11.1965   49.4335 C.3       3 GLC5        0.0000 
     47 CA         52.5600  -11.0810   50.4640 C.3       6 GLP5        0.0000 
     48 CA         58.3505  -10.3845   47.8870 C.3       3 GLC5        0.0000 
     49 CA         60.2000   -9.4570   47.3710 C.3       6 GLP5        0.0000 
     50 CA         58.1100  -13.1580   46.1785 C.3       3 GLC5        0.0000 
     51 CA         57.2200  -12.3390   47.7160 C.3       9 GLL5        0.0000 
     52 CA         59.0000  -13.9770   44.6410 C.3       6 GLP5        0.0000 
     53 CA         65.1675  -13.9592   49.1090 C.3       3 GLC5        0.0000 
     54 CA         65.3090  -12.2410   49.8270 C.3       9 GLL5        0.0000 
     55 CA         64.1755  -14.2737   49.2963 C.3       3 GLC5        0.0000 
     56 CA         64.0060  -12.6760   50.1050 C.3       9 GLL5        0.0000 
     57 CA         63.6060  -13.5490   54.0750 C.3       3 GLC5        0.0000 
     58 CA         62.6400  -14.1380   51.8860 C.3       9 GLL5        0.0000 
     59 CA         60.3100  -15.4128   48.0467 C.3       3 GLC5        0.0000 
     60 CA         60.3230  -16.2570   46.2270 C.3       6 GLP5        0.0000 
     61 CA         60.3595  -16.6097   49.8498 C.3       3 GLC5        0.0000 
     62 CA         59.6310  -14.2690   49.6230 C.3       9 GLL5        0.0000 
     63 CA         60.4220  -18.6510   49.8330 C.3       6 GLP5        0.0000 
     64 CA         58.9688  -11.5437   47.7733 C.3       3 GLC5        0.0000 
     65 CA         57.1730  -12.3860   49.2230 C.3       9 GLL5        0.0000 
     66 CA         63.4835  -16.5873   52.8468 C.3       3 GLC5        0.0000 
     67 CA         54.0503  -14.0673   52.4390 C.3       3 GLC5        0.0000 
     68 CA         52.7550  -13.4280   53.4470 C.3       6 GLP5        0.0000 
     69 CA         56.8457  -11.3498   46.1852 C.3       3 GLC5        0.0000 
     70 CA         56.8310  -10.8740   44.3110 C.3       6 GLP5        0.0000 
@<TRIPOS>BOND
@<TRIPOS>SUBSTRUCTURE
     1 ALC1       28 GROUP        1 X    ALC  0     ROOT ALC X 1
     2 SEC2       38 GROUP        1 X    SEC  0     **** SEC X 2
     3 GLC5        1 GROUP        1 X    GLC  0     **** GLC X 6
     4 ALP1       30 GROUP        1 Y    ALP  0     ROOT ALP Y 8
     5 SEP2       40 GROUP        1 Y    SEP  0     **** SEP Y 9
     6 GLP5        3 GROUP        1 Y    GLP  0     **** GLP Y 13
     7 ALL1       29 GROUP        1 Z    ALL  0     ROOT ALL Z 15
     8 SEL2       39 GROUP        1 Z    SEL  0     **** SEL Z 16
     9 GLL5        2 GROUP        1 Z    GLL  0     **** GLL Z 20
@<TRIPOS>SET

