#    Name: 3gmd_2M3_3_ligand
#    Modification time : Tue Mar 25 12:38:44 2014

@<TRIPOS>MOLECULE
3gmd_2M3_3_ligand
   48    52     1     0     0
SMALL
NO_CHARGES


@<TRIPOS>ATOM
      1 C1         65.3090  -12.2410   49.8270 C.ar      1 2M34        0.0000 
      2 C2         66.4490  -12.6680   50.7750 C.ar      1 2M34        0.0000 
      3 C4         64.0060  -12.6760   50.1050 C.ar      1 2M34        0.0000 
      4 C5         63.7840  -13.4910   51.2460 C.ar      1 2M34        0.0000 
      5 C6         64.9630  -13.8720   52.1350 C.ar      1 2M34        0.0000 
      6 C8         63.1280  -14.7940   52.9860 C.2       1 2M34        0.0000 
      7 C11        61.1850  -14.1090   51.4430 C.3       1 2M34        0.0000 
      8 C12        60.9630  -14.8680   50.1100 C.3       1 2M34        0.0000 
      9 C15        60.7050  -12.6840   51.0520 C.3       1 2M34        0.0000 
     10 C16        58.4420  -12.0350   50.1030 C.2       1 2M34        0.0000 
     11 C17        57.1730  -12.3860   49.2230 C.3       1 2M34        0.0000 
     12 C19        56.3290  -13.4340   49.9650 C.ar      1 2M34        0.0000 
     13 C21        54.8180  -15.2660   49.7710 C.ar      1 2M34        0.0000 
     14 C23        55.5490  -14.4850   52.0150 C.ar      1 2M34        0.0000 
     15 C24        56.3250  -13.5030   51.3850 C.ar      1 2M34        0.0000 
     16 N3         66.1990  -13.4380   51.8410 N.ar      1 2M34        0.0000 
     17 N7         64.4350  -14.6420   53.1230 N.pl3     1 2M34        0.0000 
     18 C9         62.6400  -14.1380   51.8860 C.2       1 2M34        0.0000 
     19 C10        62.2840  -15.6070   53.9570 C.3       1 2M34        0.0000 
     20 C13        59.6310  -14.2690   49.6230 C.3       1 2M34        0.0000 
     21 N14        59.4940  -12.9220   50.2410 N.am      1 2M34        0.0000 
     22 O18        58.4790  -10.9480   50.6780 O.2       1 2M34        0.0000 
     23 N20        55.5890  -14.3000   49.2360 N.ar      1 2M34        0.0000 
     24 C22        54.7540  -15.4190   51.1620 C.ar      1 2M34        0.0000 
     25 C25        56.5010  -11.3120   48.4030 C.3       1 2M34        0.0000 
     26 C26        57.2200  -12.3390   47.7160 C.3       1 2M34        0.0000 
     27 H          65.5585  -11.6698   49.0541 H         1 2M34        0.0000 
     28 H          67.3694  -12.3148   50.5109 H         1 2M34        0.0000 
     29 H          63.2297  -12.4176   49.5066 H         1 2M34        0.0000 
     30 H          60.5278  -14.4971   52.1609 H         1 2M34        0.0000 
     31 H          60.8446  -15.8920   50.3053 H         1 2M34        0.0000 
     32 H          61.7310  -14.6267   49.4372 H         1 2M34        0.0000 
     33 H          61.4722  -12.2172   50.4798 H         1 2M34        0.0000 
     34 H          60.4778  -12.1501   51.9449 H         1 2M34        0.0000 
     35 H          54.2650  -15.9060   49.1768 H         1 2M34        0.0000 
     36 H          55.5001  -14.5926   53.0067 H         1 2M34        0.0000 
     37 H          56.8785  -12.8472   51.9255 H         1 2M34        0.0000 
     38 H          64.9815  -15.0342   53.8515 H         1 2M34        0.0000 
     39 H          58.8272  -14.9159   49.9360 H         1 2M34        0.0000 
     40 H          59.6592  -14.1943   48.5478 H         1 2M34        0.0000 
     41 H          54.2046  -16.1199   51.6125 H         1 2M34        0.0000 
     42 H          57.0312  -10.5136   48.4760 H         1 2M34        0.0000 
     43 H          55.5573  -11.4943   48.3995 H         1 2M34        0.0000 
     44 H          56.6202  -13.0124   47.3832 H         1 2M34        0.0000 
     45 H          58.0941  -12.0317   47.4597 H         1 2M34        0.0000 
     46 H          62.5817  -16.5607   53.9993 H         1 2M34        0.0000 
     47 H          62.3337  -15.2430   54.8871 H         1 2M34        0.0000 
     48 H          61.3188  -15.6125   53.6955 H         1 2M34        0.0000 
@<TRIPOS>BOND
     1    2    1 ar   
     2    3    1 ar   
     3   27    1 1    
     4   16    2 ar   
     5   28    2 1    
     6    4    3 ar   
     7   29    3 1    
     8    5    4 ar   
     9   18    4 1    
    10   16    5 ar   
    11   17    5 1    
    12   17    6 1    
    13   18    6 2    
    14   19    6 1    
    15    8    7 1    
    16    9    7 1    
    17   18    7 1    
    18   30    7 1    
    19   20    8 1    
    20   31    8 1    
    21   32    8 1    
    22   21    9 1    
    23   33    9 1    
    24   34    9 1    
    25   11   10 1    
    26   21   10 am   
    27   22   10 2    
    28   12   11 1    
    29   25   11 1    
    30   26   11 1    
    31   15   12 ar   
    32   23   12 ar   
    33   23   13 ar   
    34   24   13 ar   
    35   35   13 1    
    36   15   14 ar   
    37   24   14 ar   
    38   36   14 1    
    39   37   15 1    
    40   38   17 1    
    41   46   19 1    
    42   47   19 1    
    43   48   19 1    
    44   21   20 1    
    45   39   20 1    
    46   40   20 1    
    47   41   24 1    
    48   26   25 1    
    49   42   25 1    
    50   43   25 1    
    51   44   26 1    
    52   45   26 1    
@<TRIPOS>SUBSTRUCTURE
     1 2M34        1 GROUP   
@<TRIPOS>SET

