#    Name: 2xe7_ADP_1_INTS_M
#    Modification time : Tue Mar 25 05:55:07 2014

@<TRIPOS>MOLECULE
2xe7_ADP_1_INTS_M
   65     0    12     0     0
SMALL
NO_CHARGES


@<TRIPOS>ATOM
      1 N          -6.7940  -18.8550  -20.7065 N.am      2 SEC2        0.0000 
      2 N          -6.5400  -19.9620  -19.8500 N.am     10 SEL2        0.0000 
      3 N          -7.0480  -17.7480  -21.5630 N.am      6 SEP2        0.0000 
      4 N          -6.8270  -18.6630  -19.3720 N.am      2 SEC2        0.0000 
      5 N          -7.1140  -17.3640  -18.8940 N.am      6 SEP2        0.0000 
      6 N          -5.6925  -20.9620  -21.9360 N.am      2 SEC2        0.0000 
      7 N          -5.5610  -21.9860  -21.1390 N.am     10 SEL2        0.0000 
      8 N          -5.8240  -19.9380  -22.7330 N.am      6 SEP2        0.0000 
      9 NZ         -6.3230  -23.8680  -16.2940 N.4       3 LYC4        0.0000 
     10 NZ         -7.1560  -24.3010  -17.9120 N.4      11 LYL4        0.0000 
     11 NZ         -5.4900  -23.4350  -14.6760 N.4       7 LYP4        0.0000 
     12 N          -8.7570  -24.7985  -17.4780 N.am      2 SEC2        0.0000 
     13 N          -7.1560  -24.3010  -17.9120 N.am     10 SEL2        0.0000 
     14 N         -10.3580  -25.2960  -17.0440 N.am      6 SEP2        0.0000 
     15 N          -9.6455  -24.7745  -18.3530 N.am      2 SEC2        0.0000 
     16 N          -8.9330  -24.2530  -19.6620 N.am     10 SEL2        0.0000 
     17 CA        -10.0215  -21.6835  -19.6880 C.3       4 GLC5        0.0000 
     18 CA         -9.8560  -23.4310  -20.3850 C.3      12 GLL5        0.0000 
     19 CA        -10.1870  -19.9360  -18.9910 C.3       8 GLP5        0.0000 
     20 CA         -9.0065  -22.0570  -21.4690 C.3       4 GLC5        0.0000 
     21 CA         -8.1570  -20.6830  -22.5530 C.3       8 GLP5        0.0000 
     22 CA        -11.1175  -25.8575  -19.2895 C.3       4 GLC5        0.0000 
     23 CA        -11.0190  -24.3330  -20.8530 C.3      12 GLL5        0.0000 
     24 CA        -11.2160  -27.3820  -17.7260 C.3       8 GLP5        0.0000 
     25 CA        -12.0230  -21.8410  -22.7340 C.3       4 GLC5        0.0000 
     26 CA        -11.8670  -23.7990  -21.9960 C.3      12 GLL5        0.0000 
     27 CA        -12.1790  -19.8830  -23.4720 C.3       8 GLP5        0.0000 
     28 O         -12.8635  -23.9200  -23.6660 O.2       1 ALC1        0.0000 
     29 O         -11.7650  -24.7240  -23.0910 O.2       9 ALL1        0.0000 
     30 O         -13.9620  -23.1160  -24.2410 O.2       5 ALP1        0.0000 
     31 CA        -15.1205  -22.9380  -21.3995 C.3       4 GLC5        0.0000 
     32 CA        -13.2820  -23.7200  -21.4170 C.3      12 GLL5        0.0000 
     33 CA        -16.9590  -22.1560  -21.3820 C.3       8 GLP5        0.0000 
     34 CA        -13.2835  -21.6040  -22.1360 C.3       4 GLC5        0.0000 
     35 CA        -13.2850  -19.4880  -22.8550 C.3       8 GLP5        0.0000 
     36 O         -14.1355  -23.5810  -23.2980 O.2       1 ALC1        0.0000 
     37 O         -14.3090  -24.0460  -22.3550 O.2       9 ALL1        0.0000 
     38 CA        -12.2275  -26.0465  -18.9960 C.3       4 GLC5        0.0000 
     39 CA        -13.2390  -24.7110  -20.2660 C.3      12 GLL5        0.0000 
     40 CA        -15.4025  -24.5890  -20.5200 C.3       4 GLC5        0.0000 
     41 CA        -17.5660  -24.4670  -20.7740 C.3       8 GLP5        0.0000 
     42 CA        -15.2580  -23.5380  -15.7585 C.3       4 GLC5        0.0000 
     43 CA        -15.7870  -24.6760  -17.6020 C.3      12 GLL5        0.0000 
     44 CA        -14.7290  -22.4000  -13.9150 C.3       8 GLP5        0.0000 
     45 CA        -16.3585  -22.5945  -17.7845 C.3       4 GLC5        0.0000 
     46 CA        -16.9300  -20.5130  -17.9670 C.3       8 GLP5        0.0000 
     47 CA        -18.8650  -24.9305  -17.3135 C.3       4 GLC5        0.0000 
     48 CA        -16.8610  -25.4560  -16.9410 C.3      12 GLL5        0.0000 
     49 CA        -20.8690  -24.4050  -17.6860 C.3       8 GLP5        0.0000 
     50 O         -18.9460  -25.5520  -15.8335 O.2       1 ALC1        0.0000 
     51 O         -17.5830  -24.9240  -15.9060 O.2       9 ALL1        0.0000 
     52 O         -20.3090  -26.1800  -15.7610 O.2       5 ALP1        0.0000 
     53 CA        -15.2600  -28.3480  -17.4595 C.3       4 GLC5        0.0000 
     54 CA        -16.3520  -27.2750  -18.3760 C.3      12 GLL5        0.0000 
     55 CA        -14.1680  -29.4210  -16.5430 C.3       8 GLP5        0.0000 
     56 CA        -18.2615  -27.1770  -18.8155 C.3       4 GLC5        0.0000 
     57 CA        -20.1710  -27.0790  -19.2550 C.3       8 GLP5        0.0000 
     58 CA        -16.9590  -25.8710  -19.5750 C.3       4 GLC5        0.0000 
     59 CA        -13.1410  -26.3640  -18.2140 C.3       4 GLC5        0.0000 
     60 CA        -15.0660  -25.3460  -18.7020 C.3      12 GLL5        0.0000 
     61 CA        -10.5467  -23.4230  -18.6930 C.3       4 GLC5        0.0000 
     62 CA        -10.6560  -22.9640  -16.7670 C.3       8 GLP5        0.0000 
     63 CA        -15.4355  -25.5725  -15.7372 C.3       4 GLC5        0.0000 
     64 CA        -14.5470  -26.0790  -14.2030 C.3       8 GLP5        0.0000 
     65 CA        -16.6305  -24.8365  -19.3804 C.3       4 GLC5        0.0000 
@<TRIPOS>BOND
@<TRIPOS>SUBSTRUCTURE
     1 ALC1       28 GROUP        1 X    ALC  0     ROOT ALC X 1
     2 SEC2        1 GROUP        1 X    SEC  0     **** SEC X 2
     3 LYC4        9 GROUP        1 X    LYC  0     **** LYC X 4
     4 GLC5       17 GROUP        1 X    GLC  0     **** GLC X 6
     5 ALP1       30 GROUP        1 Y    ALP  0     ROOT ALP Y 8
     6 SEP2        3 GROUP        1 Y    SEP  0     **** SEP Y 9
     7 LYP4       11 GROUP        1 Y    LYP  0     **** LYP Y 11
     8 GLP5       19 GROUP        1 Y    GLP  0     **** GLP Y 13
     9 ALL1       29 GROUP        1 Z    ALL  0     ROOT ALL Z 15
    10 SEL2        2 GROUP        1 Z    SEL  0     **** SEL Z 16
    11 LYL4       10 GROUP        1 Z    LYL  0     **** LYL Z 18
    12 GLL5       18 GROUP        1 Z    GLL  0     **** GLL Z 20
@<TRIPOS>SET

