#    Name: 2xe7_ADP_1_ligand
#    Modification time : Tue Mar 25 05:55:07 2014

@<TRIPOS>MOLECULE
2xe7_ADP_1_ligand
   39    41     1     0     0
SMALL
NO_CHARGES


@<TRIPOS>ATOM
      1 PB         -6.0230  -21.3840  -19.8000 P.3       1 ADP1418     0.0000 
      2 O1B        -6.5400  -19.9620  -19.8500 O.co2     1 ADP1418     0.0000 
      3 O2B        -4.9620  -21.5820  -18.7510 O.co2     1 ADP1418     0.0000 
      4 O3B        -5.5610  -21.9860  -21.1390 O.co2     1 ADP1418     0.0000 
      5 PA         -7.3920  -23.8490  -19.3260 P.3       1 ADP1418     0.0000 
      6 O1A        -6.4640  -24.3220  -20.4720 O.co2     1 ADP1418     0.0000 
      7 O2A        -7.1560  -24.3010  -17.9120 O.co2     1 ADP1418     0.0000 
      8 O3A        -7.3380  -22.2280  -19.3140 O.3       1 ADP1418     0.0000 
      9 O5'        -8.9330  -24.2530  -19.6620 O.3       1 ADP1418     0.0000 
     10 C5'        -9.8560  -23.4310  -20.3850 C.3       1 ADP1418     0.0000 
     11 C4'       -11.0190  -24.3330  -20.8530 C.3       1 ADP1418     0.0000 
     12 O4'       -11.9280  -24.5390  -19.7650 O.3       1 ADP1418     0.0000 
     13 C3'       -11.8670  -23.7990  -21.9960 C.3       1 ADP1418     0.0000 
     14 O3'       -11.7650  -24.7240  -23.0910 O.3       1 ADP1418     0.0000 
     15 C2'       -13.2820  -23.7200  -21.4170 C.3       1 ADP1418     0.0000 
     16 O2'       -14.3090  -24.0460  -22.3550 O.3       1 ADP1418     0.0000 
     17 C1'       -13.2390  -24.7110  -20.2660 C.3       1 ADP1418     0.0000 
     18 N9        -14.1870  -24.4660  -19.1590 N.pl3     1 ADP1418     0.0000 
     19 C8        -14.3050  -23.3330  -18.4270 C.2       1 ADP1418     0.0000 
     20 N7        -15.2830  -23.4380  -17.4860 N.2       1 ADP1418     0.0000 
     21 C5        -15.7870  -24.6760  -17.6020 C.ar      1 ADP1418     0.0000 
     22 C6        -16.8610  -25.4560  -16.9410 C.ar      1 ADP1418     0.0000 
     23 N6        -17.5830  -24.9240  -15.9060 N.pl3     1 ADP1418     0.0000 
     24 N1        -17.0570  -26.7290  -17.3770 N.ar      1 ADP1418     0.0000 
     25 C2        -16.3520  -27.2750  -18.3760 C.ar      1 ADP1418     0.0000 
     26 N3        -15.3970  -26.6130  -19.0440 N.ar      1 ADP1418     0.0000 
     27 C4        -15.0660  -25.3460  -18.7020 C.ar      1 ADP1418     0.0000 
     28 H          -9.4063  -22.9900  -21.2691 H         1 ADP1418     0.0000 
     29 H         -10.2781  -22.6462  -19.7652 H         1 ADP1418     0.0000 
     30 H         -10.6072  -25.2953  -21.1569 H         1 ADP1418     0.0000 
     31 H         -11.5323  -22.8269  -22.2317 H         1 ADP1418     0.0000 
     32 H         -13.3974  -22.7389  -20.9860 H         1 ADP1418     0.0000 
     33 H         -13.3474  -25.6988  -20.6632 H         1 ADP1418     0.0000 
     34 H         -13.7523  -22.5286  -18.5566 H         1 ADP1418     0.0000 
     35 H         -18.5161  -25.2671  -15.7984 H         1 ADP1418     0.0000 
     36 H         -17.1139  -24.2391  -15.3486 H         1 ADP1418     0.0000 
     37 H         -16.5596  -28.2832  -18.6534 H         1 ADP1418     0.0000 
     38 H         -12.4912  -24.4564  -23.7242 H         1 ADP1418     0.0000 
     39 H         -14.0624  -23.5540  -23.1900 H         1 ADP1418     0.0000 
@<TRIPOS>BOND
     1    2    1 ar   
     2    3    1 ar   
     3    4    1 ar   
     4    8    1 1    
     5    6    5 ar   
     6    7    5 ar   
     7    8    5 1    
     8    9    5 1    
     9   10    9 1    
    10   11   10 1    
    11   28   10 1    
    12   29   10 1    
    13   12   11 1    
    14   13   11 1    
    15   30   11 1    
    16   17   12 1    
    17   14   13 1    
    18   15   13 1    
    19   31   13 1    
    20   38   14 1    
    21   16   15 1    
    22   17   15 1    
    23   32   15 1    
    24   39   16 1    
    25   18   17 1    
    26   33   17 1    
    27   19   18 1    
    28   27   18 1    
    29   20   19 2    
    30   34   19 1    
    31   21   20 1    
    32   22   21 ar   
    33   27   21 ar   
    34   23   22 1    
    35   24   22 ar   
    36   35   23 1    
    37   36   23 1    
    38   25   24 ar   
    39   26   25 ar   
    40   37   25 1    
    41   27   26 ar   
@<TRIPOS>SUBSTRUCTURE
     1 ADP1418     1 GROUP   
@<TRIPOS>SET

