#    Name: 2HH9_2_CAVITY_N1_6.mol2
#    Modification time : Mon Mar 10 16:46:23 2014

@<TRIPOS>MOLECULE
2HH9_2_CAVITY_N1_6.mol2
  147     0     7     0     0
SMALL
NO_CHARGES


@<TRIPOS>ATOM
      1 O          28.5160   82.0798    6.5387 O.2       2 ALA2        0.0000 
      2 O          29.0905   80.5491    3.6101 O.2       2 ALA2        0.0000 
      3 CZ         16.7413   79.3235    6.4377 C.ar      5 PHE5        0.0000 
      4 CZ         15.5607   78.6770    5.7756 C.ar      5 PHE5        0.0000 
      5 CZ         16.1353   77.1463    2.8470 C.ar      5 PHE5        0.0000 
      6 CZ         15.2577   77.5884    3.9803 C.ar      5 PHE5        0.0000 
      7 CZ         14.3801   78.0306    5.1136 C.ar      5 PHE5        0.0000 
      8 NZ         30.5644   79.9162    4.9983 N.2       4 LYS4        0.0000 
      9 NZ         29.6868   80.3584    6.1316 N.2       4 LYS4        0.0000 
     10 NZ         29.3838   79.2698    4.3363 N.2       4 LYS4        0.0000 
     11 O          28.5062   79.7120    5.4696 O.2       2 ALA2        0.0000 
     12 O          24.3898   79.3034    6.4121 O.2       2 ALA2        0.0000 
     13 N          22.3316   79.0991    6.8834 N.2       2 ALA2        0.0000 
     14 CZ         20.2734   78.8949    7.3546 C.ar      5 PHE5        0.0000 
     15 N          19.0928   78.2484    6.6926 N.2       2 ALA2        0.0000 
     16 CA         18.2152   78.6906    7.8259 C.3       6 GLY6        0.0000 
     17 CA         17.3376   79.1327    8.9592 C.3       6 GLY6        0.0000 
     18 CZ         17.9122   77.6020    6.0306 C.ar      5 PHE5        0.0000 
     19 CZ         17.0346   78.0441    7.1639 C.ar      5 PHE5        0.0000 
     20 CA         16.1570   78.4863    8.2972 C.3       6 GLY6        0.0000 
     21 N          17.6091   76.5134    4.2353 N.2       2 ALA2        0.0000 
     22 CZ         16.7315   76.9556    5.3686 C.ar      5 PHE5        0.0000 
     23 CZ         15.8540   77.3977    6.5019 C.ar      5 PHE5        0.0000 
     24 CA         14.9764   77.8399    7.6351 C.3       6 GLY6        0.0000 
     25 N          16.4285   75.8670    3.5732 N.2       2 ALA2        0.0000 
     26 CZ         15.5509   76.3091    4.7065 C.ar      5 PHE5        0.0000 
     27 CZ         14.6733   76.7513    5.8398 C.ar      5 PHE5        0.0000 
     28 O          13.7958   77.1934    6.9731 O.2       2 ALA2        0.0000 
     29 N          13.4927   76.1049    5.1778 N.2       2 ALA2        0.0000 
     30 O          12.6151   76.5470    6.3111 O.2       2 ALA2        0.0000 
     31 NZ         29.9800   79.0791    6.8578 N.2       4 LYS4        0.0000 
     32 O          29.1025   79.5212    7.9911 O.2       2 ALA2        0.0000 
     33 NZ         28.7994   78.4326    6.1958 N.2       4 LYS4        0.0000 
     34 O          27.9218   78.8748    7.3291 O.2       2 ALA2        0.0000 
     35 O          27.6188   77.7862    5.5338 O.2       2 ALA2        0.0000 
     36 O          26.7412   78.2284    6.6671 O.2       2 ALA2        0.0000 
     37 O          25.8637   78.6705    7.8003 O.2       2 ALA2        0.0000 
     38 O          26.4382   77.1398    4.8717 O.2       2 ALA2        0.0000 
     39 O          25.5606   77.5819    6.0050 O.2       2 ALA2        0.0000 
     40 N          24.6830   78.0241    7.1383 N.2       2 ALA2        0.0000 
     41 OD1        25.2576   76.4934    4.2097 O.3       3 ASP3        0.0000 
     42 N          24.3800   76.9355    5.3430 N.2       2 ALA2        0.0000 
     43 N          23.5024   77.3777    6.4763 N.2       2 ALA2        0.0000 
     44 N          22.6248   77.8198    7.6096 N.2       2 ALA2        0.0000 
     45 N          23.1994   76.2891    4.6810 N.2       2 ALA2        0.0000 
     46 N          22.3218   76.7312    5.8143 N.2       2 ALA2        0.0000 
     47 N          21.4442   77.1734    6.9476 N.2       2 ALA2        0.0000 
     48 N          20.5666   77.6155    8.0808 N.2       2 ALA2        0.0000 
     49 CA         19.6891   78.0577    9.2141 C.3       6 GLY6        0.0000 
     50 N          21.1412   76.0848    5.1522 N.2       2 ALA2        0.0000 
     51 N          20.2636   76.5270    6.2855 N.2       2 ALA2        0.0000 
     52 N          19.3860   76.9691    7.4188 N.2       2 ALA2        0.0000 
     53 DU         18.5084   77.4113    8.5521 H         7 CUB7        0.0000 
     54 OG         17.6309   77.8534    9.6854 O.2       1 SER1        0.0000 
     55 N          19.0830   75.8805    5.6235 N.2       2 ALA2        0.0000 
     56 DU         18.2054   76.3227    6.7568 H         7 CUB7        0.0000 
     57 DU         17.3278   76.7648    7.8901 H         7 CUB7        0.0000 
     58 CZ         16.4502   77.2070    9.0234 C.ar      5 PHE5        0.0000 
     59 N          17.9024   75.2341    4.9615 N.2       2 ALA2        0.0000 
     60 N          17.0248   75.6763    6.0948 N.2       2 ALA2        0.0000 
     61 CZ         16.1472   76.1184    7.2281 C.ar      5 PHE5        0.0000 
     62 N          16.7218   74.5877    4.2995 N.2       2 ALA2        0.0000 
     63 DU         15.8442   75.0298    5.4327 H         7 CUB7        0.0000 
     64 CZ         14.9666   75.4720    6.5660 C.ar      5 PHE5        0.0000 
     65 N          13.7860   74.8255    5.9040 N.2       2 ALA2        0.0000 
     66 NZ         30.2733   77.7998    7.5840 N.2       4 LYS4        0.0000 
     67 OG         29.3957   78.2419    8.7173 O.2       1 SER1        0.0000 
     68 CA         28.5181   78.6841    9.8506 C.3       6 GLY6        0.0000 
     69 NZ         29.0927   77.1533    6.9220 N.2       4 LYS4        0.0000 
     70 O          28.2151   77.5955    8.0553 O.2       2 ALA2        0.0000 
     71 N          27.3375   78.0376    9.1886 N.2       2 ALA2        0.0000 
     72 NZ         28.7897   76.0648    5.1267 N.2       4 LYS4        0.0000 
     73 NZ         27.9121   76.5069    6.2600 N.2       4 LYS4        0.0000 
     74 CA         27.0345   76.9491    7.3933 C.3       6 GLY6        0.0000 
     75 OD1        27.6090   75.4183    4.4647 O.3       3 ASP3        0.0000 
     76 OG         26.7315   75.8605    5.5979 O.2       1 SER1        0.0000 
     77 CA         25.8539   76.3026    6.7312 C.3       6 GLY6        0.0000 
     78 OD1        25.5508   75.2140    4.9359 O.3       3 ASP3        0.0000 
     79 CA         24.6733   75.6562    6.0692 C.3       6 GLY6        0.0000 
     80 CA         24.3702   74.5676    4.2739 C.3       6 GLY6        0.0000 
     81 CA         23.4926   75.0098    5.4072 C.3       6 GLY6        0.0000 
     82 N          22.6151   75.4519    6.5405 N.2       2 ALA2        0.0000 
     83 O          22.3120   74.3633    4.7452 O.2       2 ALA2        0.0000 
     84 N          21.4344   74.8055    5.8784 N.2       2 ALA2        0.0000 
     85 N          20.5569   75.2477    7.0117 N.2       2 ALA2        0.0000 
     86 N          19.6793   75.6898    8.1450 N.2       2 ALA2        0.0000 
     87 OG         18.8017   76.1320    9.2783 O.2       1 SER1        0.0000 
     88 CA         21.1314   73.7169    4.0831 C.3       6 GLY6        0.0000 
     89 N          20.2538   74.1591    5.2164 N.2       2 ALA2        0.0000 
     90 N          19.3762   74.6012    6.3497 N.2       2 ALA2        0.0000 
     91 N          18.4987   75.0434    7.4830 N.2       2 ALA2        0.0000 
     92 CA         17.6211   75.4855    8.6163 C.3       6 GLY6        0.0000 
     93 CA         16.7435   75.9277    9.7496 C.3       6 GLY6        0.0000 
     94 N          18.1956   73.9548    5.6877 N.2       2 ALA2        0.0000 
     95 N          17.3180   74.3969    6.8210 N.2       2 ALA2        0.0000 
     96 CZ         16.4405   74.8391    7.9543 C.ar      5 PHE5        0.0000 
     97 N          18.7702   72.4241    2.7591 N.2       2 ALA2        0.0000 
     98 N          17.8926   72.8662    3.8924 N.2       2 ALA2        0.0000 
     99 N          17.0150   73.3084    5.0257 N.2       2 ALA2        0.0000 
    100 N          16.1374   73.7505    6.1589 N.2       2 ALA2        0.0000 
    101 CZ         15.2598   74.1927    7.2922 C.ar      5 PHE5        0.0000 
    102 NZ         31.4441   76.0783    7.1769 N.2       4 LYS4        0.0000 
    103 DU         30.5665   76.5205    8.3102 H         7 CUB7        0.0000 
    104 CA         29.6890   76.9626    9.4435 C.3       6 GLY6        0.0000 
    105 NZ         30.2635   75.4319    6.5149 N.2       4 LYS4        0.0000 
    106 DU         29.3859   75.8740    7.6482 H         7 CUB7        0.0000 
    107 CA         28.5083   76.3162    8.7815 C.3       6 GLY6        0.0000 
    108 CA         27.6308   76.7583    9.9148 C.3       6 GLY6        0.0000 
    109 OD1        29.0829   74.7854    5.8529 O.3       3 ASP3        0.0000 
    110 OG         28.2053   75.2276    6.9862 O.2       1 SER1        0.0000 
    111 OD1        27.9023   74.1390    5.1909 O.3       3 ASP3        0.0000 
    112 OG         27.0247   74.5812    6.3241 O.2       1 SER1        0.0000 
    113 CA         26.7217   73.4926    4.5288 C.3       6 GLY6        0.0000 
    114 OG         25.8441   73.9347    5.6621 O.2       1 SER1        0.0000 
    115 CA         23.7859   73.7305    6.1334 C.3       6 GLY6        0.0000 
    116 CA         22.6053   73.0840    5.4714 C.3       6 GLY6        0.0000 
    117 OG         21.7277   73.5262    6.6047 O.2       1 SER1        0.0000 
    118 O          21.4247   72.4376    4.8093 O.2       2 ALA2        0.0000 
    119 OG         20.5471   72.8798    5.9426 O.2       1 SER1        0.0000 
    120 OG         19.6695   73.3219    7.0759 O.2       1 SER1        0.0000 
    121 O          20.2440   71.7912    4.1473 O.2       2 ALA2        0.0000 
    122 O          19.3665   72.2333    5.2806 O.2       2 ALA2        0.0000 
    123 N          18.4889   72.6755    6.4139 N.2       2 ALA2        0.0000 
    124 CA         19.0634   71.1447    3.4853 C.3       6 GLY6        0.0000 
    125 O          18.1858   71.5869    4.6186 O.2       2 ALA2        0.0000 
    126 N          17.3083   72.0291    5.7519 N.2       2 ALA2        0.0000 
    127 DU         31.7374   74.7990    7.9031 H         7 CUB7        0.0000 
    128 OG         32.3119   73.2683    4.9745 O.2       1 SER1        0.0000 
    129 OD1        31.4344   73.7104    6.1078 O.3       3 ASP3        0.0000 
    130 DU         30.5568   74.1526    7.2411 H         7 CUB7        0.0000 
    131 O          29.6792   74.5947    8.3744 O.2       2 ALA2        0.0000 
    132 O          28.8016   75.0369    9.5077 O.2       2 ALA2        0.0000 
    133 NZ         30.2537   73.0640    5.4458 N.2       4 LYS4        0.0000 
    134 O          29.3762   73.5061    6.5791 O.2       2 ALA2        0.0000 
    135 OG         28.4986   73.9483    7.7124 O.2       1 SER1        0.0000 
    136 NZ         29.0731   72.4176    4.7838 N.2       4 LYS4        0.0000 
    137 OG         28.1955   72.8597    5.9171 O.2       1 SER1        0.0000 
    138 CA         27.0149   72.2133    5.2550 C.3       6 GLY6        0.0000 
    139 CA         20.5373   70.5119    4.8735 C.3       6 GLY6        0.0000 
    140 O          30.8500   72.8733    7.9673 O.2       2 ALA2        0.0000 
    141 O          30.5470   71.7847    6.1720 O.2       2 ALA2        0.0000 
    142 NZ         30.2440   70.6961    4.3767 N.2       4 LYS4        0.0000 
    143 O          29.3664   71.1382    5.5100 O.2       2 ALA2        0.0000 
    144 O          28.4888   71.5804    6.6433 O.2       2 ALA2        0.0000 
    145 O          28.1858   70.4918    4.8480 O.2       2 ALA2        0.0000 
    146 CA         27.3082   70.9340    5.9812 C.3       6 GLY6        0.0000 
    147 O          27.0051   69.8454    4.1859 O.2       2 ALA2        0.0000 
@<TRIPOS>BOND
@<TRIPOS>SUBSTRUCTURE
     1 SER1       54 GROUP   
     2 ALA2        1 GROUP   
     3 ASP3       41 GROUP   
     4 LYS4        8 GROUP   
     5 PHE5        3 GROUP   
     6 GLY6       16 GROUP   
     7 CUB7       53 GROUP   
@<TRIPOS>SET

