#    Name: 2hh9_VIB_2_INTS_M
#    Modification time : Tue Mar 25 16:32:20 2014

@<TRIPOS>MOLECULE
2hh9_VIB_2_INTS_M
   55     0    12     0     0
SMALL
NO_CHARGES


@<TRIPOS>ATOM
      1 CA         16.0995   79.7525    9.1615 C.3       4 GLC5        0.0000 
      2 CA         16.6440   77.9860   10.3440 C.3      12 GLL5        0.0000 
      3 CA         15.5550   81.5190    7.9790 C.3       8 GLP5        0.0000 
      4 CA         15.4120   78.5320   11.4980 C.3       4 GLC5        0.0000 
      5 CA         14.1800   79.0780   12.6520 C.3       8 GLP5        0.0000 
      6 CA         15.1355   76.6875    9.6960 C.3       4 GLC5        0.0000 
      7 CA         13.6270   75.3890    9.0480 C.3       8 GLP5        0.0000 
      8 O          20.1575   78.9815    5.3165 O.2       1 ALC1        0.0000 
      9 O          18.8200   79.2220    6.2270 O.2       9 ALL1        0.0000 
     10 O          21.4950   78.7410    4.4060 O.2       5 ALP1        0.0000 
     11 CA         23.2905   79.9615    7.4900 C.3       4 GLC5        0.0000 
     12 CA         23.9750   78.5520    6.5320 C.3      12 GLL5        0.0000 
     13 CA         22.6060   81.3710    8.4480 C.3       8 GLP5        0.0000 
     14 CA         23.5805   79.6475    4.9455 C.3       4 GLC5        0.0000 
     15 CA         23.1860   80.7430    3.3590 C.3       8 GLP5        0.0000 
     16 Zn         27.1350   75.2855    2.8745 Zn        3 ZIC7        0.0000 
     17 Zn         27.3150   75.6720    4.1210 Zn       11 ZIL7        0.0000 
     18 Zn         26.9550   74.8990    1.6280 Zn        7 ZIP7        0.0000 
     19 CA         25.4830   75.2385    6.8275 C.3       4 GLC5        0.0000 
     20 CA         26.1410   75.5440    4.9200 C.3      12 GLL5        0.0000 
     21 CA         24.8250   74.9330    8.7350 C.3       8 GLP5        0.0000 
     22 CA         21.9970   74.4775    3.4620 C.3       4 GLC5        0.0000 
     23 CA         22.7210   75.0100    5.3500 C.3      12 GLL5        0.0000 
     24 CA         21.2730   73.9450    1.5740 C.3       8 GLP5        0.0000 
     25 CA         23.5910   73.6940    4.1505 C.3       4 GLC5        0.0000 
     26 CA         24.4610   72.3780    2.9510 C.3       8 GLP5        0.0000 
     27 CA         21.2965   79.4010    7.9655 C.3       4 GLC5        0.0000 
     28 CA         21.0540   77.6940    6.6230 C.3      12 GLL5        0.0000 
     29 CA         21.5390   81.1080    9.3080 C.3       8 GLP5        0.0000 
     30 CA         20.4330   77.4965    4.6615 C.3       4 GLC5        0.0000 
     31 CA         19.8120   77.2990    2.7000 C.3       8 GLP5        0.0000 
     32 CA         17.2000   80.0205    7.6975 C.3       4 GLC5        0.0000 
     33 CA         18.8450   78.5220    7.4160 C.3      12 GLL5        0.0000 
     34 N          18.6315   76.5585   11.0750 N.am      2 SEC2        0.0000 
     35 N          18.8730   77.1280    9.7600 N.am     10 SEL2        0.0000 
     36 N          18.3900   75.9890   12.3900 N.am      6 SEP2        0.0000 
     37 CA         18.9240   75.4305   10.1400 C.3       4 GLC5        0.0000 
     38 CA         19.9390   77.0210    8.9290 C.3      12 GLL5        0.0000 
     39 CA         17.9090   73.8400   11.3510 C.3       8 GLP5        0.0000 
     40 CA         21.3525   77.4810   10.4545 C.3       4 GLC5        0.0000 
     41 CA         22.7660   77.9410   11.9800 C.3       8 GLP5        0.0000 
     42 CA         18.1660   79.5932    9.9150 C.3       4 GLC5        0.0000 
     43 CA         17.8300   77.8930    9.4280 C.3      12 GLL5        0.0000 
     44 CA         19.0950   81.2470    9.9440 C.3       8 GLP5        0.0000 
     45 CA         17.3475   76.4303   11.1140 C.3       4 GLC5        0.0000 
     46 CA         17.4580   74.9210   12.3420 C.3       8 GLP5        0.0000 
     47 CA         25.0360   74.2090    3.8130 C.3       4 GLC5        0.0000 
     48 CA         25.0810   76.5360    4.4300 C.3      12 GLL5        0.0000 
     49 CA         23.5075   75.1310    7.3535 C.3       4 GLC5        0.0000 
     50 CA         24.2894   76.0318    7.2847 C.3       4 GLC5        0.0000 
     51 CA         23.3180   77.2120    6.2260 C.3      12 GLL5        0.0000 
     52 CA         23.4387   78.1219    4.0930 C.3       4 GLC5        0.0000 
     53 CA         22.9830   79.4090    2.6430 C.3       8 GLP5        0.0000 
     54 CA         19.3810   79.4110    9.0933 C.3       4 GLC5        0.0000 
     55 CA         19.9450   77.7360    7.6960 C.3      12 GLL5        0.0000 
@<TRIPOS>BOND
@<TRIPOS>SUBSTRUCTURE
     1 ALC1        8 GROUP        1 X    ALC  0     ROOT ALC X 1
     2 SEC2       34 GROUP        1 X    SEC  0     **** SEC X 2
     3 ZIC7       16 GROUP        1 X    ZIC  0     **** ZIC X 5
     4 GLC5        1 GROUP        1 X    GLC  0     **** GLC X 6
     5 ALP1       10 GROUP        1 Y    ALP  0     ROOT ALP Y 8
     6 SEP2       36 GROUP        1 Y    SEP  0     **** SEP Y 9
     7 ZIP7       18 GROUP        1 Y    ZIP  0     **** ZIP Y 12
     8 GLP5        3 GROUP        1 Y    GLP  0     **** GLP Y 13
     9 ALL1        9 GROUP        1 Z    ALL  0     ROOT ALL Z 15
    10 SEL2       35 GROUP        1 Z    SEL  0     **** SEL Z 16
    11 ZIL7       17 GROUP        1 Z    ZIL  0     **** ZIL Z 19
    12 GLL5        2 GROUP        1 Z    GLL  0     **** GLL Z 20
@<TRIPOS>SET

