#    Name: 2hh9_VIB_2_ligand
#    Modification time : Tue Mar 25 16:32:21 2014

@<TRIPOS>MOLECULE
2hh9_VIB_2_ligand
   35    36     1     0     0
SMALL
NO_CHARGES


@<TRIPOS>ATOM
      1 CM2        16.6440   77.9860   10.3440 C.3       1 VIB701      0.0000 
      2 N4A        18.8200   79.2220    6.2270 N.pl3     1 VIB701      0.0000 
      3 CM4        23.9750   78.5520    6.5320 C.3       1 VIB701      0.0000 
      4 O1         27.3150   75.6720    4.1210 O.3       1 VIB701      0.0000 
      5 C7         26.1410   75.5440    4.9200 C.3       1 VIB701      0.0000 
      6 C6         25.0810   76.5360    4.4300 C.3       1 VIB701      0.0000 
      7 C2         21.6590   75.6480    6.5940 C.2       1 VIB701      0.0000 
      8 S1         22.7210   75.0100    5.3500 S.3       1 VIB701      0.0000 
      9 C5         23.8610   76.3790    5.2900 C.2       1 VIB701      0.0000 
     10 C4         23.3180   77.2120    6.2260 C.2       1 VIB701      0.0000 
     11 N3         22.1590   76.7890    6.8840 N.pl3     1 VIB701      0.0000 
     12 C7A        21.0540   77.6940    6.6230 C.3       1 VIB701      0.0000 
     13 C4A        18.8450   78.5220    7.4160 C.ar      1 VIB701      0.0000 
     14 N3A        17.8160   78.5770    8.2860 N.ar      1 VIB701      0.0000 
     15 C2A        17.8300   77.8930    9.4280 C.ar      1 VIB701      0.0000 
     16 N1A        18.8730   77.1280    9.7600 N.ar      1 VIB701      0.0000 
     17 C6A        19.9390   77.0210    8.9290 C.ar      1 VIB701      0.0000 
     18 C5A        19.9450   77.7360    7.6960 C.ar      1 VIB701      0.0000 
     19 H          17.9957   79.7598    6.0502 H         1 VIB701      0.0000 
     20 H          19.6285   79.1307    5.6456 H         1 VIB701      0.0000 
     21 H          26.3379   75.7627    5.9743 H         1 VIB701      0.0000 
     22 H          25.7103   74.5397    4.8561 H         1 VIB701      0.0000 
     23 H          24.8429   76.3152    3.3998 H         1 VIB701      0.0000 
     24 H          25.4723   77.5391    4.5161 H         1 VIB701      0.0000 
     25 H          20.9879   75.0803    6.7902 H         1 VIB701      0.0000 
     26 H          20.5605   77.4437    5.6507 H         1 VIB701      0.0000 
     27 H          21.4244   78.7415    6.4929 H         1 VIB701      0.0000 
     28 H          20.7512   76.4374    9.1577 H         1 VIB701      0.0000 
     29 H          16.7669   77.4330   11.1681 H         1 VIB701      0.0000 
     30 H          16.4789   78.9257   10.6436 H         1 VIB701      0.0000 
     31 H          15.8061   77.6684    9.9001 H         1 VIB701      0.0000 
     32 H          24.9129   78.4394    6.8603 H         1 VIB701      0.0000 
     33 H          24.0159   79.1388    5.7233 H         1 VIB701      0.0000 
     34 H          23.4767   79.0577    7.2362 H         1 VIB701      0.0000 
     35 H          28.0012   75.1051    4.5768 H         1 VIB701      0.0000 
@<TRIPOS>BOND
     1   15    1 1    
     2   29    1 1    
     3   30    1 1    
     4   31    1 1    
     5   13    2 1    
     6   19    2 1    
     7   20    2 1    
     8   10    3 1    
     9   32    3 1    
    10   33    3 1    
    11   34    3 1    
    12    5    4 1    
    13   35    4 1    
    14    6    5 1    
    15   21    5 1    
    16   22    5 1    
    17    9    6 1    
    18   23    6 1    
    19   24    6 1    
    20    8    7 1    
    21   11    7 2    
    22   25    7 1    
    23    9    8 1    
    24   10    9 2    
    25   11   10 1    
    26   12   11 1    
    27   18   12 1    
    28   26   12 1    
    29   27   12 1    
    30   14   13 ar   
    31   18   13 ar   
    32   15   14 ar   
    33   16   15 ar   
    34   17   16 ar   
    35   18   17 ar   
    36   28   17 1    
@<TRIPOS>SUBSTRUCTURE
     1 VIB701      1 GROUP   
@<TRIPOS>SET

