#    Name: 1fiq_FAD_3_INTS_M
#    Modification time : Tue Mar 25 01:24:18 2014

@<TRIPOS>MOLECULE
1fiq_FAD_3_INTS_M
  120     0     9     0     0
SMALL
NO_CHARGES


@<TRIPOS>ATOM
      1 N          27.2660   52.5135  101.2135 N.am      2 SEC2        0.0000 
      2 N          26.8690   53.9670  100.9790 N.am      8 SEL2        0.0000 
      3 N          27.6630   51.0600  101.4480 N.am      5 SEP2        0.0000 
      4 N          27.1675   53.3745  102.3210 N.am      2 SEC2        0.0000 
      5 N          27.4660   52.7820  103.6630 N.am      5 SEP2        0.0000 
      6 N          25.0110   56.7935   99.2620 N.am      2 SEC2        0.0000 
      7 N          26.1330   56.1340  100.0240 N.am      8 SEL2        0.0000 
      8 N          23.8890   57.4530   98.5000 N.am      5 SEP2        0.0000 
      9 N          25.0995   54.7850   99.7535 N.am      2 SEC2        0.0000 
     10 N          24.0660   53.4360   99.4830 N.am      5 SEP2        0.0000 
     11 CA         29.4815   54.3800  101.0025 C.3       3 GLC5        0.0000 
     12 CA         29.2420   56.3920  100.3010 C.3       9 GLL5        0.0000 
     13 CA         29.7210   52.3680  101.7040 C.3       6 GLP5        0.0000 
     14 CA         29.8700   56.3965   98.4290 C.3       3 GLC5        0.0000 
     15 CA         30.4980   56.4010   96.5570 C.3       6 GLP5        0.0000 
     16 CA         30.6105   54.9425  101.9375 C.3       3 GLC5        0.0000 
     17 CA         30.3740   57.0160  101.2600 C.3       9 GLL5        0.0000 
     18 CA         30.8470   52.8690  102.6150 C.3       6 GLP5        0.0000 
     19 CA         28.9955   56.9520  103.8155 C.3       3 GLC5        0.0000 
     20 CA         29.9700   57.9450  102.4790 C.3       9 GLL5        0.0000 
     21 CA         28.0210   55.9590  105.1520 C.3       6 GLP5        0.0000 
     22 CA         27.8860   60.7460  101.1930 C.3       3 GLC5        0.0000 
     23 CA         29.3230   59.2110  101.7640 C.3       9 GLL5        0.0000 
     24 CA         26.4490   62.2810  100.6220 C.3       6 GLP5        0.0000 
     25 N          27.6620   61.0905  102.8090 N.am      2 SEC2        0.0000 
     26 N          29.0630   60.2960  102.5690 N.am      8 SEL2        0.0000 
     27 N          26.2610   61.8850  103.0490 N.am      5 SEP2        0.0000 
     28 O          27.6060   59.8585  102.2950 O.2       1 ALC1        0.0000 
     29 O          29.0630   60.2960  102.5690 O.2       7 ALL1        0.0000 
     30 O          26.1490   59.4210  102.0210 O.2       4 ALP1        0.0000 
     31 CA         32.2710   59.9690  100.4400 C.3       3 GLC5        0.0000 
     32 CA         30.3120   59.4640  100.6580 C.3       9 GLL5        0.0000 
     33 CA         34.2300   60.4740  100.2220 C.3       6 GLP5        0.0000 
     34 CA         31.2425   63.1610   95.6790 C.3       3 GLC5        0.0000 
     35 CA         29.4410   62.4560   96.6400 C.3       9 GLL5        0.0000 
     36 CA         33.0440   63.8660   94.7180 C.3       6 GLP5        0.0000 
     37 O          29.5450   63.7180   94.7035 O.2       1 ALC1        0.0000 
     38 O          28.8080   62.6870   95.5090 O.2       7 ALL1        0.0000 
     39 O          30.2820   64.7490   93.8980 O.2       4 ALP1        0.0000 
     40 N          31.1970   64.5415   96.5550 N.am      2 SEC2        0.0000 
     41 N          30.3880   63.4260   97.1150 N.am      8 SEL2        0.0000 
     42 N          32.0060   65.6570   95.9950 N.am      5 SEP2        0.0000 
     43 CA         29.2775   63.7130   98.8055 C.3       3 GLC5        0.0000 
     44 CA         31.1530   63.3070   98.3680 C.3       9 GLL5        0.0000 
     45 CA         27.4020   64.1190   99.2430 C.3       6 GLP5        0.0000 
     46 CA         32.5565   61.9905   98.0560 C.3       3 GLC5        0.0000 
     47 CA         33.9600   60.6740   97.7440 C.3       6 GLP5        0.0000 
     48 CA         33.0135   63.9100   98.6725 C.3       3 GLC5        0.0000 
     49 CA         34.8740   64.5130   98.9770 C.3       6 GLP5        0.0000 
     50 CA         31.1785   65.2240   98.0480 C.3       3 GLC5        0.0000 
     51 CA         31.2040   67.1410   97.7280 C.3       6 GLP5        0.0000 
     52 CA         32.0985   63.5865   96.5430 C.3       3 GLC5        0.0000 
     53 CA         28.7595   62.6290   99.0550 C.3       3 GLC5        0.0000 
     54 CA         30.1170   61.1390   98.8670 C.3       9 GLL5        0.0000 
     55 CA         32.0385   60.9065   98.3055 C.3       3 GLC5        0.0000 
     56 N          35.4885   49.8860   95.1070 N.am      2 SEC2        0.0000 
     57 N          36.3590   48.6490   94.9870 N.am      8 SEL2        0.0000 
     58 N          34.6180   51.1230   95.2270 N.am      5 SEP2        0.0000 
     59 N          37.6765   48.6675   94.7210 N.am      2 SEC2        0.0000 
     60 N          38.9940   48.6860   94.4550 N.am      5 SEP2        0.0000 
     61 O          36.9660   45.7660   94.2580 O.2       1 ALC1        0.0000 
     62 O          35.8830   46.4210   94.7400 O.2       7 ALL1        0.0000 
     63 O          38.0490   45.1110   93.7760 O.2       4 ALP1        0.0000 
     64 CA         29.4380   43.6545   95.8820 C.3       3 GLC5        0.0000 
     65 CA         29.3870   43.8150   97.9120 C.3       9 GLL5        0.0000 
     66 CA         29.4890   43.4940   93.8520 C.3       6 GLP5        0.0000 
     67 CA         26.6880   42.5115   99.0790 C.3       3 GLC5        0.0000 
     68 CA         28.5010   42.6530   98.2150 C.3       9 GLL5        0.0000 
     69 CA         24.8750   42.3700   99.9430 C.3       6 GLP5        0.0000 
     70 CA         27.6190   40.9495   98.5275 C.3       3 GLC5        0.0000 
     71 CA         26.7370   39.2460   98.8400 C.3       6 GLP5        0.0000 
     72 CA         26.3485   43.9910   99.6280 C.3       3 GLC5        0.0000 
     73 CA         27.8220   45.6120   99.3130 C.3       9 GLL5        0.0000 
     74 CA         26.1160   45.9435  100.1685 C.3       3 GLC5        0.0000 
     75 CA         24.4100   46.2750  101.0240 C.3       6 GLP5        0.0000 
     76 CA         27.1495   47.4495   98.9710 C.3       3 GLC5        0.0000 
     77 CA         26.4770   49.2870   98.6290 C.3       6 GLP5        0.0000 
     78 CA         27.1060   45.0025   97.4780 C.3       3 GLC5        0.0000 
     79 CA         26.3900   44.3930   95.6430 C.3       6 GLP5        0.0000 
     80 CA         29.4525   49.9435   95.4190 C.3       3 GLC5        0.0000 
     81 CA         31.1190   49.4810   96.7340 C.3       9 GLL5        0.0000 
     82 CA         27.7860   50.4060   94.1040 C.3       6 GLP5        0.0000 
     83 N          33.1505   50.3955   95.3305 N.am      2 SEC2        0.0000 
     84 N          31.6830   49.6680   95.4340 N.am      8 SEL2        0.0000 
     85 O          28.9530   50.1550   98.4615 O.2       1 ALC1        0.0000 
     86 O          30.3180   50.2960   98.8340 O.2       7 ALL1        0.0000 
     87 O          27.5880   50.0140   98.0890 O.2       4 ALP1        0.0000 
     88 CA         28.8465   51.0660   95.5055 C.3       3 GLC5        0.0000 
     89 CA         29.9070   51.7260   96.9070 C.3       9 GLL5        0.0000 
     90 O          30.0265   53.3605   94.5670 O.2       1 ALC1        0.0000 
     91 O          30.2420   52.0810   95.4980 O.2       7 ALL1        0.0000 
     92 O          29.8110   54.6400   93.6360 O.2       4 ALP1        0.0000 
     93 CA         29.7085   52.6610   99.7330 C.3       3 GLC5        0.0000 
     94 CA         29.6960   52.9540   97.7620 C.3       9 GLL5        0.0000 
     95 CA         30.0970   54.6775   97.1595 C.3       3 GLC5        0.0000 
     96 N          25.1845   54.7745   96.7515 N.am      2 SEC2        0.0000 
     97 N          26.5520   54.7440   96.3290 N.am      8 SEL2        0.0000 
     98 N          23.8170   54.8050   97.1740 N.am      5 SEP2        0.0000 
     99 N          26.8725   54.2845   94.9970 N.am      2 SEC2        0.0000 
    100 N          27.1930   53.8250   93.6650 N.am      5 SEP2        0.0000 
    101 N          27.1435   55.6900   95.4865 N.am      2 SEC2        0.0000 
    102 N          27.7350   56.6360   94.6440 N.am      5 SEP2        0.0000 
    103 N          26.0260   51.9295   98.8110 N.am      2 SEC2        0.0000 
    104 N          26.6000   52.7320   97.6570 N.am      8 SEL2        0.0000 
    105 N          25.4520   51.1270   99.9650 N.am      5 SEP2        0.0000 
    106 N          27.0940   51.3730   97.8730 N.am      2 SEC2        0.0000 
    107 N          27.5880   50.0140   98.0890 N.am      5 SEP2        0.0000 
    108 CA         29.0962   59.2370  103.9903 C.3       3 GLC5        0.0000 
    109 CA         28.5460   59.8960  105.8590 C.3       6 GLP5        0.0000 
    110 CA         28.3773   62.9655   98.1817 C.3       3 GLC5        0.0000 
    111 CA         29.2640   61.1680   97.6010 C.3       9 GLL5        0.0000 
    112 CA         30.2802   43.8470   95.3765 C.3       3 GLC5        0.0000 
    113 CA         31.5280   44.7920   96.7380 C.3       9 GLL5        0.0000 
    114 CA         27.6670   43.8135   96.8533 C.3       3 GLC5        0.0000 
    115 CA         29.0114   46.2121   96.4128 C.3       3 GLC5        0.0000 
    116 CA         29.0450   45.2520   98.4530 C.3       9 GLL5        0.0000 
    117 CA         27.6820   46.4310   95.0240 C.3       6 GLP5        0.0000 
    118 CA         31.7450   53.0932   96.6911 C.3       3 GLC5        0.0000 
    119 CA         30.9530   50.7960   97.5900 C.3       9 GLL5        0.0000 
    120 CA         33.4270   54.0790   95.8770 C.3       6 GLP5        0.0000 
@<TRIPOS>BOND
@<TRIPOS>SUBSTRUCTURE
     1 ALC1       28 GROUP        1 X    ALC  0     ROOT ALC X 1
     2 SEC2        1 GROUP        1 X    SEC  0     **** SEC X 2
     3 GLC5       11 GROUP        1 X    GLC  0     **** GLC X 6
     4 ALP1       30 GROUP        1 Y    ALP  0     ROOT ALP Y 8
     5 SEP2        3 GROUP        1 Y    SEP  0     **** SEP Y 9
     6 GLP5       13 GROUP        1 Y    GLP  0     **** GLP Y 13
     7 ALL1       29 GROUP        1 Z    ALL  0     ROOT ALL Z 15
     8 SEL2        2 GROUP        1 Z    SEL  0     **** SEL Z 16
     9 GLL5       12 GROUP        1 Z    GLL  0     **** GLL Z 20
@<TRIPOS>SET

