#    Name: 1fiq_FAD_3_ligand
#    Modification time : Tue Mar 25 01:24:18 2014

@<TRIPOS>MOLECULE
1fiq_FAD_3_ligand
   83    88     1     0     0
SMALL
NO_CHARGES


@<TRIPOS>ATOM
      1 PA         27.0400   55.1130   99.9930 P.3       1 FAD606      0.0000 
      2 O1A        26.8690   53.9670  100.9790 O.co2     1 FAD606      0.0000 
      3 O2A        26.1330   56.1340  100.0240 O.co2     1 FAD606      0.0000 
      4 O5B        28.4100   55.4020  100.7160 O.3       1 FAD606      0.0000 
      5 C5B        29.2420   56.3920  100.3010 C.3       1 FAD606      0.0000 
      6 C4B        30.3740   57.0160  101.2600 C.3       1 FAD606      0.0000 
      7 O4B        30.9200   58.1210  100.2970 O.3       1 FAD606      0.0000 
      8 C3B        29.9700   57.9450  102.4790 C.3       1 FAD606      0.0000 
      9 O3B        31.0750   58.2630  103.3520 O.3       1 FAD606      0.0000 
     10 C2B        29.3230   59.2110  101.7640 C.3       1 FAD606      0.0000 
     11 O2B        29.0630   60.2960  102.5690 O.3       1 FAD606      0.0000 
     12 C1B        30.3120   59.4640  100.6580 C.3       1 FAD606      0.0000 
     13 N9A        29.7670   59.9910   99.4060 N.pl3     1 FAD606      0.0000 
     14 C8A        28.8130   59.4540   98.5520 C.2       1 FAD606      0.0000 
     15 N7A        28.5110   60.0890   97.5320 N.2       1 FAD606      0.0000 
     16 C5A        29.2640   61.1680   97.6010 C.ar      1 FAD606      0.0000 
     17 C6A        29.4410   62.4560   96.6400 C.ar      1 FAD606      0.0000 
     18 N6A        28.8080   62.6870   95.5090 N.pl3     1 FAD606      0.0000 
     19 N1A        30.3880   63.4260   97.1150 N.ar      1 FAD606      0.0000 
     20 C2A        31.1530   63.3070   98.3680 C.ar      1 FAD606      0.0000 
     21 N3A        31.0890   62.2340   99.2920 N.ar      1 FAD606      0.0000 
     22 C4A        30.1170   61.1390   98.8670 C.ar      1 FAD606      0.0000 
     23 N1         34.4590   48.0590   95.8720 N.2       1 FAD606      0.0000 
     24 C2         35.5960   47.8080   95.1940 C.2       1 FAD606      0.0000 
     25 O2         36.3590   48.6490   94.9870 O.2       1 FAD606      0.0000 
     26 N3         35.8830   46.4210   94.7400 N.am      1 FAD606      0.0000 
     27 C4         34.9420   45.3430   94.9570 C.2       1 FAD606      0.0000 
     28 O4         35.2210   44.3400   94.5950 O.2       1 FAD606      0.0000 
     29 C4X        33.6420   45.6020   95.6560 C.2       1 FAD606      0.0000 
     30 N5         32.7050   44.6030   95.9370 N.2       1 FAD606      0.0000 
     31 C5X        31.5280   44.7920   96.7380 C.ar      1 FAD606      0.0000 
     32 C6         30.6150   43.6080   97.0640 C.ar      1 FAD606      0.0000 
     33 C7         29.3870   43.8150   97.9120 C.ar      1 FAD606      0.0000 
     34 C7M        28.5010   42.6530   98.2150 C.3       1 FAD606      0.0000 
     35 C8         29.0450   45.2520   98.4530 C.ar      1 FAD606      0.0000 
     36 C8M        27.8220   45.6120   99.3130 C.3       1 FAD606      0.0000 
     37 C9         29.9460   46.3450   98.1390 C.ar      1 FAD606      0.0000 
     38 C9A        31.1860   46.1880   97.3070 C.ar      1 FAD606      0.0000 
     39 N10        32.2890   47.2990   96.9230 N.pl3     1 FAD606      0.0000 
     40 C10        33.4560   47.0360   96.1590 C.2       1 FAD606      0.0000 
     41 C1'        32.1050   48.6300   97.4600 C.3       1 FAD606      0.0000 
     42 C2'        31.1190   49.4810   96.7340 C.3       1 FAD606      0.0000 
     43 O2'        31.6830   49.6680   95.4340 O.3       1 FAD606      0.0000 
     44 C3'        30.9530   50.7960   97.5900 C.3       1 FAD606      0.0000 
     45 O3'        30.3180   50.2960   98.8340 O.3       1 FAD606      0.0000 
     46 C4'        29.9070   51.7260   96.9070 C.3       1 FAD606      0.0000 
     47 O4'        30.2420   52.0810   95.4980 O.3       1 FAD606      0.0000 
     48 C5'        29.6960   52.9540   97.7620 C.3       1 FAD606      0.0000 
     49 O5'        28.6600   53.7590   96.9720 O.3       1 FAD606      0.0000 
     50 P          27.2820   53.9050   97.3280 P.3       1 FAD606      0.0000 
     51 O1P        26.5520   54.7440   96.3290 O.co2     1 FAD606      0.0000 
     52 O2P        26.6000   52.7320   97.6570 O.co2     1 FAD606      0.0000 
     53 O3P        27.4890   54.7180   98.4560 O.3       1 FAD606      0.0000 
     54 H          28.6732   57.3226   99.9247 H         1 FAD606      0.0000 
     55 H          29.8296   56.1095   99.3491 H         1 FAD606      0.0000 
     56 H          31.1174   56.3830  101.4571 H         1 FAD606      0.0000 
     57 H          29.1545   57.4400  102.9766 H         1 FAD606      0.0000 
     58 H          28.4246   58.7947  101.2675 H         1 FAD606      0.0000 
     59 H          31.1166   60.0810  101.0177 H         1 FAD606      0.0000 
     60 H          28.4013   58.5326   98.8257 H         1 FAD606      0.0000 
     61 H          31.8071   64.1099   98.5799 H         1 FAD606      0.0000 
     62 H          36.7637   46.2437   94.2688 H         1 FAD606      0.0000 
     63 H          30.8391   42.7141   96.7144 H         1 FAD606      0.0000 
     64 H          29.7420   47.2863   98.4962 H         1 FAD606      0.0000 
     65 H          33.0862   49.1725   97.4850 H         1 FAD606      0.0000 
     66 H          31.7926   48.5699   98.5354 H         1 FAD606      0.0000 
     67 H          30.1866   48.9732   96.7146 H         1 FAD606      0.0000 
     68 H          31.8369   51.2434   97.7414 H         1 FAD606      0.0000 
     69 H          28.9486   51.1636   96.9124 H         1 FAD606      0.0000 
     70 H          30.5950   53.5104   97.8354 H         1 FAD606      0.0000 
     71 H          29.2903   52.6824   98.7027 H         1 FAD606      0.0000 
     72 H          28.9899   41.9309   98.7044 H         1 FAD606      0.0000 
     73 H          27.7228   42.9179   98.7844 H         1 FAD606      0.0000 
     74 H          28.1289   42.2427   97.3824 H         1 FAD606      0.0000 
     75 H          27.8112   45.1041  100.1744 H         1 FAD606      0.0000 
     76 H          27.8050   46.5844   99.5458 H         1 FAD606      0.0000 
     77 H          26.9638   45.4083   98.8419 H         1 FAD606      0.0000 
     78 H          31.4567   57.3781  103.6190 H         1 FAD606      0.0000 
     79 H          28.0656   60.3605  102.6020 H         1 FAD606      0.0000 
     80 H          29.3471   63.3935   95.0505 H         1 FAD606      0.0000 
     81 H          31.2963   50.5298   95.1058 H         1 FAD606      0.0000 
     82 H          29.3496   50.1931   98.6068 H         1 FAD606      0.0000 
     83 H          30.3382   53.0764   95.4979 H         1 FAD606      0.0000 
@<TRIPOS>BOND
     1    2    1 ar   
     2    3    1 ar   
     3    4    1 1    
     4   53    1 1    
     5    5    4 1    
     6    6    5 1    
     7   54    5 1    
     8   55    5 1    
     9    7    6 1    
    10    8    6 1    
    11   56    6 1    
    12   12    7 1    
    13    9    8 1    
    14   10    8 1    
    15   57    8 1    
    16   78    9 1    
    17   11   10 1    
    18   12   10 1    
    19   58   10 1    
    20   79   11 1    
    21   13   12 1    
    22   59   12 1    
    23   14   13 1    
    24   22   13 1    
    25   15   14 2    
    26   60   14 1    
    27   16   15 1    
    28   17   16 ar   
    29   22   16 ar   
    30   18   17 1    
    31   19   17 ar   
    32   80   18 1    
    33   20   19 ar   
    34   21   20 ar   
    35   61   20 1    
    36   22   21 ar   
    37   24   23 1    
    38   40   23 2    
    39   25   24 2    
    40   26   24 am   
    41   27   26 am   
    42   62   26 1    
    43   28   27 2    
    44   29   27 1    
    45   30   29 2    
    46   40   29 1    
    47   31   30 1    
    48   32   31 ar   
    49   38   31 ar   
    50   33   32 ar   
    51   63   32 1    
    52   34   33 1    
    53   35   33 ar   
    54   72   34 1    
    55   73   34 1    
    56   74   34 1    
    57   36   35 1    
    58   37   35 ar   
    59   75   36 1    
    60   76   36 1    
    61   77   36 1    
    62   38   37 ar   
    63   64   37 1    
    64   39   38 1    
    65   40   39 1    
    66   41   39 1    
    67   42   41 1    
    68   65   41 1    
    69   66   41 1    
    70   43   42 1    
    71   44   42 1    
    72   67   42 1    
    73   81   43 1    
    74   45   44 1    
    75   46   44 1    
    76   68   44 1    
    77   82   45 1    
    78   47   46 1    
    79   48   46 1    
    80   69   46 1    
    81   83   47 1    
    82   49   48 1    
    83   70   48 1    
    84   71   48 1    
    85   50   49 1    
    86   51   50 ar   
    87   52   50 ar   
    88   53   50 1    
@<TRIPOS>SUBSTRUCTURE
     1 FAD606      1 GROUP   
@<TRIPOS>SET

