#    Name: 3uvv_T3_1_INTS_M
#    Modification time : Mon Mar 24 23:37:49 2014

@<TRIPOS>MOLECULE
3uvv_T3_1_INTS_M
   83     0     6     0     0
SMALL
NO_CHARGES


@<TRIPOS>ATOM
      1 CA        -20.2165   -9.0065   18.9785 C.3       2 GLC5        0.0000 
      2 CA        -21.9880   -7.7680   19.5330 C.3       6 GLL5        0.0000 
      3 CA        -18.4450  -10.2450   18.4240 C.3       4 GLP5        0.0000 
      4 CA        -22.2355   -3.0045   15.9130 C.3       2 GLC5        0.0000 
      5 CA        -22.1480   -4.8470   14.7660 C.3       6 GLL5        0.0000 
      6 CA        -22.3230   -1.1620   17.0600 C.3       4 GLP5        0.0000 
      7 CA        -24.3305   -4.8930   14.7805 C.3       2 GLC5        0.0000 
      8 CA        -26.5130   -4.9390   14.7950 C.3       4 GLP5        0.0000 
      9 CA        -22.3080   -5.1300   12.6405 C.3       2 GLC5        0.0000 
     10 CA        -21.1170   -4.4750   13.9070 C.3       6 GLL5        0.0000 
     11 CA        -23.4990   -5.7850   11.3740 C.3       4 GLP5        0.0000 
     12 CA        -22.2725  -12.0470   19.4530 C.3       2 GLC5        0.0000 
     13 CA        -23.4190  -10.8040   20.8760 C.3       6 GLL5        0.0000 
     14 CA        -21.1260  -13.2900   18.0300 C.3       4 GLP5        0.0000 
     15 CA        -23.5420  -12.7425   21.0230 C.3       2 GLC5        0.0000 
     16 CA        -23.6650  -14.6810   21.1700 C.3       4 GLP5        0.0000 
     17 CA        -24.9520  -11.0925   19.4320 C.3       2 GLC5        0.0000 
     18 CA        -26.4850  -11.3810   17.9880 C.3       4 GLP5        0.0000 
     19 CA        -23.7905   -9.5055   22.6700 C.3       2 GLC5        0.0000 
     20 CA        -24.1620   -8.2070   24.4640 C.3       4 GLP5        0.0000 
     21 CA        -21.9195   -2.8090   18.6375 C.3       2 GLC5        0.0000 
     22 CA        -21.7000   -4.8140   18.7240 C.3       6 GLL5        0.0000 
     23 CA        -22.1390   -0.8040   18.5510 C.3       4 GLP5        0.0000 
     24 CA        -22.2615   -4.6175   20.2070 C.3       2 GLC5        0.0000 
     25 CA        -22.8230   -4.4210   21.6900 C.3       4 GLP5        0.0000 
     26 CA        -20.3915   -5.5375   18.3060 C.3       2 GLC5        0.0000 
     27 CA        -19.0830   -6.2610   17.8880 C.3       4 GLP5        0.0000 
     28 CA        -23.6340   -4.6900   18.7360 C.3       2 GLC5        0.0000 
     29 CA        -25.5680   -4.5660   18.7480 C.3       4 GLP5        0.0000 
     30 CA        -20.5355   -0.4845   12.7655 C.3       2 GLC5        0.0000 
     31 CA        -21.1040   -2.6030   13.0030 C.3       6 GLL5        0.0000 
     32 CA        -19.9670    1.6340   12.5280 C.3       4 GLP5        0.0000 
     33 CA        -22.5180   -1.9200   14.0600 C.3       2 GLC5        0.0000 
     34 CA        -23.9320   -1.2370   15.1170 C.3       4 GLP5        0.0000 
     35 CA        -21.9380   -1.6230   11.2915 C.3       2 GLC5        0.0000 
     36 CA        -22.7720   -0.6430    9.5800 C.3       4 GLP5        0.0000 
     37 CA        -22.3015   -4.1940   12.1885 C.3       2 GLC5        0.0000 
     38 CA        -20.0720   -2.0675   11.3580 C.3       2 GLC5        0.0000 
     39 CA        -19.0400   -1.5320    9.7130 C.3       4 GLP5        0.0000 
     40 CA        -22.9165   -9.8195   14.0800 C.3       2 GLC5        0.0000 
     41 CA        -24.1860   -9.3160   15.4160 C.3       6 GLL5        0.0000 
     42 CA        -21.6470  -10.3230   12.7440 C.3       4 GLP5        0.0000 
     43 CA        -24.1045  -11.4820   15.4285 C.3       2 GLC5        0.0000 
     44 CA        -24.0230  -13.6480   15.4410 C.3       4 GLP5        0.0000 
     45 CA        -25.3355  -10.3485   16.7020 C.3       2 GLC5        0.0000 
     46 CA        -25.1795   -8.1250   16.9390 C.3       2 GLC5        0.0000 
     47 CA        -26.1730   -6.9340   18.4620 C.3       4 GLP5        0.0000 
     48 CA        -24.1865   -8.0330   13.8490 C.3       2 GLC5        0.0000 
     49 CA        -24.1870   -6.7500   12.2820 C.3       4 GLP5        0.0000 
     50 CA        -24.8305   -9.9210   13.8725 C.3       2 GLC5        0.0000 
     51 CA        -25.4750  -10.5260   12.3290 C.3       4 GLP5        0.0000 
     52 N         -18.6210   -6.1425   12.0455 N.am      1 SEC2        0.0000 
     53 N         -19.0230   -5.0070   12.7670 N.am      5 SEL2        0.0000 
     54 N         -18.2190   -7.2780   11.3240 N.am      3 SEP2        0.0000 
     55 CA        -24.1698   -7.6862   18.9552 C.3       2 GLC5        0.0000 
     56 CA        -22.3450   -9.1090   19.3640 C.3       6 GLL5        0.0000 
     57 CA        -20.3315   -6.4035   16.5607 C.3       2 GLC5        0.0000 
     58 CA        -22.1010   -6.0950   15.3730 C.3       6 GLL5        0.0000 
     59 CA        -22.4703   -5.8590   20.3627 C.3       2 GLC5        0.0000 
     60 CA        -22.2470   -6.8260   18.5380 C.3       6 GLL5        0.0000 
     61 CA        -24.3705   -6.9912   18.1867 C.3       2 GLC5        0.0000 
     62 CA        -20.7931   -6.7725   18.0241 C.3       2 GLC5        0.0000 
     63 CA        -22.8890   -7.2710   17.2850 C.3       6 GLL5        0.0000 
     64 CA        -19.5445   -6.1487   15.9085 C.3       2 GLC5        0.0000 
     65 CA        -20.0070   -6.6610   14.2390 C.3       6 GLL5        0.0000 
     66 CA        -21.1665   -6.2713   12.3330 C.3       2 GLC5        0.0000 
     67 CA        -22.3270   -6.5060   10.7370 C.3       4 GLP5        0.0000 
     68 CA        -19.5865   -6.9597   12.2295 C.3       2 GLC5        0.0000 
     69 CA        -20.0050   -5.4120   13.6190 C.3       6 GLL5        0.0000 
     70 CA        -19.1670   -7.8830   10.5300 C.3       4 GLP5        0.0000 
     71 CA        -24.7897  -10.2547   17.8320 C.3       2 GLC5        0.0000 
     72 CA        -23.2400   -8.6920   17.1590 C.3       6 GLL5        0.0000 
     73 CA        -24.6337   -8.0312   18.0690 C.3       2 GLC5        0.0000 
     74 CA        -22.9490   -9.5650   18.1930 C.3       6 GLL5        0.0000 
     75 CA        -20.2685   -8.6380   14.0192 C.3       2 GLC5        0.0000 
     76 CA        -21.0590   -6.9970   15.0940 C.3       6 GLL5        0.0000 
     77 CA        -20.0040  -10.4470   13.3720 C.3       4 GLP5        0.0000 
     78 CA        -22.8894   -6.4920   13.6819 C.3       2 GLC5        0.0000 
     79 CA        -20.6369   -8.7936   21.0114 C.3       2 GLC5        0.0000 
     80 CA        -19.1330   -8.3240   22.0520 C.3       4 GLP5        0.0000 
     81 CA        -21.3340  -10.9038   18.6174 C.3       2 GLC5        0.0000 
     82 CA        -22.1150  -10.0880   20.4930 C.3       6 GLL5        0.0000 
     83 CA        -20.2870  -12.0950   17.5990 C.3       4 GLP5        0.0000 
@<TRIPOS>BOND
@<TRIPOS>SUBSTRUCTURE
     1 SEC2       52 GROUP        1 X    SEC  0     ROOT SEC X 2
     2 GLC5        1 GROUP        1 X    GLC  0     **** GLC X 6
     3 SEP2       54 GROUP        1 Y    SEP  0     ROOT SEP Y 9
     4 GLP5        3 GROUP        1 Y    GLP  0     **** GLP Y 13
     5 SEL2       53 GROUP        1 Z    SEL  0     ROOT SEL Z 16
     6 GLL5        2 GROUP        1 Z    GLL  0     **** GLL Z 20
@<TRIPOS>SET

