#    Name: 3uvv_T3_1_ligand
#    Modification time : Mon Mar 24 23:37:49 2014

@<TRIPOS>MOLECULE
3uvv_T3_1_ligand
   35    36     1     0     0
SMALL
NO_CHARGES


@<TRIPOS>ATOM
      1 C1        -22.3450   -9.1090   19.3640 C.ar      1 T351        0.0000 
      2 C2        -22.1010   -6.0950   15.3730 C.ar      1 T351        0.0000 
      3 C3        -21.9880   -7.7680   19.5330 C.ar      1 T351        0.0000 
      4 C4        -22.1480   -4.8470   14.7660 C.ar      1 T351        0.0000 
      5 C5        -22.2470   -6.8260   18.5380 C.ar      1 T351        0.0000 
      6 C6        -21.1170   -4.4750   13.9070 C.ar      1 T351        0.0000 
      7 C7        -22.8890   -7.2710   17.2850 C.ar      1 T351        0.0000 
      8 C8        -20.0050   -5.4120   13.6190 C.ar      1 T351        0.0000 
      9 C9        -23.2400   -8.6920   17.1590 C.ar      1 T351        0.0000 
     10 C10       -20.0070   -6.6610   14.2390 C.ar      1 T351        0.0000 
     11 C11       -22.9490   -9.5650   18.1930 C.ar      1 T351        0.0000 
     12 C12       -21.0590   -6.9970   15.0940 C.ar      1 T351        0.0000 
     13 C13       -22.1150  -10.0880   20.4930 C.3       1 T351        0.0000 
     14 C15       -23.4190  -10.8040   20.8760 C.3       1 T351        0.0000 
     15 C17       -23.3190  -11.3720   22.2590 C.2       1 T351        0.0000 
     16 I1        -21.7000   -4.8140   18.7240 I         1 T351        0.0000 
     17 I2        -21.1040   -2.6030   13.0030 I         1 T351        0.0000 
     18 I3        -24.1860   -9.3160   15.4160 I         1 T351        0.0000 
     19 N1        -24.5900   -9.9460   20.8030 N.4       1 T351        0.0000 
     20 O1        -19.0230   -5.0070   12.7670 O.3       1 T351        0.0000 
     21 O2        -23.1180   -6.4120   16.2370 O.3       1 T351        0.0000 
     22 O3        -24.3290  -11.3090   23.0050 O.co2     1 T351        0.0000 
     23 O4        -22.2360  -11.9010   22.6050 O.co2     1 T351        0.0000 
     24 H         -21.5257   -7.4721   20.4082 H         1 T351        0.0000 
     25 H         -22.9260   -4.2103   14.9456 H         1 T351        0.0000 
     26 H         -19.2481   -7.3235   14.0704 H         1 T351        0.0000 
     27 H         -23.1808  -10.5688   18.1001 H         1 T351        0.0000 
     28 H         -21.0757   -7.9344   15.5363 H         1 T351        0.0000 
     29 H         -21.7347   -9.5593   21.3676 H         1 T351        0.0000 
     30 H         -21.3804  -10.8346   20.1895 H         1 T351        0.0000 
     31 H         -23.5425  -11.6503   20.1837 H         1 T351        0.0000 
     32 H         -25.2642  -10.2924   20.1507 H         1 T351        0.0000 
     33 H         -25.0502   -9.8698   21.6875 H         1 T351        0.0000 
     34 H         -24.3532   -9.0182   20.5149 H         1 T351        0.0000 
     35 H         -18.4456   -4.4296   13.3444 H         1 T351        0.0000 
@<TRIPOS>BOND
     1    3    1 ar   
     2   11    1 ar   
     3   13    1 1    
     4    4    2 ar   
     5   12    2 ar   
     6   21    2 1    
     7    5    3 ar   
     8   24    3 1    
     9    6    4 ar   
    10   25    4 1    
    11    7    5 ar   
    12   16    5 1    
    13    8    6 ar   
    14   17    6 1    
    15    9    7 ar   
    16   21    7 1    
    17   10    8 ar   
    18   20    8 1    
    19   11    9 ar   
    20   18    9 1    
    21   12   10 ar   
    22   26   10 1    
    23   27   11 1    
    24   28   12 1    
    25   14   13 1    
    26   29   13 1    
    27   30   13 1    
    28   15   14 1    
    29   19   14 1    
    30   31   14 1    
    31   22   15 ar   
    32   23   15 ar   
    33   32   19 1    
    34   33   19 1    
    35   34   19 1    
    36   35   20 1    
@<TRIPOS>SUBSTRUCTURE
     1 T351        1 GROUP   
@<TRIPOS>SET

