#    Name: 4m0l_GDP_2_INTS_M
#    Modification time : Tue Mar 25 11:46:42 2014

@<TRIPOS>MOLECULE
4m0l_GDP_2_INTS_M
   62     0    15     0     0
SMALL
NO_CHARGES


@<TRIPOS>ATOM
      1 NZ        -30.8590   -5.1385  -50.2750 N.4       3 LYC4        0.0000 
      2 NZ        -29.6820   -5.2370  -50.2670 N.4      13 LYL4        0.0000 
      3 NZ        -32.0360   -5.0400  -50.2830 N.4       8 LYP4        0.0000 
      4 N         -28.9800   -3.6770  -50.1055 N.am      2 SEC2        0.0000 
      5 N         -29.6820   -5.2370  -50.2670 N.am     12 SEL2        0.0000 
      6 N         -28.2780   -2.1170  -49.9440 N.am      7 SEP2        0.0000 
      7 N         -28.4795   -4.6885  -49.3830 N.am      2 SEC2        0.0000 
      8 N         -27.2770   -4.1400  -48.4990 N.am      7 SEP2        0.0000 
      9 N         -29.1105   -5.8790  -49.0460 N.am      2 SEC2        0.0000 
     10 N         -28.5390   -6.5210  -47.8250 N.am      7 SEP2        0.0000 
     11 N         -30.8590   -5.1385  -50.2750 N.am      2 SEC2        0.0000 
     12 N         -32.0360   -5.0400  -50.2830 N.am      7 SEP2        0.0000 
     13 NZ        -30.5090   -5.0105  -51.4740 N.4       3 LYC4        0.0000 
     14 NZ        -28.9820   -4.9810  -52.6650 N.4      13 LYL4        0.0000 
     15 N         -29.0820   -3.7100  -52.5995 N.am      2 SEC2        0.0000 
     16 N         -28.9820   -4.9810  -52.6650 N.am     12 SEL2        0.0000 
     17 N         -29.1820   -2.4390  -52.5340 N.am      7 SEP2        0.0000 
     18 NZ        -30.5375   -6.1545  -50.9410 N.4       3 LYC4        0.0000 
     19 NZ        -29.0390   -7.2690  -51.5990 N.4      13 LYL4        0.0000 
     20 Zn        -29.4560   -8.0165  -52.1900 Zn        4 ZIC7        0.0000 
     21 Zn        -29.0390   -7.2690  -51.5990 Zn       14 ZIL7        0.0000 
     22 Zn        -29.8730   -8.7640  -52.7810 Zn        9 ZIP7        0.0000 
     23 N         -28.8180   -8.2570  -50.2445 N.am      2 SEC2        0.0000 
     24 N         -29.0390   -7.2690  -51.5990 N.am     12 SEL2        0.0000 
     25 N         -28.5970   -9.2450  -48.8900 N.am      7 SEP2        0.0000 
     26 N         -27.3220   -4.8665  -49.7325 N.am      2 SEC2        0.0000 
     27 N         -27.3670   -5.5930  -50.9660 N.am     12 SEL2        0.0000 
     28 N         -25.9925   -8.7420  -49.4320 N.am      2 SEC2        0.0000 
     29 N         -26.1310   -7.6730  -50.2900 N.am     12 SEL2        0.0000 
     30 N         -25.8540   -9.8110  -48.5740 N.am      7 SEP2        0.0000 
     31 N         -24.8470   -8.0040  -49.8745 N.am      2 SEC2        0.0000 
     32 N         -23.5630   -8.3350  -49.4590 N.am      7 SEP2        0.0000 
     33 CA        -26.2175   -3.5320  -52.3725 C.3       5 GLC5        0.0000 
     34 CA        -24.6870   -4.8410  -52.4270 C.3      15 GLL5        0.0000 
     35 CA        -27.7480   -2.2230  -52.3180 C.3      10 GLP5        0.0000 
     36 CA        -22.9230   -2.6180  -49.3940 C.3       5 GLC5        0.0000 
     37 CA        -21.9740   -3.9940  -50.3890 C.3      15 GLL5        0.0000 
     38 CA        -23.8720   -1.2420  -48.3990 C.3      10 GLP5        0.0000 
     39 N         -23.9615   -4.5740  -45.9535 N.am      2 SEC2        0.0000 
     40 N         -22.7750   -4.9980  -46.9750 N.am     12 SEL2        0.0000 
     41 N         -25.1480   -4.1500  -44.9320 N.am      7 SEP2        0.0000 
     42 CA        -22.4660   -2.5625  -46.3715 C.3       5 GLC5        0.0000 
     43 CA        -21.7670   -4.1520  -46.7240 C.3      15 GLL5        0.0000 
     44 CA        -23.1650   -0.9730  -46.0190 C.3      10 GLP5        0.0000 
     45 CA        -22.6410   -5.7335  -45.4105 C.3       5 GLC5        0.0000 
     46 CA        -23.5150   -7.3150  -44.0970 C.3      10 GLP5        0.0000 
     47 N         -20.2140   -3.9635  -43.3200 N.am      2 SEC2        0.0000 
     48 N         -21.3880   -4.0410  -44.3900 N.am     12 SEL2        0.0000 
     49 N         -19.0400   -3.8860  -42.2500 N.am      7 SEP2        0.0000 
     50 N         -20.8600   -5.4785  -44.4920 N.am      2 SEC2        0.0000 
     51 N         -20.3320   -6.9160  -44.5940 N.am      7 SEP2        0.0000 
     52 O         -19.4555   -2.3820  -44.5715 O.2       1 ALC1        0.0000 
     53 O         -20.0700   -2.7820  -45.7020 O.2      11 ALL1        0.0000 
     54 O         -18.8410   -1.9820  -43.4410 O.2       6 ALP1        0.0000 
     55 O         -18.6920   -1.9020  -45.1965 O.2       1 ALC1        0.0000 
     56 O         -17.3140   -1.0220  -44.6910 O.2       6 ALP1        0.0000 
     57 O         -18.0010   -1.2450  -45.8510 O.2       1 ALC1        0.0000 
     58 O         -18.6880   -1.4680  -47.0110 O.2      11 ALL1        0.0000 
     59 CA        -22.5940   -2.4425  -48.2095 C.3       5 GLC5        0.0000 
     60 CA        -21.3160   -3.6430  -48.0200 C.3      15 GLL5        0.0000 
     61 CA        -20.1747   -4.9688  -46.8365 C.3       5 GLC5        0.0000 
     62 CA        -18.8080   -6.0400  -46.3010 C.3      10 GLP5        0.0000 
@<TRIPOS>BOND
@<TRIPOS>SUBSTRUCTURE
     1 ALC1       52 GROUP        1 X    ALC  0     ROOT ALC X 1
     2 SEC2        4 GROUP        1 X    SEC  0     **** SEC X 2
     3 LYC4        1 GROUP        1 X    LYC  0     **** LYC X 4
     4 ZIC7       20 GROUP        1 X    ZIC  0     **** ZIC X 5
     5 GLC5       33 GROUP        1 X    GLC  0     **** GLC X 6
     6 ALP1       54 GROUP        1 Y    ALP  0     ROOT ALP Y 8
     7 SEP2        6 GROUP        1 Y    SEP  0     **** SEP Y 9
     8 LYP4        3 GROUP        1 Y    LYP  0     **** LYP Y 11
     9 ZIP7       22 GROUP        1 Y    ZIP  0     **** ZIP Y 12
    10 GLP5       35 GROUP        1 Y    GLP  0     **** GLP Y 13
    11 ALL1       53 GROUP        1 Z    ALL  0     ROOT ALL Z 15
    12 SEL2        5 GROUP        1 Z    SEL  0     **** SEL Z 16
    13 LYL4        2 GROUP        1 Z    LYL  0     **** LYL Z 18
    14 ZIL7       21 GROUP        1 Z    ZIL  0     **** ZIL Z 19
    15 GLL5       34 GROUP        1 Z    GLL  0     **** GLL Z 20
@<TRIPOS>SET

