#    Name: 4m0l_GDP_2_ligand
#    Modification time : Tue Mar 25 11:46:42 2014

@<TRIPOS>MOLECULE
4m0l_GDP_2_ligand
   40    42     1     0     0
SMALL
NO_CHARGES


@<TRIPOS>ATOM
      1 PB        -28.8870   -5.7900  -51.4080 P.3       1 GDP501      0.0000 
      2 O1B       -29.6820   -5.2370  -50.2670 O.co2     1 GDP501      0.0000 
      3 O2B       -28.9820   -4.9810  -52.6650 O.co2     1 GDP501      0.0000 
      4 O3B       -29.0390   -7.2690  -51.5990 O.co2     1 GDP501      0.0000 
      5 O3A       -27.3670   -5.5930  -50.9660 O.3       1 GDP501      0.0000 
      6 PA        -26.2420   -6.6470  -51.3740 P.3       1 GDP501      0.0000 
      7 O1A       -26.1310   -7.6730  -50.2900 O.co2     1 GDP501      0.0000 
      8 O2A       -26.4990   -7.0820  -52.7840 O.co2     1 GDP501      0.0000 
      9 O5'       -24.9200   -5.7490  -51.3580 O.3       1 GDP501      0.0000 
     10 C5'       -24.6870   -4.8410  -52.4270 C.3       1 GDP501      0.0000 
     11 C4'       -23.3510   -4.1360  -52.2610 C.3       1 GDP501      0.0000 
     12 O4'       -23.2350   -3.6270  -50.9380 O.3       1 GDP501      0.0000 
     13 C3'       -22.1820   -5.0780  -52.4760 C.3       1 GDP501      0.0000 
     14 O3'       -21.2290   -4.4490  -53.3330 O.3       1 GDP501      0.0000 
     15 C2'       -21.5660   -5.2590  -51.1120 C.3       1 GDP501      0.0000 
     16 O2'       -20.1480   -5.3550  -51.2130 O.3       1 GDP501      0.0000 
     17 C1'       -21.9740   -3.9940  -50.3890 C.3       1 GDP501      0.0000 
     18 N9        -22.0830   -4.2230  -48.9350 N.pl3     1 GDP501      0.0000 
     19 C8        -22.9560   -5.0300  -48.3150 C.2       1 GDP501      0.0000 
     20 N7        -22.7750   -4.9980  -46.9750 N.2       1 GDP501      0.0000 
     21 C5        -21.7670   -4.1520  -46.7240 C.2       1 GDP501      0.0000 
     22 C6        -21.0640   -3.6550  -45.5270 C.2       1 GDP501      0.0000 
     23 O6        -21.3880   -4.0410  -44.3900 O.2       1 GDP501      0.0000 
     24 N1        -20.0700   -2.7820  -45.7020 N.am      1 GDP501      0.0000 
     25 C2        -19.7010   -2.3520  -46.9180 C.2       1 GDP501      0.0000 
     26 N2        -18.6880   -1.4680  -47.0110 N.pl3     1 GDP501      0.0000 
     27 N3        -20.2980   -2.7600  -48.0560 N.2       1 GDP501      0.0000 
     28 C4        -21.3160   -3.6430  -48.0200 C.2       1 GDP501      0.0000 
     29 H         -25.4706   -4.0668  -52.4813 H         1 GDP501      0.0000 
     30 H         -24.6762   -5.3553  -53.4026 H         1 GDP501      0.0000 
     31 H         -23.2822   -3.3402  -52.9838 H         1 GDP501      0.0000 
     32 H         -22.5315   -5.9958  -52.8332 H         1 GDP501      0.0000 
     33 H         -22.0221   -6.0835  -50.6386 H         1 GDP501      0.0000 
     34 H         -21.2358   -3.2413  -50.5969 H         1 GDP501      0.0000 
     35 H         -23.6379   -5.5741  -48.7673 H         1 GDP501      0.0000 
     36 H         -19.5520   -2.4136  -44.8525 H         1 GDP501      0.0000 
     37 H         -18.4213   -1.2002  -47.9368 H         1 GDP501      0.0000 
     38 H         -18.2932   -1.1586  -46.1459 H         1 GDP501      0.0000 
     39 H         -20.4061   -4.3471  -52.7741 H         1 GDP501      0.0000 
     40 H         -19.7969   -4.6213  -50.6312 H         1 GDP501      0.0000 
@<TRIPOS>BOND
     1    2    1 ar   
     2    3    1 ar   
     3    4    1 ar   
     4    5    1 1    
     5    6    5 1    
     6    7    6 ar   
     7    8    6 ar   
     8    9    6 1    
     9   10    9 1    
    10   11   10 1    
    11   29   10 1    
    12   30   10 1    
    13   12   11 1    
    14   13   11 1    
    15   31   11 1    
    16   17   12 1    
    17   14   13 1    
    18   15   13 1    
    19   32   13 1    
    20   39   14 1    
    21   16   15 1    
    22   17   15 1    
    23   33   15 1    
    24   40   16 1    
    25   18   17 1    
    26   34   17 1    
    27   19   18 1    
    28   28   18 1    
    29   20   19 2    
    30   35   19 1    
    31   21   20 1    
    32   22   21 1    
    33   28   21 2    
    34   23   22 2    
    35   24   22 am   
    36   25   24 1    
    37   36   24 1    
    38   26   25 1    
    39   27   25 2    
    40   37   26 1    
    41   38   26 1    
    42   28   27 1    
@<TRIPOS>SUBSTRUCTURE
     1 GDP501      1 GROUP   
@<TRIPOS>SET

