#    Name: 3dys_5GP_1_INTS_M
#    Modification time : Tue Mar 25 00:45:57 2014

@<TRIPOS>MOLECULE
3dys_5GP_1_INTS_M
   49     0    12     0     0
SMALL
NO_CHARGES


@<TRIPOS>ATOM
      1 Zn         84.8995   48.3800   38.7505 Zn        3 ZIC7        0.0000 
      2 Zn         84.1700   49.2550   38.9640 Zn       11 ZIL7        0.0000 
      3 Zn         85.6290   47.5050   38.5370 Zn        7 ZIP7        0.0000 
      4 Zn         84.8985   47.6035   41.5335 Zn        3 ZIC7        0.0000 
      5 Zn         84.5290   47.2120   40.4970 Zn       11 ZIL7        0.0000 
      6 Zn         85.2680   47.9950   42.5700 Zn        7 ZIP7        0.0000 
      7 Zn         85.0790   47.3585   39.5170 Zn        3 ZIC7        0.0000 
      8 N          83.7680   46.3555   41.1315 N.am      2 SEC2        0.0000 
      9 N          84.5290   47.2120   40.4970 N.am     10 SEL2        0.0000 
     10 N          83.0070   45.4990   41.7660 N.am      6 SEP2        0.0000 
     11 Zn         84.4210   48.6600   42.0275 Zn        3 ZIC7        0.0000 
     12 Zn         83.5740   49.3250   41.4850 Zn       11 ZIL7        0.0000 
     13 N          83.9695   50.6670   40.8840 N.am      2 SEC2        0.0000 
     14 N          83.5740   49.3250   41.4850 N.am     10 SEL2        0.0000 
     15 N          84.3650   52.0090   40.2830 N.am      6 SEP2        0.0000 
     16 N          82.6350   46.7330   40.7520 N.am      2 SEC2        0.0000 
     17 N          82.2630   47.9670   39.7380 N.am     10 SEL2        0.0000 
     18 CA         82.5210   51.9645   40.0765 C.3       4 GLC5        0.0000 
     19 CA         80.8190   50.6720   40.2920 C.3      12 GLL5        0.0000 
     20 CA         84.2230   53.2570   39.8610 C.3       8 GLP5        0.0000 
     21 N          83.0900   51.5565   39.8270 N.am      2 SEC2        0.0000 
     22 N          81.8150   51.1040   39.3710 N.am     10 SEL2        0.0000 
     23 CA         80.0780   53.4055   40.8230 C.3       4 GLC5        0.0000 
     24 CA         79.5910   51.5400   40.2460 C.3      12 GLL5        0.0000 
     25 CA         80.5650   55.2710   41.4000 C.3       8 GLP5        0.0000 
     26 N          78.6190   53.0260   38.7370 N.am      2 SEC2        0.0000 
     27 N          79.3680   51.9630   38.8970 N.am     10 SEL2        0.0000 
     28 N          77.8700   54.0890   38.5770 N.am      6 SEP2        0.0000 
     29 CA         76.8110   49.6875   41.7425 C.3       4 GLC5        0.0000 
     30 CA         78.4760   50.6160   40.7190 C.3      12 GLL5        0.0000 
     31 CA         75.1460   48.7590   42.7660 C.3       8 GLP5        0.0000 
     32 N          75.3620   53.3690   46.5825 N.am      2 SEC2        0.0000 
     33 N          76.3500   52.4570   45.9840 N.am     10 SEL2        0.0000 
     34 N          74.3740   54.2810   47.1810 N.am      6 SEP2        0.0000 
     35 O          74.5760   53.8905   44.5465 O.2       1 ALC1        0.0000 
     36 O          75.3490   53.0430   44.0300 O.2       9 ALL1        0.0000 
     37 O          73.8030   54.7380   45.0630 O.2       5 ALP1        0.0000 
     38 O          72.8890   54.1195   42.3230 O.2       1 ALC1        0.0000 
     39 O          74.3330   53.6090   41.9990 O.2       9 ALL1        0.0000 
     40 O          71.4450   54.6300   42.6470 O.2       5 ALP1        0.0000 
     41 O          74.0680   54.1735   43.5310 O.2       1 ALC1        0.0000 
     42 CA         79.5055   47.5913   39.2347 C.3       4 GLC5        0.0000 
     43 CA         80.2440   49.2880   39.9750 C.3      12 GLL5        0.0000 
     44 CA         78.3560   46.4790   38.2300 C.3       8 GLP5        0.0000 
     45 CA         79.5955   47.6328   41.6257 C.3       4 GLC5        0.0000 
     46 CA         78.5360   46.5620   43.0120 C.3       8 GLP5        0.0000 
     47 CA         77.7208   53.3050   42.8125 C.3       4 GLC5        0.0000 
     48 CA         77.1800   51.6370   42.5740 C.3      12 GLL5        0.0000 
     49 CA         78.2200   54.9560   42.3200 C.3       8 GLP5        0.0000 
@<TRIPOS>BOND
@<TRIPOS>SUBSTRUCTURE
     1 ALC1       35 GROUP        1 X    ALC  0     ROOT ALC X 1
     2 SEC2        8 GROUP        1 X    SEC  0     **** SEC X 2
     3 ZIC7        1 GROUP        1 X    ZIC  0     **** ZIC X 5
     4 GLC5       18 GROUP        1 X    GLC  0     **** GLC X 6
     5 ALP1       37 GROUP        1 Y    ALP  0     ROOT ALP Y 8
     6 SEP2       10 GROUP        1 Y    SEP  0     **** SEP Y 9
     7 ZIP7        3 GROUP        1 Y    ZIP  0     **** ZIP Y 12
     8 GLP5       20 GROUP        1 Y    GLP  0     **** GLP Y 13
     9 ALL1       36 GROUP        1 Z    ALL  0     ROOT ALL Z 15
    10 SEL2        9 GROUP        1 Z    SEL  0     **** SEL Z 16
    11 ZIL7        2 GROUP        1 Z    ZIL  0     **** ZIL Z 19
    12 GLL5       19 GROUP        1 Z    GLL  0     **** GLL Z 20
@<TRIPOS>SET

