#    Name: 3dys_5GP_1_ligand
#    Modification time : Tue Mar 25 00:45:57 2014

@<TRIPOS>MOLECULE
3dys_5GP_1_ligand
   36    38     1     0     0
SMALL
NO_CHARGES


@<TRIPOS>ATOM
      1 P          83.7370   48.4720   40.2180 P.3       1 5GP900      0.0000 
      2 O1P        84.1700   49.2550   38.9640 O.co2     1 5GP900      0.0000 
      3 O2P        84.5290   47.2120   40.4970 O.co2     1 5GP900      0.0000 
      4 O3P        83.5740   49.3250   41.4850 O.co2     1 5GP900      0.0000 
      5 O5'        82.2630   47.9670   39.7380 O.3       1 5GP900      0.0000 
      6 C5'        81.0660   48.1190   40.5040 C.3       1 5GP900      0.0000 
      7 C4'        80.2440   49.2880   39.9750 C.3       1 5GP900      0.0000 
      8 O4'        78.9520   49.2830   40.5880 O.3       1 5GP900      0.0000 
      9 C3'        80.8190   50.6720   40.2920 C.3       1 5GP900      0.0000 
     10 O3'        81.8150   51.1040   39.3710 O.3       1 5GP900      0.0000 
     11 C2'        79.5910   51.5400   40.2460 C.3       1 5GP900      0.0000 
     12 O2'        79.3680   51.9630   38.8970 O.3       1 5GP900      0.0000 
     13 C1'        78.4760   50.6160   40.7190 C.3       1 5GP900      0.0000 
     14 N9         78.1860   50.8940   42.1460 N.pl3     1 5GP900      0.0000 
     15 C8         78.8980   50.4840   43.2060 C.2       1 5GP900      0.0000 
     16 N7         78.3430   50.9370   44.3560 N.2       1 5GP900      0.0000 
     17 C5         77.2630   51.6710   44.0360 C.2       1 5GP900      0.0000 
     18 C6         76.3100   52.3970   44.7360 C.2       1 5GP900      0.0000 
     19 O6         76.3500   52.4570   45.9840 O.2       1 5GP900      0.0000 
     20 N1         75.3490   53.0430   44.0300 N.am      1 5GP900      0.0000 
     21 C2         75.2980   52.9840   42.6720 C.2       1 5GP900      0.0000 
     22 N2         74.3330   53.6090   41.9990 N.pl3     1 5GP900      0.0000 
     23 N3         76.1940   52.2910   41.9460 N.2       1 5GP900      0.0000 
     24 C4         77.1800   51.6370   42.5740 C.2       1 5GP900      0.0000 
     25 H          81.2850   48.3141   41.5629 H         1 5GP900      0.0000 
     26 H          80.4383   47.2184   40.4572 H         1 5GP900      0.0000 
     27 H          80.1421   49.2052   38.9054 H         1 5GP900      0.0000 
     28 H          81.1586   50.6466   41.3123 H         1 5GP900      0.0000 
     29 H          79.6982   52.3295   40.9291 H         1 5GP900      0.0000 
     30 H          77.6153   50.7917   40.1234 H         1 5GP900      0.0000 
     31 H          79.7076   49.9335   43.1629 H         1 5GP900      0.0000 
     32 H          74.6242   53.6041   44.5438 H         1 5GP900      0.0000 
     33 H          74.3848   53.5532   41.0019 H         1 5GP900      0.0000 
     34 H          73.6438   54.0777   42.5515 H         1 5GP900      0.0000 
     35 H          82.2118   50.2621   39.0053 H         1 5GP900      0.0000 
     36 H          80.2231   51.7632   38.4186 H         1 5GP900      0.0000 
@<TRIPOS>BOND
     1    2    1 ar   
     2    3    1 ar   
     3    4    1 ar   
     4    5    1 1    
     5    6    5 1    
     6    7    6 1    
     7   25    6 1    
     8   26    6 1    
     9    8    7 1    
    10    9    7 1    
    11   27    7 1    
    12   13    8 1    
    13   10    9 1    
    14   11    9 1    
    15   28    9 1    
    16   35   10 1    
    17   12   11 1    
    18   13   11 1    
    19   29   11 1    
    20   36   12 1    
    21   14   13 1    
    22   30   13 1    
    23   15   14 1    
    24   24   14 1    
    25   16   15 2    
    26   31   15 1    
    27   17   16 1    
    28   18   17 1    
    29   24   17 2    
    30   19   18 2    
    31   20   18 am   
    32   21   20 1    
    33   32   20 1    
    34   22   21 1    
    35   23   21 2    
    36   33   22 1    
    37   34   22 1    
    38   24   23 1    
@<TRIPOS>SUBSTRUCTURE
     1 5GP900      1 GROUP   
@<TRIPOS>SET

