#    Name: 1KPI_1_CAVITY_N1_6.mol2
#    Modification time : Mon Mar 10 12:41:41 2014

@<TRIPOS>MOLECULE
1KPI_1_CAVITY_N1_6.mol2
   46     0     6     0     0
SMALL
NO_CHARGES


@<TRIPOS>ATOM
      1 NZ        100.8441   45.2745   17.4861 N.2       3 LYS4        0.0000 
      2 CA        101.4202   44.6348   16.2578 C.3       5 GLY6        0.0000 
      3 CA        101.0791   45.8587   15.4604 C.3       5 GLY6        0.0000 
      4 CA        101.6553   45.2191   14.2321 C.3       5 GLY6        0.0000 
      5 N         101.3141   46.4430   13.4347 N.2       2 ALA2        0.0000 
      6 CA        102.2314   44.5794   13.0037 C.3       5 GLY6        0.0000 
      7 CA        100.4191   42.8253   16.7305 C.3       5 GLY6        0.0000 
      8 CZ        100.0780   44.0492   15.9331 C.ar      4 PHE5        0.0000 
      9 O          99.3957   46.4970   14.3385 O.2       2 ALA2        0.0000 
     10 CA        100.9953   42.1857   15.5021 C.3       5 GLY6        0.0000 
     11 CA        100.6541   43.4096   14.7048 C.3       5 GLY6        0.0000 
     12 DU        100.3130   44.6335   13.9074 H         6 CUB7        0.0000 
     13 O          99.9719   45.8573   13.1101 O.2       2 ALA2        0.0000 
     14 CA        101.5714   41.5460   14.2737 C.3       5 GLY6        0.0000 
     15 CA        101.2303   42.7699   13.4764 C.3       5 GLY6        0.0000 
     16 CA        100.8891   43.9938   12.6791 C.3       5 GLY6        0.0000 
     17 CA        102.1476   40.9064   13.0453 C.3       5 GLY6        0.0000 
     18 O         101.8064   42.1303   12.2480 O.2       2 ALA2        0.0000 
     19 CA         99.0768   42.2397   16.4058 C.3       5 GLY6        0.0000 
     20 CA         99.9941   40.3762   15.9748 C.3       5 GLY6        0.0000 
     21 CA         99.6530   41.6001   15.1775 C.3       5 GLY6        0.0000 
     22 CZ         99.3119   42.8240   14.3801 C.ar      4 PHE5        0.0000 
     23 CZ         98.9707   44.0478   13.5828 C.ar      4 PHE5        0.0000 
     24 CA        100.5703   39.7365   14.7464 C.3       5 GLY6        0.0000 
     25 CA        100.2291   40.9604   13.9491 C.3       5 GLY6        0.0000 
     26 CA         99.8880   42.1843   13.1518 C.3       5 GLY6        0.0000 
     27 CA        101.1464   39.0969   13.5180 C.3       5 GLY6        0.0000 
     28 CA        100.8053   40.3208   12.7207 C.3       5 GLY6        0.0000 
     29 CA        100.4642   41.5446   11.9234 C.3       5 GLY6        0.0000 
     30 N         101.3814   39.6811   11.4923 N.2       2 ALA2        0.0000 
     31 OG        101.0403   40.9050   10.6950 O.2       1 SER1        0.0000 
     32 N          98.3107   41.0144   14.8528 N.2       2 ALA2        0.0000 
     33 CA         97.9696   42.2383   14.0555 C.3       5 GLY6        0.0000 
     34 CA         98.8869   40.3748   13.6245 C.3       5 GLY6        0.0000 
     35 CA         98.5457   41.5987   12.8271 C.3       5 GLY6        0.0000 
     36 CZ         99.8042   38.5113   13.1934 C.ar      4 PHE5        0.0000 
     37 CZ         99.4630   39.7351   12.3961 C.ar      4 PHE5        0.0000 
     38 CA         99.1219   40.9590   11.5988 C.3       5 GLY6        0.0000 
     39 N         100.0392   39.0955   11.1677 N.2       2 ALA2        0.0000 
     40 N          99.6980   40.3194   10.3704 N.2       2 ALA2        0.0000 
     41 N         100.6153   38.4558    9.9393 N.2       2 ALA2        0.0000 
     42 CA         97.5446   39.7892   13.2998 C.3       5 GLY6        0.0000 
     43 N          98.1208   39.1495   12.0715 N.2       2 ALA2        0.0000 
     44 CA         97.7796   40.3734   11.2741 C.3       5 GLY6        0.0000 
     45 CZ         98.6969   38.5099   10.8431 C.ar      4 PHE5        0.0000 
     46 N          98.3558   39.7338   10.0458 N.2       2 ALA2        0.0000 
@<TRIPOS>BOND
@<TRIPOS>SUBSTRUCTURE
     1 SER1       31 GROUP   
     2 ALA2        5 GROUP   
     3 LYS4        1 GROUP   
     4 PHE5        8 GROUP   
     5 GLY6        2 GROUP   
     6 CUB7       12 GROUP   
@<TRIPOS>SET

