#    Name: 1kpi_SAH_1_INTS_M
#    Modification time : Mon Apr  7 13:42:20 2014

@<TRIPOS>MOLECULE
1kpi_SAH_1_INTS_M
   79     0     9     0     0
SMALL
NO_CHARGES


@<TRIPOS>ATOM
      1 O          96.7770   41.0410    7.9095 O.2       1 ALC1        0.0000 
      2 O          95.9590   40.1080    7.3070 O.2       7 ALL1        0.0000 
      3 O          97.5950   41.9740    8.5120 O.2       4 ALP1        0.0000 
      4 O          94.9610   39.8725    8.1650 O.2       1 ALC1        0.0000 
      5 O          93.9630   39.6370    9.0230 O.2       4 ALP1        0.0000 
      6 O          95.7580   40.8140    6.0935 O.2       1 ALC1        0.0000 
      7 O          95.5570   41.5200    4.8800 O.2       4 ALP1        0.0000 
      8 CA         98.0665   40.9375    6.5740 C.3       3 GLC5        0.0000 
      9 CA         96.8710   39.0920    6.7780 C.3       9 GLL5        0.0000 
     10 CA         99.2620   42.7830    6.3700 C.3       6 GLP5        0.0000 
     11 CA         99.2475   36.1045   11.1190 C.3       3 GLC5        0.0000 
     12 CA         98.1420   37.2120   10.3700 C.3       9 GLL5        0.0000 
     13 CA        100.3530   34.9970   11.8680 C.3       6 GLP5        0.0000 
     14 CA         98.5330   35.1415    9.7460 C.3       3 GLC5        0.0000 
     15 CA         98.9240   33.0710    9.1220 C.3       6 GLP5        0.0000 
     16 N          93.7060   37.2460    6.1425 N.am      2 SEC2        0.0000 
     17 N          94.8560   38.0450    6.0190 N.am      8 SEL2        0.0000 
     18 N          92.5560   36.4470    6.2660 N.am      5 SEP2        0.0000 
     19 N          96.6035   35.8030    5.2040 N.am      2 SEC2        0.0000 
     20 N          96.7650   37.1750    5.3270 N.am      8 SEL2        0.0000 
     21 N          96.4420   34.4310    5.0810 N.am      5 SEP2        0.0000 
     22 CA         99.1030   37.0425   12.3770 C.3       3 GLC5        0.0000 
     23 CA         98.2410   38.4490   11.7110 C.3       9 GLL5        0.0000 
     24 CA         99.9650   35.6360   13.0430 C.3       6 GLP5        0.0000 
     25 CA         96.7400   39.6135   12.4260 C.3       3 GLC5        0.0000 
     26 CA         95.2390   40.7780   13.1410 C.3       6 GLP5        0.0000 
     27 CA         98.1735   38.3450   13.8560 C.3       3 GLC5        0.0000 
     28 CA         98.1060   38.2410   16.0010 C.3       6 GLP5        0.0000 
     29 CA         98.8120   41.5905   10.6610 C.3       3 GLC5        0.0000 
     30 CA         99.0120   39.6870   11.2630 C.3       9 GLL5        0.0000 
     31 CA         98.6120   43.4940   10.0590 C.3       6 GLP5        0.0000 
     32 CA         97.4405   40.8140   11.8280 C.3       3 GLC5        0.0000 
     33 CA         95.8690   41.9410   12.3930 C.3       6 GLP5        0.0000 
     34 CA        100.7075   37.8955   12.4735 C.3       3 GLC5        0.0000 
     35 CA        100.5220   39.4570   11.1440 C.3       9 GLL5        0.0000 
     36 CA        100.8930   36.3340   13.8030 C.3       6 GLP5        0.0000 
     37 CA        100.6595   39.3850    8.9550 C.3       3 GLC5        0.0000 
     38 CA        100.7970   39.3130    6.7660 C.3       6 GLP5        0.0000 
     39 N         100.6335   40.2935    8.4460 N.am      2 SEC2        0.0000 
     40 N         101.0000   39.9450    9.8650 N.am      8 SEL2        0.0000 
     41 N         100.2670   40.6420    7.0270 N.am      5 SEP2        0.0000 
     42 N         102.1035   39.5135    9.4420 N.am      2 SEC2        0.0000 
     43 N         103.2070   39.0820    9.0190 N.am      5 SEP2        0.0000 
     44 CA        102.1530   39.6690   13.7725 C.3       3 GLC5        0.0000 
     45 CA        101.1000   40.2220   12.3160 C.3       9 GLL5        0.0000 
     46 CA        103.2060   39.1160   15.2290 C.3       6 GLP5        0.0000 
     47 CA        101.6605   38.3050   12.8520 C.3       3 GLC5        0.0000 
     48 CA        102.2210   36.3880   13.3880 C.3       6 GLP5        0.0000 
     49 N         103.1670   41.2400   10.9265 N.am      2 SEC2        0.0000 
     50 N         102.4380   40.6480   12.0460 N.am      8 SEL2        0.0000 
     51 N         103.8960   41.8320    9.8070 N.am      5 SEP2        0.0000 
     52 N         103.4725   41.8555   12.1660 N.am      2 SEC2        0.0000 
     53 N         104.5070   43.0630   12.2860 N.am      5 SEP2        0.0000 
     54 CA         99.3770   42.4250   11.2670 C.3       3 GLC5        0.0000 
     55 CA        100.1420   41.3560   12.4750 C.3       9 GLL5        0.0000 
     56 CA         98.0055   41.6485   12.4340 C.3       3 GLC5        0.0000 
     57 CA        101.5260   46.6065   15.6075 C.3       3 GLC5        0.0000 
     58 CA        100.2870   44.8970   15.9990 C.3       9 GLL5        0.0000 
     59 CA        102.7650   48.3160   15.2160 C.3       6 GLP5        0.0000 
     60 O         100.5950   46.6450   17.9475 O.2       1 ALC1        0.0000 
     61 O         100.2230   45.2070   17.3090 O.2       7 ALL1        0.0000 
     62 O         100.9670   48.0830   18.5860 O.2       4 ALP1        0.0000 
     63 N         100.4445   47.4345   15.0965 N.am      2 SEC2        0.0000 
     64 N         100.4560   45.8820   15.0610 N.am      8 SEL2        0.0000 
     65 N         100.4330   48.9870   15.1320 N.am      5 SEP2        0.0000 
     66 CA        100.7160   46.7695   11.8750 C.3       3 GLC5        0.0000 
     67 CA        100.5170   45.5530   13.7380 C.3       9 GLL5        0.0000 
     68 CA        100.9150   47.9860   10.0120 C.3       6 GLP5        0.0000 
     69 CA        102.2805   44.6375   14.5150 C.3       3 GLC5        0.0000 
     70 CA        104.0440   43.7220   15.2920 C.3       6 GLP5        0.0000 
     71 CA        101.6410   46.9345   14.4770 C.3       3 GLC5        0.0000 
     72 CA         99.4345   43.4070   12.0710 C.3       3 GLC5        0.0000 
     73 CA        100.2570   43.3200   14.0830 C.3       9 GLL5        0.0000 
     74 CA        102.1505   43.5210   14.6875 C.3       3 GLC5        0.0000 
     75 CA         99.0438   39.0305    7.0480 C.3       3 GLC5        0.0000 
     76 CA         97.7100   38.4040    7.8820 C.3       9 GLL5        0.0000 
     77 CA        101.9522   43.7070   16.2142 C.3       3 GLC5        0.0000 
     78 CA        100.1720   43.4510   15.4640 C.3       9 GLL5        0.0000 
     79 CA        103.6750   43.2400   16.6970 C.3       6 GLP5        0.0000 
@<TRIPOS>BOND
@<TRIPOS>SUBSTRUCTURE
     1 ALC1        1 GROUP        1 X    ALC  0     ROOT ALC X 1
     2 SEC2       16 GROUP        1 X    SEC  0     **** SEC X 2
     3 GLC5        8 GROUP        1 X    GLC  0     **** GLC X 6
     4 ALP1        3 GROUP        1 Y    ALP  0     ROOT ALP Y 8
     5 SEP2       18 GROUP        1 Y    SEP  0     **** SEP Y 9
     6 GLP5       10 GROUP        1 Y    GLP  0     **** GLP Y 13
     7 ALL1        2 GROUP        1 Z    ALL  0     ROOT ALL Z 15
     8 SEL2       17 GROUP        1 Z    SEL  0     **** SEL Z 16
     9 GLL5        9 GROUP        1 Z    GLL  0     **** GLL Z 20
@<TRIPOS>SET

