#    Name: 1kpi_SAH_1_ligand
#    Modification time : Mon Apr  7 13:42:20 2014

@<TRIPOS>MOLECULE
1kpi_SAH_1_ligand
   46    48     1     0     0
SMALL
NO_CHARGES


@<TRIPOS>ATOM
      1 N          95.9590   40.1080    7.3070 N.4       1 SAH900      0.0000 
      2 CA         96.8710   39.0920    6.7780 C.3       1 SAH900      0.0000 
      3 CB         97.7100   38.4040    7.8820 C.3       1 SAH900      0.0000 
      4 CG         97.0190   38.0300    9.2080 C.3       1 SAH900      0.0000 
      5 SD         98.1420   37.2120   10.3700 S.3       1 SAH900      0.0000 
      6 C          96.1050   38.0240    5.9810 C.2       1 SAH900      0.0000 
      7 O          94.8560   38.0450    6.0190 O.co2     1 SAH900      0.0000 
      8 OXT        96.7650   37.1750    5.3270 O.co2     1 SAH900      0.0000 
      9 C5'        98.2410   38.4490   11.7110 C.3       1 SAH900      0.0000 
     10 C4'        99.0120   39.6870   11.2630 C.3       1 SAH900      0.0000 
     11 O4'        98.8390   40.8370   12.1320 O.3       1 SAH900      0.0000 
     12 C3'       100.5220   39.4570   11.1440 C.3       1 SAH900      0.0000 
     13 O3'       101.0000   39.9450    9.8650 O.3       1 SAH900      0.0000 
     14 C2'       101.1000   40.2220   12.3160 C.3       1 SAH900      0.0000 
     15 O2'       102.4380   40.6480   12.0460 O.3       1 SAH900      0.0000 
     16 C1'       100.1420   41.3560   12.4750 C.3       1 SAH900      0.0000 
     17 N9        100.1250   41.9660   13.8160 N.pl3     1 SAH900      0.0000 
     18 C8         99.9810   41.4140   15.0480 C.2       1 SAH900      0.0000 
     19 N7         99.9990   42.2200   16.0710 N.2       1 SAH900      0.0000 
     20 C5        100.1720   43.4510   15.4640 C.ar      1 SAH900      0.0000 
     21 C6        100.2870   44.8970   15.9990 C.ar      1 SAH900      0.0000 
     22 N6        100.2230   45.2070   17.3090 N.pl3     1 SAH900      0.0000 
     23 N1        100.4560   45.8820   15.0610 N.ar      1 SAH900      0.0000 
     24 C2        100.5170   45.5530   13.7380 C.ar      1 SAH900      0.0000 
     25 N3        100.4310   44.3340   13.1550 N.ar      1 SAH900      0.0000 
     26 C4        100.2570   43.3200   14.0830 C.ar      1 SAH900      0.0000 
     27 H          97.5826   39.5560    6.0804 H         1 SAH900      0.0000 
     28 H          98.5853   39.0628    8.1146 H         1 SAH900      0.0000 
     29 H          98.1629   37.4766    7.4471 H         1 SAH900      0.0000 
     30 H          96.2396   37.3063    9.0874 H         1 SAH900      0.0000 
     31 H          96.6865   38.8816    9.7646 H         1 SAH900      0.0000 
     32 H          98.7219   37.8984   12.4865 H         1 SAH900      0.0000 
     33 H          97.2124   38.6335   11.9198 H         1 SAH900      0.0000 
     34 H          98.6645   39.9602   10.2478 H         1 SAH900      0.0000 
     35 H         100.7030   38.4185   11.2862 H         1 SAH900      0.0000 
     36 H         101.0256   39.5897   13.1788 H         1 SAH900      0.0000 
     37 H         100.4090   42.1218   11.7305 H         1 SAH900      0.0000 
     38 H          99.8636   40.3938   15.1420 H         1 SAH900      0.0000 
     39 H         100.0755   44.4417   17.9355 H         1 SAH900      0.0000 
     40 H         100.3287   46.1747   17.5379 H         1 SAH900      0.0000 
     41 H         100.6561   46.4031   13.0492 H         1 SAH900      0.0000 
     42 H          95.3090   39.7197    7.9602 H         1 SAH900      0.0000 
     43 H          96.4510   40.8377    7.7818 H         1 SAH900      0.0000 
     44 H          95.4231   40.5399    6.5815 H         1 SAH900      0.0000 
     45 H         101.5368   39.1917    9.4850 H         1 SAH900      0.0000 
     46 H         103.0018   39.8341   12.1861 H         1 SAH900      0.0000 
@<TRIPOS>BOND
     1    2    1 1    
     2   42    1 1    
     3   43    1 1    
     4   44    1 1    
     5    3    2 1    
     6    6    2 1    
     7   27    2 1    
     8    4    3 1    
     9   28    3 1    
    10   29    3 1    
    11    5    4 1    
    12   30    4 1    
    13   31    4 1    
    14    9    5 1    
    15    7    6 ar   
    16    8    6 ar   
    17   10    9 1    
    18   32    9 1    
    19   33    9 1    
    20   11   10 1    
    21   12   10 1    
    22   34   10 1    
    23   16   11 1    
    24   13   12 1    
    25   14   12 1    
    26   35   12 1    
    27   45   13 1    
    28   15   14 1    
    29   16   14 1    
    30   36   14 1    
    31   46   15 1    
    32   17   16 1    
    33   37   16 1    
    34   18   17 1    
    35   26   17 1    
    36   19   18 2    
    37   38   18 1    
    38   20   19 1    
    39   21   20 ar   
    40   26   20 ar   
    41   22   21 1    
    42   23   21 ar   
    43   39   22 1    
    44   40   22 1    
    45   24   23 ar   
    46   25   24 ar   
    47   41   24 1    
    48   26   25 ar   
@<TRIPOS>SUBSTRUCTURE
     1 SAH900      1 GROUP   
@<TRIPOS>SET

