#    Name: 2ieh_MOY_2_INTS_M
#    Modification time : Tue Mar 25 17:45:54 2014

@<TRIPOS>MOLECULE
2ieh_MOY_2_INTS_M
   71     0     9     0     0
SMALL
NO_CHARGES


@<TRIPOS>ATOM
      1 N          43.6885   13.5305   45.0755 N.am      2 SEC2        0.0000 
      2 N          42.9470   12.0880   45.5840 N.am      8 SEL2        0.0000 
      3 N          44.4300   14.9730   44.5670 N.am      5 SEP2        0.0000 
      4 O          43.8990   11.9105   46.4235 O.2       1 ALC1        0.0000 
      5 O          42.9470   12.0880   45.5840 O.2       7 ALL1        0.0000 
      6 O          44.8510   11.7330   47.2630 O.2       4 ALP1        0.0000 
      7 O          42.8275   13.2000   50.6565 O.2       1 ALC1        0.0000 
      8 O          42.7160   14.4600   50.2900 O.2       7 ALL1        0.0000 
      9 O          42.9390   11.9400   51.0230 O.2       4 ALP1        0.0000 
     10 CA         40.4430   12.9710   51.4115 C.3       3 GLC5        0.0000 
     11 CA         41.2870   14.2100   49.8210 C.3       9 GLL5        0.0000 
     12 CA         39.5990   11.7320   53.0020 C.3       6 GLP5        0.0000 
     13 CA         44.0805   16.8505   47.7185 C.3       3 GLC5        0.0000 
     14 CA         42.7330   17.8460   48.7780 C.3       9 GLL5        0.0000 
     15 CA         45.4280   15.8550   46.6590 C.3       6 GLP5        0.0000 
     16 CA         42.2935   18.3925   47.0325 C.3       3 GLC5        0.0000 
     17 CA         41.8540   18.9390   45.2870 C.3       6 GLP5        0.0000 
     18 CA         38.4125   18.0865   49.8075 C.3       3 GLC5        0.0000 
     19 CA         40.2260   17.9920   50.3480 C.3       9 GLL5        0.0000 
     20 CA         36.5990   18.1810   49.2670 C.3       6 GLP5        0.0000 
     21 CA         39.6945   19.9015   50.2655 C.3       3 GLC5        0.0000 
     22 CA         39.1630   21.8110   50.1830 C.3       6 GLP5        0.0000 
     23 CA         40.5345   19.1365   51.9450 C.3       3 GLC5        0.0000 
     24 CA         40.8430   20.2810   53.5420 C.3       6 GLP5        0.0000 
     25 CA         37.5230   16.8950   50.7150 C.3       3 GLC5        0.0000 
     26 CA         38.4470   15.6090   52.1630 C.3       9 GLL5        0.0000 
     27 CA         39.3265   18.7960   54.5180 C.3       3 GLC5        0.0000 
     28 CA         38.5850   16.9060   54.2650 C.3       9 GLL5        0.0000 
     29 CA         40.0680   20.6860   54.7710 C.3       6 GLP5        0.0000 
     30 CA         38.8355   14.2855   53.4820 C.3       3 GLC5        0.0000 
     31 CA         39.2250   16.2830   53.1620 C.3       9 GLL5        0.0000 
     32 CA         38.4460   12.2880   53.8020 C.3       6 GLP5        0.0000 
     33 CA         40.0340   18.2820   53.3520 C.3       3 GLC5        0.0000 
     34 CA         43.7130   12.5800   48.6090 C.3       3 GLC5        0.0000 
     35 CA         42.1070   13.1450   47.6120 C.3       9 GLL5        0.0000 
     36 CA         45.3190   12.0150   49.6060 C.3       6 GLP5        0.0000 
     37 CA         41.8295   11.2565   46.9040 C.3       3 GLC5        0.0000 
     38 CA         41.5520    9.3680   46.1960 C.3       6 GLP5        0.0000 
     39 CA         43.0130   12.3220   44.2610 C.3       3 GLC5        0.0000 
     40 CA         42.0920   12.9820   46.1810 C.3       9 GLL5        0.0000 
     41 CA         43.9340   11.6620   42.3410 C.3       6 GLP5        0.0000 
     42 CA         39.5050   12.6510   46.2500 C.3       3 GLC5        0.0000 
     43 CA         41.2040   13.7410   45.3780 C.3       9 GLL5        0.0000 
     44 CA         37.8060   11.5610   47.1220 C.3       6 GLP5        0.0000 
     45 CA         38.6720   13.5840   46.1500 C.3       3 GLC5        0.0000 
     46 CA         40.3330   14.6520   45.9790 C.3       9 GLL5        0.0000 
     47 CA         37.0110   12.5160   46.3210 C.3       6 GLP5        0.0000 
     48 CA         38.2795   15.3980   47.7895 C.3       3 GLC5        0.0000 
     49 CA         40.3280   14.8340   47.3910 C.3       9 GLL5        0.0000 
     50 CA         36.2310   15.9620   48.1880 C.3       6 GLP5        0.0000 
     51 CA         44.6905   13.9300   49.8525 C.3       3 GLC5        0.0000 
     52 CA         43.2490   15.7470   50.0300 C.3       9 GLL5        0.0000 
     53 CA         44.7450   15.8500   48.3790 C.3       3 GLC5        0.0000 
     54 CA         44.8750   15.9430   50.1680 C.3       9 GLL5        0.0000 
     55 CA         35.5902   16.3863   51.2677 C.3       3 GLC5        0.0000 
     56 CA         37.0280   15.5550   52.3030 C.3       9 GLL5        0.0000 
     57 CA         34.4660   16.9000   49.6700 C.3       6 GLP5        0.0000 
     58 CA         37.7576   14.0870   53.3162 C.3       3 GLC5        0.0000 
     59 CA         36.4010   16.1900   53.4280 C.3       9 GLL5        0.0000 
     60 CA         35.5418   17.2405   55.3118 C.3       3 GLC5        0.0000 
     61 CA         34.2810   17.9550   56.7030 C.3       6 GLP5        0.0000 
     62 CA         42.9170   14.5640   46.9105 C.3       3 GLC5        0.0000 
     63 CA         41.2130   14.0850   48.2360 C.3       9 GLL5        0.0000 
     64 CA         44.1740   15.5130   45.8970 C.3       6 GLP5        0.0000 
     65 CA         39.2883   13.0102   47.4678 C.3       3 GLC5        0.0000 
     66 CA         42.9110   14.4372   45.8383 C.3       3 GLC5        0.0000 
     67 CA         41.1995   11.6258   45.4093 C.3       3 GLC5        0.0000 
     68 CA         40.7510    9.8900   45.0390 C.3       6 GLP5        0.0000 
     69 CA         40.6527   15.1537   44.0987 C.3       3 GLC5        0.0000 
     70 CA         40.5370   16.1110   42.5190 C.3       6 GLP5        0.0000 
     71 CA         42.2523   15.1280   46.2910 C.3       3 GLC5        0.0000 
@<TRIPOS>BOND
@<TRIPOS>SUBSTRUCTURE
     1 ALC1        4 GROUP        1 X    ALC  0     ROOT ALC X 1
     2 SEC2        1 GROUP        1 X    SEC  0     **** SEC X 2
     3 GLC5       10 GROUP        1 X    GLC  0     **** GLC X 6
     4 ALP1        6 GROUP        1 Y    ALP  0     ROOT ALP Y 8
     5 SEP2        3 GROUP        1 Y    SEP  0     **** SEP Y 9
     6 GLP5       12 GROUP        1 Y    GLP  0     **** GLP Y 13
     7 ALL1        5 GROUP        1 Z    ALL  0     ROOT ALL Z 15
     8 SEL2        2 GROUP        1 Z    SEL  0     **** SEL Z 16
     9 GLL5       11 GROUP        1 Z    GLL  0     **** GLL Z 20
@<TRIPOS>SET

