#    Name: 2ieh_MOY_2_ligand
#    Modification time : Tue Mar 25 17:45:54 2014

@<TRIPOS>MOLECULE
2ieh_MOY_2_ligand
   42    44     1     0     0
SMALL
NO_CHARGES


@<TRIPOS>ATOM
      1 S          44.8750   15.9430   50.1680 S.2       1 MOY605      0.0000 
      2 O3         38.5120   13.9620   50.4550 O.2       1 MOY605      0.0000 
      3 O4         42.9470   12.0880   45.5840 O.3       1 MOY605      0.0000 
      4 N1         42.7160   14.4600   50.2900 N.am      1 MOY605      0.0000 
      5 N2         42.3120   16.7240   49.6700 N.am      1 MOY605      0.0000 
      6 C1         43.2490   15.7470   50.0300 C.2       1 MOY605      0.0000 
      7 C2         40.9250   16.6660   50.1530 C.2       1 MOY605      0.0000 
      8 C3         40.4200   15.3760   50.4010 C.2       1 MOY605      0.0000 
      9 C4         41.2870   14.2100   49.8210 C.3       1 MOY605      0.0000 
     10 C5         42.7330   17.8460   48.7780 C.3       1 MOY605      0.0000 
     11 C6         40.2260   17.9920   50.3480 C.3       1 MOY605      0.0000 
     12 C17        39.0740   14.9350   50.9670 C.2       1 MOY605      0.0000 
     13 C18        38.4470   15.6090   52.1630 C.ar      1 MOY605      0.0000 
     14 C19        37.0280   15.5550   52.3030 C.ar      1 MOY605      0.0000 
     15 C20        36.4010   16.1900   53.4280 C.ar      1 MOY605      0.0000 
     16 C21        37.2040   16.8620   54.4130 C.ar      1 MOY605      0.0000 
     17 C22        38.5850   16.9060   54.2650 C.ar      1 MOY605      0.0000 
     18 C23        39.2250   16.2830   53.1620 C.ar      1 MOY605      0.0000 
     19 C24        41.2130   14.0850   48.2360 C.ar      1 MOY605      0.0000 
     20 C25        42.1070   13.1450   47.6120 C.ar      1 MOY605      0.0000 
     21 C26        42.0920   12.9820   46.1810 C.ar      1 MOY605      0.0000 
     22 C27        41.2040   13.7410   45.3780 C.ar      1 MOY605      0.0000 
     23 C28        40.3330   14.6520   45.9790 C.ar      1 MOY605      0.0000 
     24 C29        40.3280   14.8340   47.3910 C.ar      1 MOY605      0.0000 
     25 H          43.1957   13.7388   50.7408 H         1 MOY605      0.0000 
     26 H          40.9399   13.2880   50.2548 H         1 MOY605      0.0000 
     27 H          36.4631   15.0729   51.6155 H         1 MOY605      0.0000 
     28 H          35.3936   16.1649   53.5281 H         1 MOY605      0.0000 
     29 H          36.7415   17.2983   55.2098 H         1 MOY605      0.0000 
     30 H          39.1664   17.3968   54.9619 H         1 MOY605      0.0000 
     31 H          40.2384   16.3108   53.0736 H         1 MOY605      0.0000 
     32 H          42.7443   12.6001   48.1768 H         1 MOY605      0.0000 
     33 H          41.2085   13.6151   44.3647 H         1 MOY605      0.0000 
     34 H          39.6828   15.2037   45.4053 H         1 MOY605      0.0000 
     35 H          39.6854   15.5079   47.8140 H         1 MOY605      0.0000 
     36 H          43.4705   18.3861   49.1835 H         1 MOY605      0.0000 
     37 H          43.0643   17.5140   47.8948 H         1 MOY605      0.0000 
     38 H          41.9782   18.4746   48.5905 H         1 MOY605      0.0000 
     39 H          40.6991   18.5666   51.0159 H         1 MOY605      0.0000 
     40 H          40.1750   18.5137   49.4964 H         1 MOY605      0.0000 
     41 H          39.2887   17.8731   50.6755 H         1 MOY605      0.0000 
     42 H          43.3444   11.5664   46.3390 H         1 MOY605      0.0000 
@<TRIPOS>BOND
     1    6    1 2    
     2   12    2 2    
     3   21    3 1    
     4   42    3 1    
     5    6    4 am   
     6    9    4 1    
     7   25    4 1    
     8    6    5 am   
     9    7    5 1    
    10   10    5 1    
    11    8    7 2    
    12   11    7 1    
    13    9    8 1    
    14   12    8 1    
    15   19    9 1    
    16   26    9 1    
    17   36   10 1    
    18   37   10 1    
    19   38   10 1    
    20   39   11 1    
    21   40   11 1    
    22   41   11 1    
    23   13   12 1    
    24   14   13 ar   
    25   18   13 ar   
    26   15   14 ar   
    27   27   14 1    
    28   16   15 ar   
    29   28   15 1    
    30   17   16 ar   
    31   29   16 1    
    32   18   17 ar   
    33   30   17 1    
    34   31   18 1    
    35   20   19 ar   
    36   24   19 ar   
    37   21   20 ar   
    38   32   20 1    
    39   22   21 ar   
    40   23   22 ar   
    41   33   22 1    
    42   24   23 ar   
    43   34   23 1    
    44   35   24 1    
@<TRIPOS>SUBSTRUCTURE
     1 MOY605      1 GROUP   
@<TRIPOS>SET

