#    Name: 1SVS_1_CAVITY_N1_6.mol2
#    Modification time : Tue Mar 11 09:06:43 2014

@<TRIPOS>MOLECULE
1SVS_1_CAVITY_N1_6.mol2
   61     0     5     0     0
SMALL
NO_CHARGES


@<TRIPOS>ATOM
      1 N          -3.2128  -45.7149   29.1629 N.2       2 ALA2        0.0000 
      2 O          -4.0336  -46.5108   30.1339 O.2       2 ALA2        0.0000 
      3 N          -1.0366  -47.7523   27.0151 N.2       2 ALA2        0.0000 
      4 N          -1.2496  -45.8697   26.0610 N.2       2 ALA2        0.0000 
      5 CA         -2.8913  -47.4615   28.0029 C.3       5 GLY6        0.0000 
      6 OG         -3.1043  -45.5789   27.0488 O.2       1 SER1        0.0000 
      7 N          -3.9251  -46.3749   28.0197 N.2       2 ALA2        0.0000 
      8 CA         -4.9590  -45.2882   28.0365 C.3       5 GLY6        0.0000 
      9 OD1        -5.7798  -46.0841   29.0075 O.3       3 ASP3        0.0000 
     10 OG         -0.7151  -49.4990   25.8550 O.2       1 SER1        0.0000 
     11 CA         -1.5359  -50.2949   26.8260 C.3       5 GLY6        0.0000 
     12 OG         -0.1073  -46.8204   23.9300 O.2       1 SER1        0.0000 
     13 OG         -0.9281  -47.6163   24.9009 O.2       1 SER1        0.0000 
     14 CA         -1.7489  -48.4123   25.8719 C.3       5 GLY6        0.0000 
     15 CA         -2.5698  -49.2082   26.8428 C.3       5 GLY6        0.0000 
     16 CA         -1.1411  -45.7337   23.9468 C.3       5 GLY6        0.0000 
     17 OG         -1.9620  -46.5297   24.9178 O.2       1 SER1        0.0000 
     18 OG         -2.7828  -47.3256   25.8887 O.2       1 SER1        0.0000 
     19 NZ         -3.6036  -48.1215   26.8596 N.2       4 LYS4        0.0000 
     20 OG         -3.8166  -46.2389   25.9055 O.2       1 SER1        0.0000 
     21 OG         -4.6375  -47.0349   26.8765 O.2       1 SER1        0.0000 
     22 NZ         -5.4583  -47.8308   27.8474 N.2       4 LYS4        0.0000 
     23 OG         -5.6713  -45.9482   26.8933 O.2       1 SER1        0.0000 
     24 OD1        -7.5260  -45.6574   27.8811 O.3       3 ASP3        0.0000 
     25 O           1.0350  -47.7711   21.7990 O.2       2 ALA2        0.0000 
     26 OG          0.2142  -48.5671   22.7699 O.2       1 SER1        0.0000 
     27 CA         -0.6066  -49.3630   23.7409 C.3       5 GLY6        0.0000 
     28 CA         -1.4274  -50.1590   24.7118 C.3       5 GLY6        0.0000 
     29 NZ         -2.2483  -50.9549   25.6827 N.2       4 LYS4        0.0000 
     30 CA          0.0012  -46.6844   21.8158 C.3       5 GLY6        0.0000 
     31 OG         -0.8196  -47.4804   22.7868 O.2       1 SER1        0.0000 
     32 CA         -1.6405  -48.2763   23.7577 C.3       5 GLY6        0.0000 
     33 NZ         -2.4613  -49.0723   24.7286 N.2       4 LYS4        0.0000 
     34 NZ         -3.2821  -49.8682   25.6996 N.2       4 LYS4        0.0000 
     35 CA         -1.8535  -46.3937   22.8036 C.3       5 GLY6        0.0000 
     36 CA         -2.6743  -47.1896   23.7745 C.3       5 GLY6        0.0000 
     37 OD1        -3.4951  -47.9856   24.7455 O.3       3 ASP3        0.0000 
     38 NZ         -4.3159  -48.7815   25.7164 N.2       4 LYS4        0.0000 
     39 OG         -2.8873  -45.3070   22.8204 O.2       1 SER1        0.0000 
     40 OG         -3.7081  -46.1030   23.7913 O.2       1 SER1        0.0000 
     41 OG         -4.5290  -46.8989   24.7623 O.2       1 SER1        0.0000 
     42 N          -5.3498  -47.6949   25.7332 N.2       2 ALA2        0.0000 
     43 O          -6.3836  -46.6082   25.7500 O.2       2 ALA2        0.0000 
     44 O           1.1435  -47.6352   19.6848 O.2       2 ALA2        0.0000 
     45 O           0.3227  -48.4311   20.6557 O.2       2 ALA2        0.0000 
     46 CA         -0.4981  -49.2271   21.6267 C.3       5 GLY6        0.0000 
     47 OG          0.1097  -46.5485   19.7016 O.2       1 SER1        0.0000 
     48 CA         -0.7111  -47.3444   20.6726 C.3       5 GLY6        0.0000 
     49 CA         -1.5320  -48.1404   21.6435 C.3       5 GLY6        0.0000 
     50 CA         -2.3528  -48.9363   22.6145 C.3       5 GLY6        0.0000 
     51 CA         -1.7450  -46.2577   20.6894 C.3       5 GLY6        0.0000 
     52 CA         -2.5658  -47.0537   21.6603 C.3       5 GLY6        0.0000 
     53 CA         -2.7788  -45.1711   20.7062 C.3       5 GLY6        0.0000 
     54 N          -3.5997  -45.9670   21.6772 N.2       2 ALA2        0.0000 
     55 CA         -4.4205  -46.7630   22.6481 C.3       5 GLY6        0.0000 
     56 CA         -0.3896  -49.0911   19.5125 C.3       5 GLY6        0.0000 
     57 NZ         -0.6027  -47.2085   18.5584 N.2       4 LYS4        0.0000 
     58 CA         -1.4235  -48.0044   19.5293 C.3       5 GLY6        0.0000 
     59 CA         -2.2443  -48.8004   20.5003 C.3       5 GLY6        0.0000 
     60 CA         -2.4573  -46.9177   19.5462 C.3       5 GLY6        0.0000 
     61 CA         -3.2781  -47.7137   20.5171 C.3       5 GLY6        0.0000 
@<TRIPOS>BOND
@<TRIPOS>SUBSTRUCTURE
     1 SER1        6 GROUP   
     2 ALA2        1 GROUP   
     3 ASP3        9 GROUP   
     4 LYS4       19 GROUP   
     5 GLY6        5 GROUP   
@<TRIPOS>SET

