#    Name: 1svs_GNP_1_INTS_M
#    Modification time : Tue Mar 25 03:51:51 2014

@<TRIPOS>MOLECULE
1svs_GNP_1_INTS_M
   80     0    15     0     0
SMALL
NO_CHARGES


@<TRIPOS>ATOM
      1 Zn         -9.0625  -45.7190   30.5130 Zn        4 ZIC7        0.0000 
      2 Zn         -9.5220  -46.6590   30.7750 Zn       14 ZIL7        0.0000 
      3 Zn         -8.6030  -44.7790   30.2510 Zn        9 ZIP7        0.0000 
      4 N          -9.0250  -46.7220   32.0645 N.am      2 SEC2        0.0000 
      5 N          -9.5220  -46.6590   30.7750 N.am     12 SEL2        0.0000 
      6 N          -8.5280  -46.7850   33.3540 N.am      7 SEP2        0.0000 
      7 NZ        -11.6495  -47.1615   28.1600 N.4       3 LYC4        0.0000 
      8 NZ        -11.0900  -47.7850   29.2390 N.4      13 LYL4        0.0000 
      9 NZ        -12.2090  -46.5380   27.0810 N.4       8 LYP4        0.0000 
     10 N         -11.6495  -47.1615   28.1600 N.am      2 SEC2        0.0000 
     11 N         -11.0900  -47.7850   29.2390 N.am     12 SEL2        0.0000 
     12 N         -12.2090  -46.5380   27.0810 N.am      7 SEP2        0.0000 
     13 N         -12.2945  -47.9015   29.8020 N.am      2 SEC2        0.0000 
     14 N         -13.4990  -48.0180   30.3650 N.am      7 SEP2        0.0000 
     15 Zn         -8.4320  -45.0225   29.2240 Zn        4 ZIC7        0.0000 
     16 Zn         -8.2610  -45.2660   28.1970 Zn       14 ZIL7        0.0000 
     17 N          -8.1170  -43.8615   27.7105 N.am      2 SEC2        0.0000 
     18 N          -8.2610  -45.2660   28.1970 N.am     12 SEL2        0.0000 
     19 N          -7.9730  -42.4570   27.2240 N.am      7 SEP2        0.0000 
     20 NZ        -10.8495  -46.5980   26.7755 N.4       3 LYC4        0.0000 
     21 NZ         -9.4900  -46.6580   26.4700 N.4      13 LYL4        0.0000 
     22 N          -8.8475  -46.5240   25.1440 N.am      2 SEC2        0.0000 
     23 N          -9.4900  -46.6580   26.4700 N.am     12 SEL2        0.0000 
     24 N          -8.2050  -46.3900   23.8180 N.am      7 SEP2        0.0000 
     25 N          -9.2410  -45.3045   25.6950 N.am      2 SEC2        0.0000 
     26 N          -8.9920  -43.9510   24.9200 N.am      7 SEP2        0.0000 
     27 N         -10.8495  -46.5980   26.7755 N.am      2 SEC2        0.0000 
     28 N          -7.6030  -46.6040   25.3140 N.am      2 SEC2        0.0000 
     29 N          -7.0010  -46.8180   26.8100 N.am     12 SEL2        0.0000 
     30 N          -5.6355  -43.2395   26.3385 N.am      2 SEC2        0.0000 
     31 N          -5.7740  -44.7030   26.4530 N.am     12 SEL2        0.0000 
     32 N          -5.4970  -41.7760   26.2240 N.am      7 SEP2        0.0000 
     33 N          -4.6940  -44.1470   25.8335 N.am      2 SEC2        0.0000 
     34 N          -3.6140  -43.5910   25.2140 N.am      7 SEP2        0.0000 
     35 CA         -6.1845  -49.1925   26.0645 C.3       5 GLC5        0.0000 
     36 CA         -4.3180  -48.1910   26.2500 C.3      15 GLL5        0.0000 
     37 CA         -8.0510  -50.1940   25.8790 C.3      10 GLP5        0.0000 
     38 CA         -3.3750  -49.0940   28.0460 C.3       5 GLC5        0.0000 
     39 CA         -2.4320  -49.9970   29.8420 C.3      10 GLP5        0.0000 
     40 N           0.7415  -48.3125   25.6090 N.am      2 SEC2        0.0000 
     41 N          -0.6460  -48.0630   26.4160 N.am     12 SEL2        0.0000 
     42 N           2.1290  -48.5620   24.8020 N.am      7 SEP2        0.0000 
     43 O           0.6470  -47.4715   26.6800 O.2       1 ALC1        0.0000 
     44 O          -0.6460  -48.0630   26.4160 O.2      11 ALL1        0.0000 
     45 O           1.9400  -46.8800   26.9440 O.2       6 ALP1        0.0000 
     46 CA         -0.8560  -45.1475   23.3445 C.3       5 GLC5        0.0000 
     47 CA         -1.7430  -46.4220   24.9260 C.3      15 GLL5        0.0000 
     48 CA          0.0310  -43.8730   21.7630 C.3      10 GLP5        0.0000 
     49 O          -0.1470  -44.5525   25.2365 O.2       1 ALC1        0.0000 
     50 O          -0.4970  -45.7970   24.8510 O.2      11 ALL1        0.0000 
     51 O           0.2030  -43.3080   25.6220 O.2       6 ALP1        0.0000 
     52 CA         -3.4650  -48.3590   22.6380 C.3       5 GLC5        0.0000 
     53 CA         -1.9830  -47.3760   23.8030 C.3      15 GLL5        0.0000 
     54 CA         -4.9470  -49.3420   21.4730 C.3      10 GLP5        0.0000 
     55 N          -5.3595  -45.4335   20.6840 N.am      2 SEC2        0.0000 
     56 N          -4.0470  -45.5350   21.3860 N.am     12 SEL2        0.0000 
     57 N          -6.6720  -45.3320   19.9820 N.am      7 SEP2        0.0000 
     58 CA         -4.0815  -47.3750   19.8290 C.3       5 GLC5        0.0000 
     59 CA         -2.9890  -46.1330   20.5480 C.3      15 GLL5        0.0000 
     60 CA         -5.1740  -48.6170   19.1100 C.3      10 GLP5        0.0000 
     61 CA         -3.9025  -44.2325   20.5825 C.3       5 GLC5        0.0000 
     62 CA         -4.8160  -42.3320   20.6170 C.3      10 GLP5        0.0000 
     63 N          -4.7155  -46.1205   17.5905 N.am      2 SEC2        0.0000 
     64 N          -3.4550  -45.4870   18.3060 N.am     12 SEL2        0.0000 
     65 N          -5.9760  -46.7540   16.8750 N.am      7 SEP2        0.0000 
     66 N          -3.6970  -44.0210   18.3250 N.am      2 SEC2        0.0000 
     67 N          -3.9390  -42.5550   18.3440 N.am      7 SEP2        0.0000 
     68 O          -1.5805  -47.0455   17.3320 O.2       1 ALC1        0.0000 
     69 O          -1.6700  -46.7610   18.7100 O.2      11 ALL1        0.0000 
     70 O          -1.4910  -47.3300   15.9540 O.2       6 ALP1        0.0000 
     71 O          -0.4975  -47.1315   17.4910 O.2       1 ALC1        0.0000 
     72 O           0.6750  -47.5020   16.2720 O.2       6 ALP1        0.0000 
     73 O           0.4300  -47.7915   17.6495 O.2       1 ALC1        0.0000 
     74 O           0.1850  -48.0810   19.0270 O.2      11 ALL1        0.0000 
     75 CA         -3.5365  -48.0940   21.4000 C.3       5 GLC5        0.0000 
     76 CA         -2.1260  -46.8460   21.3270 C.3      15 GLL5        0.0000 
     77 CA         -1.7770  -48.5735   27.7242 C.3       5 GLC5        0.0000 
     78 CA         -1.8860  -47.3810   26.1250 C.3      15 GLL5        0.0000 
     79 CA         -1.1280  -49.2550   29.5700 C.3      10 GLP5        0.0000 
     80 CA         -1.2632  -45.1812   21.3503 C.3       5 GLC5        0.0000 
@<TRIPOS>BOND
@<TRIPOS>SUBSTRUCTURE
     1 ALC1       43 GROUP        1 X    ALC  0     ROOT ALC X 1
     2 SEC2        4 GROUP        1 X    SEC  0     **** SEC X 2
     3 LYC4        7 GROUP        1 X    LYC  0     **** LYC X 4
     4 ZIC7        1 GROUP        1 X    ZIC  0     **** ZIC X 5
     5 GLC5       35 GROUP        1 X    GLC  0     **** GLC X 6
     6 ALP1       45 GROUP        1 Y    ALP  0     ROOT ALP Y 8
     7 SEP2        6 GROUP        1 Y    SEP  0     **** SEP Y 9
     8 LYP4        9 GROUP        1 Y    LYP  0     **** LYP Y 11
     9 ZIP7        3 GROUP        1 Y    ZIP  0     **** ZIP Y 12
    10 GLP5       37 GROUP        1 Y    GLP  0     **** GLP Y 13
    11 ALL1       44 GROUP        1 Z    ALL  0     ROOT ALL Z 15
    12 SEL2        5 GROUP        1 Z    SEL  0     **** SEL Z 16
    13 LYL4        8 GROUP        1 Z    LYL  0     **** LYL Z 18
    14 ZIL7        2 GROUP        1 Z    ZIL  0     **** ZIL Z 19
    15 GLL5       36 GROUP        1 Z    GLL  0     **** GLL Z 20
@<TRIPOS>SET

