#    Name: 1svs_GNP_1_ligand
#    Modification time : Tue Mar 25 03:51:51 2014

@<TRIPOS>MOLECULE
1svs_GNP_1_ligand
   44    46     1     0     0
SMALL
NO_CHARGES


@<TRIPOS>ATOM
      1 PG         -9.7420  -47.8140   29.8530 P.3       1 GNP355      0.0000 
      2 O1G        -9.4110  -49.0920   30.5820 O.co2     1 GNP355      0.0000 
      3 O2G        -9.5220  -46.6590   30.7750 O.co2     1 GNP355      0.0000 
      4 O3G       -11.0900  -47.7850   29.2390 O.co2     1 GNP355      0.0000 
      5 N3B        -8.5310  -47.7840   28.6200 N.4       1 GNP355      0.0000 
      6 PB         -8.4460  -46.5240   27.5170 P.3       1 GNP355      0.0000 
      7 O1B        -8.2610  -45.2660   28.1970 O.co2     1 GNP355      0.0000 
      8 O2B        -9.4900  -46.6580   26.4700 O.co2     1 GNP355      0.0000 
      9 O3A        -7.0010  -46.8180   26.8100 O.3       1 GNP355      0.0000 
     10 PA         -5.6340  -46.0690   26.9740 P.3       1 GNP355      0.0000 
     11 O1A        -5.7740  -44.7030   26.4530 O.co2     1 GNP355      0.0000 
     12 O2A        -5.1780  -46.2820   28.4000 O.co2     1 GNP355      0.0000 
     13 O5'        -4.7130  -46.8210   26.0370 O.3       1 GNP355      0.0000 
     14 C5'        -4.3180  -48.1910   26.2500 C.3       1 GNP355      0.0000 
     15 C4'        -2.9660  -48.4030   25.6320 C.3       1 GNP355      0.0000 
     16 O4'        -2.9320  -48.3180   24.2540 O.3       1 GNP355      0.0000 
     17 C3'        -1.8860  -47.3810   26.1250 C.3       1 GNP355      0.0000 
     18 O3'        -0.6460  -48.0630   26.4160 O.3       1 GNP355      0.0000 
     19 C2'        -1.7430  -46.4220   24.9260 C.3       1 GNP355      0.0000 
     20 O2'        -0.4970  -45.7970   24.8510 O.3       1 GNP355      0.0000 
     21 C1'        -1.9830  -47.3760   23.8030 C.3       1 GNP355      0.0000 
     22 N9         -2.5630  -46.7550   22.5990 N.pl3     1 GNP355      0.0000 
     23 C8         -3.7670  -45.9250   22.5990 C.2       1 GNP355      0.0000 
     24 N7         -4.0470  -45.5350   21.3860 N.2       1 GNP355      0.0000 
     25 C5         -2.9890  -46.1330   20.5480 C.2       1 GNP355      0.0000 
     26 C6         -2.7990  -46.0480   19.1100 C.2       1 GNP355      0.0000 
     27 O6         -3.4550  -45.4870   18.3060 O.2       1 GNP355      0.0000 
     28 N1         -1.6700  -46.7610   18.7100 N.am      1 GNP355      0.0000 
     29 C2         -0.9160  -47.4200   19.6600 C.2       1 GNP355      0.0000 
     30 N2          0.1850  -48.0810   19.0270 N.pl3     1 GNP355      0.0000 
     31 N3         -1.0160  -47.5480   20.9370 N.2       1 GNP355      0.0000 
     32 C4         -2.1260  -46.8460   21.3270 C.2       1 GNP355      0.0000 
     33 H          -5.0270  -48.8821   25.7880 H         1 GNP355      0.0000 
     34 H          -4.2565  -48.4224   27.3161 H         1 GNP355      0.0000 
     35 H          -2.5772  -49.3904   25.9605 H         1 GNP355      0.0000 
     36 H          -2.2933  -46.8523   26.9356 H         1 GNP355      0.0000 
     37 H          -2.5827  -45.7560   24.9706 H         1 GNP355      0.0000 
     38 H          -1.0625  -47.8726   23.5509 H         1 GNP355      0.0000 
     39 H          -4.2290  -45.7412   23.4289 H         1 GNP355      0.0000 
     40 H          -1.4078  -46.7918   17.7201 H         1 GNP355      0.0000 
     41 H           0.2316  -48.0028   18.0312 H         1 GNP355      0.0000 
     42 H           0.8151  -48.5655   19.6338 H         1 GNP355      0.0000 
     43 H           0.0714  -47.4367   26.1109 H         1 GNP355      0.0000 
     44 H          -0.6509  -44.8710   25.1957 H         1 GNP355      0.0000 
@<TRIPOS>BOND
     1    2    1 ar   
     2    3    1 ar   
     3    4    1 ar   
     4    5    1 1    
     5    6    5 1    
     6    7    6 ar   
     7    8    6 ar   
     8    9    6 1    
     9   10    9 1    
    10   11   10 ar   
    11   12   10 ar   
    12   13   10 1    
    13   14   13 1    
    14   15   14 1    
    15   33   14 1    
    16   34   14 1    
    17   16   15 1    
    18   17   15 1    
    19   35   15 1    
    20   21   16 1    
    21   18   17 1    
    22   19   17 1    
    23   36   17 1    
    24   43   18 1    
    25   20   19 1    
    26   21   19 1    
    27   37   19 1    
    28   44   20 1    
    29   22   21 1    
    30   38   21 1    
    31   23   22 1    
    32   32   22 1    
    33   24   23 2    
    34   39   23 1    
    35   25   24 1    
    36   26   25 1    
    37   32   25 2    
    38   27   26 2    
    39   28   26 am   
    40   29   28 1    
    41   40   28 1    
    42   30   29 1    
    43   31   29 2    
    44   41   30 1    
    45   42   30 1    
    46   32   31 1    
@<TRIPOS>SUBSTRUCTURE
     1 GNP355      1 GROUP   
@<TRIPOS>SET

