#    Name: 2iqg_F2I_1_INTS_M
#    Modification time : Tue Mar 25 18:30:20 2014

@<TRIPOS>MOLECULE
2iqg_F2I_1_INTS_M
  100     0    12     0     0
SMALL
NO_CHARGES


@<TRIPOS>ATOM
      1 O          13.5630   -3.8285   15.8805 O.2       1 ALC1        0.0000 
      2 O          14.1920   -4.5720   17.0800 O.2       9 ALL1        0.0000 
      3 O          12.9340   -3.0850   14.6810 O.2       5 ALP1        0.0000 
      4 CA         14.6565   -1.6505   22.3790 C.3       4 GLC5        0.0000 
      5 CA         13.1660   -0.3560   21.5730 C.3      12 GLL5        0.0000 
      6 CA         16.1470   -2.9450   23.1850 C.3       8 GLP5        0.0000 
      7 CA         14.3790    1.2975   20.9885 C.3       4 GLC5        0.0000 
      8 CA         15.5920    2.9510   20.4040 C.3       8 GLP5        0.0000 
      9 CA         13.8720   -4.7870   13.9890 C.3       4 GLC5        0.0000 
     10 CA         13.8420   -6.3180   15.4750 C.3      12 GLL5        0.0000 
     11 CA         13.9020   -3.2560   12.5030 C.3       8 GLP5        0.0000 
     12 CA         14.9965   -3.1510   21.0540 C.3       4 GLC5        0.0000 
     13 CA         13.6320   -2.2950   19.9910 C.3      12 GLL5        0.0000 
     14 CA         16.3610   -4.0070   22.1170 C.3       8 GLP5        0.0000 
     15 N          11.1470    0.7080   15.9655 N.am      2 SEC2        0.0000 
     16 N          10.3730    0.0410   16.9580 N.am     10 SEL2        0.0000 
     17 N          11.9210    1.3750   14.9730 N.am      6 SEP2        0.0000 
     18 N           9.7380    0.8130   15.9075 N.am      2 SEC2        0.0000 
     19 N           9.1030    1.5850   14.8570 N.am      6 SEP2        0.0000 
     20 CA          7.0275   -3.2285   16.0125 C.3       4 GLC5        0.0000 
     21 CA          8.3690   -1.6810   15.9200 C.3      12 GLL5        0.0000 
     22 CA          5.6860   -4.7760   16.1050 C.3       8 GLP5        0.0000 
     23 CA         10.0370   -4.8995   13.0735 C.3       4 GLC5        0.0000 
     24 CA          9.3600   -3.1860   14.1140 C.3      12 GLL5        0.0000 
     25 CA         10.7140   -6.6130   12.0330 C.3       8 GLP5        0.0000 
     26 CA          7.5230   -3.9810   15.1095 C.3       4 GLC5        0.0000 
     27 N          15.4350   -5.6940   20.4745 N.am      2 SEC2        0.0000 
     28 N          14.6650   -4.9590   19.2940 N.am     10 SEL2        0.0000 
     29 N          16.2050   -6.4290   21.6550 N.am      6 SEP2        0.0000 
     30 N          14.1560   -5.2010   20.6535 N.am      2 SEC2        0.0000 
     31 N          13.6470   -5.4430   22.0130 N.am      6 SEP2        0.0000 
     32 OD1        18.2955   -3.5295   15.8105 O.co2     3 ASC3        0.0000 
     33 OD1        18.5270   -4.7260   16.4310 O.co2    11 ASL3        0.0000 
     34 OD1        18.0640   -2.3330   15.1900 O.co2     7 ASP3        0.0000 
     35 CA         21.3040   -5.1070   16.9915 C.3       4 GLC5        0.0000 
     36 CA         19.5010   -4.4610   17.4840 C.3      12 GLL5        0.0000 
     37 CA         23.1070   -5.7530   16.4990 C.3       8 GLP5        0.0000 
     38 CA         20.6670   -3.0565   16.5815 C.3       4 GLC5        0.0000 
     39 CA         21.8330   -1.6520   15.6790 C.3       8 GLP5        0.0000 
     40 CA         19.4115   -9.6390   15.4730 C.3       4 GLC5        0.0000 
     41 CA         20.3510  -10.0460   17.1770 C.3      12 GLL5        0.0000 
     42 CA         18.4720   -9.2320   13.7690 C.3       8 GLP5        0.0000 
     43 CA         18.9455  -11.5440   17.6510 C.3       4 GLC5        0.0000 
     44 CA         17.5400  -13.0420   18.1250 C.3       8 GLP5        0.0000 
     45 CA         18.2305   -9.6660   17.3455 C.3       4 GLC5        0.0000 
     46 CA         16.1100   -9.2860   17.5140 C.3       8 GLP5        0.0000 
     47 CA         10.0245   -6.2770   19.1645 C.3       4 GLC5        0.0000 
     48 CA         10.0490   -7.1910   17.4990 C.3      12 GLL5        0.0000 
     49 CA         10.0000   -5.3630   20.8300 C.3       8 GLP5        0.0000 
     50 CA         12.8385   -9.4030   18.9470 C.3       4 GLC5        0.0000 
     51 CA         11.2630   -8.3060   19.2050 C.3      12 GLL5        0.0000 
     52 CA         14.4140  -10.5000   18.6890 C.3       8 GLP5        0.0000 
     53 CA         11.3180   -8.7090   20.9095 C.3       4 GLC5        0.0000 
     54 CA         11.3730   -9.1120   22.6140 C.3       8 GLP5        0.0000 
     55 CA         10.8220   -9.6005   18.3635 C.3       4 GLC5        0.0000 
     56 CA         10.3810  -10.8950   17.5220 C.3       8 GLP5        0.0000 
     57 CA          7.3190   -5.4140   15.9245 C.3       4 GLC5        0.0000 
     58 CA          8.9520   -6.0520   15.7440 C.3      12 GLL5        0.0000 
     59 CA          8.0020   -6.7840   14.7315 C.3       4 GLC5        0.0000 
     60 CA          7.0520   -7.5160   13.7190 C.3       8 GLP5        0.0000 
     61 O          16.4910   -5.9475   13.7265 O.2       1 ALC1        0.0000 
     62 O          16.7880   -6.5770   15.3220 O.2       9 ALL1        0.0000 
     63 O          16.1940   -5.3180   12.1310 O.2       5 ALP1        0.0000 
     64 O          16.3725   -6.9620   14.1365 O.2       1 ALC1        0.0000 
     65 O          15.9570   -7.3470   12.9510 O.2       5 ALP1        0.0000 
     66 CA         12.7430   -1.2285   16.5652 C.3       4 GLC5        0.0000 
     67 CA         12.2580   -2.6510   17.9760 C.3      12 GLL5        0.0000 
     68 CA         13.6190   -0.3730   14.9900 C.3       8 GLP5        0.0000 
     69 CA          6.9750   -3.8725   17.2620 C.3       4 GLC5        0.0000 
     70 CA          8.8970   -3.1020   17.9970 C.3      12 GLL5        0.0000 
     71 CA         15.2323   -7.6625   16.7480 C.3       4 GLC5        0.0000 
     72 CA         13.3485   -7.9928   14.4423 C.3       4 GLC5        0.0000 
     73 CA         13.5140   -9.5100   13.0570 C.3       8 GLP5        0.0000 
     74 CA         18.2065   -8.1735   20.4332 C.3       4 GLC5        0.0000 
     75 CA         20.1030   -8.2490   19.6600 C.3      12 GLL5        0.0000 
     76 CA         16.4000   -8.7070   20.8480 C.3       8 GLP5        0.0000 
     77 CA         13.6167   -7.9607   18.7575 C.3       4 GLC5        0.0000 
     78 CA         12.4960   -7.3630   17.4160 C.3      12 GLL5        0.0000 
     79 CA         15.3520   -8.4210   19.7720 C.3       8 GLP5        0.0000 
     80 CA          9.3335   -8.8517   18.6658 C.3       4 GLC5        0.0000 
     81 CA         11.2670   -7.6380   18.0700 C.3      12 GLL5        0.0000 
     82 CA          8.0090  -10.2890   19.5470 C.3       8 GLP5        0.0000 
     83 CA         11.8245   -3.6754   19.6006 C.3       4 GLC5        0.0000 
     84 CA         13.3380   -3.0420   18.8190 C.3      12 GLL5        0.0000 
     85 CA         11.5120   -5.1690   20.8500 C.3       8 GLP5        0.0000 
     86 CA         13.4480   -0.0290   18.4285 C.3       4 GLC5        0.0000 
     87 CA         12.8530   -1.1540   20.3280 C.3      12 GLL5        0.0000 
     88 CA         14.5820    0.9040   16.9530 C.3       8 GLP5        0.0000 
     89 CA         12.3773   -3.4467   20.5048 C.3       4 GLC5        0.0000 
     90 CA          6.9440   -1.6390   14.2222 C.3       4 GLC5        0.0000 
     91 CA          5.1380   -1.5650   13.1940 C.3       8 GLP5        0.0000 
     92 CA          8.5708   -2.3342   12.5117 C.3       4 GLC5        0.0000 
     93 CA          9.1310   -1.7450   14.5810 C.3      12 GLL5        0.0000 
     94 CA          7.8960   -2.2030   10.6760 C.3       8 GLP5        0.0000 
     95 CA          9.0297   -3.8603   19.9947 C.3       4 GLC5        0.0000 
     96 CA         16.4165   -7.2445   16.9718 C.3       4 GLC5        0.0000 
     97 CA         16.2420   -5.4200   15.8810 C.3      12 GLL5        0.0000 
     98 CA         11.5421   -6.5361   19.6620 C.3       4 GLC5        0.0000 
     99 CA         10.2665   -6.4026   13.9403 C.3       4 GLC5        0.0000 
    100 CA         11.3020   -6.1940   15.6250 C.3      12 GLL5        0.0000 
@<TRIPOS>BOND
@<TRIPOS>SUBSTRUCTURE
     1 ALC1        1 GROUP        1 X    ALC  0     ROOT ALC X 1
     2 SEC2       15 GROUP        1 X    SEC  0     **** SEC X 2
     3 ASC3       32 GROUP        1 X    ASC  0     **** ASC X 3
     4 GLC5        4 GROUP        1 X    GLC  0     **** GLC X 6
     5 ALP1        3 GROUP        1 Y    ALP  0     ROOT ALP Y 8
     6 SEP2       17 GROUP        1 Y    SEP  0     **** SEP Y 9
     7 ASP3       34 GROUP        1 Y    ASP  0     **** ASP Y 10
     8 GLP5        6 GROUP        1 Y    GLP  0     **** GLP Y 13
     9 ALL1        2 GROUP        1 Z    ALL  0     ROOT ALL Z 15
    10 SEL2       16 GROUP        1 Z    SEL  0     **** SEL Z 16
    11 ASL3       33 GROUP        1 Z    ASL  0     **** ASL Z 17
    12 GLL5        5 GROUP        1 Z    GLL  0     **** GLL Z 20
@<TRIPOS>SET

