#    Name: 2iqg_F2I_1_ligand
#    Modification time : Tue Mar 25 18:30:20 2014

@<TRIPOS>MOLECULE
2iqg_F2I_1_ligand
   78    80     1     0     0
SMALL
NO_CHARGES


@<TRIPOS>ATOM
      1 N1         14.1920   -4.5720   17.0800 N.am      1 F2I801      0.0000 
      2 C4         13.3380   -3.0420   18.8190 C.ar      1 F2I801      0.0000 
      3 C5         12.2580   -2.6510   17.9760 C.ar      1 F2I801      0.0000 
      4 C6         10.3290   -1.0910   17.4110 C.2       1 F2I801      0.0000 
      5 C7         13.1660   -0.3560   21.5730 C.3       1 F2I801      0.0000 
      6 C8         14.1320   -4.2580   18.4430 C.2       1 F2I801      0.0000 
      7 C10         8.8970   -3.1020   17.9970 C.3       1 F2I801      0.0000 
      8 C13         7.6310   -2.8360   18.8410 C.3       1 F2I801      0.0000 
      9 C15        14.8670   -5.7600   16.4890 C.3       1 F2I801      0.0000 
     10 C17        13.8420   -6.3180   15.4750 C.3       1 F2I801      0.0000 
     11 C20        19.7260   -5.7770   18.2620 C.ar      1 F2I801      0.0000 
     12 C21        19.7350   -5.8040   19.6830 C.ar      1 F2I801      0.0000 
     13 C22        19.9230   -7.0310   20.3770 C.ar      1 F2I801      0.0000 
     14 C24        20.0970   -8.2480   18.2390 C.ar      1 F2I801      0.0000 
     15 C26        11.2670   -7.6380   18.0700 C.ar      1 F2I801      0.0000 
     16 C28        12.5240   -6.6330   16.1800 C.ar      1 F2I801      0.0000 
     17 C          11.4760   -1.5170   18.3050 C.ar      1 F2I801      0.0000 
     18 C1         11.7750   -0.7700   19.4800 C.ar      1 F2I801      0.0000 
     19 C2         12.8530   -1.1540   20.3280 C.ar      1 F2I801      0.0000 
     20 C3         13.6320   -2.2950   19.9910 C.ar      1 F2I801      0.0000 
     21 O          10.3730    0.0410   16.9580 O.2       1 F2I801      0.0000 
     22 N           9.2200   -1.9640   17.1090 N.am      1 F2I801      0.0000 
     23 C9          8.3690   -1.6810   15.9200 C.3       1 F2I801      0.0000 
     24 C11         9.1310   -1.7450   14.5810 C.3       1 F2I801      0.0000 
     25 C12         9.3600   -3.1860   14.1140 C.3       1 F2I801      0.0000 
     26 C14         7.8550   -1.7460   19.9000 C.3       1 F2I801      0.0000 
     27 O1         14.6650   -4.9590   19.2940 O.2       1 F2I801      0.0000 
     28 C16        16.2420   -5.4200   15.8810 C.3       1 F2I801      0.0000 
     29 C18        17.2040   -4.9860   16.9780 C.3       1 F2I801      0.0000 
     30 N2         18.5270   -4.7260   16.4310 N.4       1 F2I801      0.0000 
     31 C19        19.5010   -4.4610   17.4840 C.3       1 F2I801      0.0000 
     32 C23        20.1030   -8.2490   19.6600 C.ar      1 F2I801      0.0000 
     33 C25        19.9100   -7.0170   17.5460 C.ar      1 F2I801      0.0000 
     34 I          20.3510  -10.0460   17.1770 I         1 F2I801      0.0000 
     35 C27        12.4960   -7.3630   17.4160 C.ar      1 F2I801      0.0000 
     36 C29        11.3020   -6.1940   15.6250 C.ar      1 F2I801      0.0000 
     37 C30        10.0700   -6.4710   16.2770 C.ar      1 F2I801      0.0000 
     38 C31        10.0490   -7.1910   17.4990 C.ar      1 F2I801      0.0000 
     39 F          11.2630   -8.3060   19.2050 F         1 F2I801      0.0000 
     40 F1          8.9520   -6.0520   15.7440 F         1 F2I801      0.0000 
     41 O2         16.7880   -6.5770   15.3220 O.3       1 F2I801      0.0000 
     42 H          13.7285   -3.9317   16.3830 H         1 F2I801      0.0000 
     43 H          12.0511   -3.1901   17.1367 H         1 F2I801      0.0000 
     44 H           8.7266   -4.0132   17.4094 H         1 F2I801      0.0000 
     45 H           9.7276   -3.3009   18.6863 H         1 F2I801      0.0000 
     46 H           7.3365   -3.7634   19.3373 H         1 F2I801      0.0000 
     47 H           6.8213   -2.5287   18.1754 H         1 F2I801      0.0000 
     48 H          14.9876   -6.5074   17.2664 H         1 F2I801      0.0000 
     49 H          14.2431   -7.2221   15.0321 H         1 F2I801      0.0000 
     50 H          13.6736   -5.5769   14.7024 H         1 F2I801      0.0000 
     51 H          19.6060   -4.9388   20.2083 H         1 F2I801      0.0000 
     52 H          19.9292   -7.0404   21.3984 H         1 F2I801      0.0000 
     53 H          11.2116    0.0482   19.7168 H         1 F2I801      0.0000 
     54 H          14.4048   -2.5776   20.5937 H         1 F2I801      0.0000 
     55 H           7.9173   -0.6771   16.0076 H         1 F2I801      0.0000 
     56 H           7.5336   -2.4017   15.8717 H         1 F2I801      0.0000 
     57 H          10.0963   -1.2472   14.6999 H         1 F2I801      0.0000 
     58 H           8.5574   -1.2073   13.8223 H         1 F2I801      0.0000 
     59 H          16.1315   -4.6342   15.1848 H         1 F2I801      0.0000 
     60 H          17.2420   -5.7797   17.7351 H         1 F2I801      0.0000 
     61 H          16.7948   -4.0877   17.4578 H         1 F2I801      0.0000 
     62 H          20.4529   -4.1474   17.0745 H         1 F2I801      0.0000 
     63 H          19.1383   -3.7173   18.1822 H         1 F2I801      0.0000 
     64 H          20.2361   -9.1214   20.1685 H         1 F2I801      0.0000 
     65 H          19.9048   -7.0033   16.5239 H         1 F2I801      0.0000 
     66 H          13.3757   -7.6854   17.8239 H         1 F2I801      0.0000 
     67 H          11.2993   -5.6709   14.7447 H         1 F2I801      0.0000 
     68 H           9.1653   -7.3851   17.9623 H         1 F2I801      0.0000 
     69 H          13.9430   -0.7379   22.0734 H         1 F2I801      0.0000 
     70 H          13.3941    0.5936   21.3579 H         1 F2I801      0.0000 
     71 H          12.3916   -0.3354   22.2054 H         1 F2I801      0.0000 
     72 H           9.8556   -3.2208   13.2462 H         1 F2I801      0.0000 
     73 H           9.8932   -3.7111   14.7773 H         1 F2I801      0.0000 
     74 H           8.4977   -3.6741   13.9789 H         1 F2I801      0.0000 
     75 H           8.5808   -1.9949   20.5414 H         1 F2I801      0.0000 
     76 H           8.1161   -0.8740   19.4860 H         1 F2I801      0.0000 
     77 H           7.0307   -1.5786   20.4408 H         1 F2I801      0.0000 
     78 H          16.3279   -6.6802   14.4401 H         1 F2I801      0.0000 
@<TRIPOS>BOND
     1    6    1 am   
     2    9    1 1    
     3   42    1 1    
     4    3    2 ar   
     5    6    2 1    
     6   20    2 ar   
     7   17    3 ar   
     8   43    3 1    
     9   17    4 1    
    10   21    4 2    
    11   22    4 am   
    12   19    5 1    
    13   69    5 1    
    14   70    5 1    
    15   71    5 1    
    16   27    6 2    
    17    8    7 1    
    18   22    7 1    
    19   44    7 1    
    20   45    7 1    
    21   26    8 1    
    22   46    8 1    
    23   47    8 1    
    24   10    9 1    
    25   28    9 1    
    26   48    9 1    
    27   16   10 1    
    28   49   10 1    
    29   50   10 1    
    30   12   11 ar   
    31   31   11 1    
    32   33   11 ar   
    33   13   12 ar   
    34   51   12 1    
    35   32   13 ar   
    36   52   13 1    
    37   32   14 ar   
    38   33   14 ar   
    39   34   14 1    
    40   35   15 ar   
    41   38   15 ar   
    42   39   15 1    
    43   35   16 ar   
    44   36   16 ar   
    45   18   17 ar   
    46   19   18 ar   
    47   53   18 1    
    48   20   19 ar   
    49   54   20 1    
    50   23   22 1    
    51   24   23 1    
    52   55   23 1    
    53   56   23 1    
    54   25   24 1    
    55   57   24 1    
    56   58   24 1    
    57   72   25 1    
    58   73   25 1    
    59   74   25 1    
    60   75   26 1    
    61   76   26 1    
    62   77   26 1    
    63   29   28 1    
    64   41   28 1    
    65   59   28 1    
    66   30   29 1    
    67   60   29 1    
    68   61   29 1    
    69   31   30 1    
    70   62   31 1    
    71   63   31 1    
    72   64   32 1    
    73   65   33 1    
    74   66   35 1    
    75   37   36 ar   
    76   67   36 1    
    77   38   37 ar   
    78   40   37 1    
    79   68   38 1    
    80   78   41 1    
@<TRIPOS>SUBSTRUCTURE
     1 F2I801      1 GROUP   
@<TRIPOS>SET

