#    Name: 4kip_1R9_2_INTS_M
#    Modification time : Tue Mar 25 07:58:24 2014

@<TRIPOS>MOLECULE
4kip_1R9_2_INTS_M
   89     0     9     0     0
SMALL
NO_CHARGES


@<TRIPOS>ATOM
      1 CA         -3.0955   -2.2520   -7.6100 C.3       3 GLC5        0.0000 
      2 CA         -2.7930   -1.8880   -5.4740 C.3       9 GLL5        0.0000 
      3 CA         -3.3980   -2.6160   -9.7460 C.3       6 GLP5        0.0000 
      4 CA         -4.4675   -0.9660   -7.5590 C.3       3 GLC5        0.0000 
      5 CA         -4.0480   -1.3170   -5.6710 C.3       9 GLL5        0.0000 
      6 CA         -4.8870   -0.6150   -9.4470 C.3       6 GLP5        0.0000 
      7 CA         -5.7105   -0.0155   -6.4480 C.3       3 GLC5        0.0000 
      8 CA         -7.3730    1.2860   -7.2250 C.3       6 GLP5        0.0000 
      9 CA         -6.8965   -1.3595   -6.0485 C.3       3 GLC5        0.0000 
     10 CA         -5.1680   -1.8670   -5.0720 C.3       9 GLL5        0.0000 
     11 CA         -8.6250   -0.8520   -7.0250 C.3       6 GLP5        0.0000 
     12 CA         -5.2540   -3.6805   -6.0095 C.3       3 GLC5        0.0000 
     13 CA         -5.3400   -5.4940   -6.9470 C.3       6 GLP5        0.0000 
     14 CA         -6.4510   -5.4380   -2.6720 C.3       3 GLC5        0.0000 
     15 CA         -6.3260   -3.6140   -3.6620 C.3       9 GLL5        0.0000 
     16 CA         -6.5760   -7.2620   -1.6820 C.3       6 GLP5        0.0000 
     17 CA         -5.8330   -4.5540   -5.3045 C.3       3 GLC5        0.0000 
     18 O          -2.7635    0.7970   -6.5665 O.2       1 ALC1        0.0000 
     19 O          -1.6410   -0.3090   -6.9030 O.2       7 ALL1        0.0000 
     20 O          -3.8860    1.9030   -6.2300 O.2       4 ALP1        0.0000 
     21 N           0.7630   -1.4715   -5.3625 N.am      2 SEC2        0.0000 
     22 N          -0.4510   -1.9210   -5.8710 N.am      8 SEL2        0.0000 
     23 N           1.9770   -1.0220   -4.8540 N.am      5 SEP2        0.0000 
     24 CA          0.7485    0.3355   -6.2160 C.3       3 GLC5        0.0000 
     25 CA         -0.5170    0.2240   -7.6690 C.3       9 GLL5        0.0000 
     26 CA          2.0140    0.4470   -4.7630 C.3       6 GLP5        0.0000 
     27 CA          0.8835   -1.2650   -8.5860 C.3       3 GLC5        0.0000 
     28 CA          2.2840   -2.7540   -9.5030 C.3       6 GLP5        0.0000 
     29 CA         -2.4575    2.1935   -8.4195 C.3       3 GLC5        0.0000 
     30 CA         -0.7550    1.3890   -8.5300 C.3       9 GLL5        0.0000 
     31 CA         -4.1600    2.9980   -8.3090 C.3       6 GLP5        0.0000 
     32 CA         -0.0755    2.4270  -10.1505 C.3       3 GLC5        0.0000 
     33 CA          0.6040    3.4650  -11.7710 C.3       6 GLP5        0.0000 
     34 CA         -0.5725    0.8870  -11.0975 C.3       3 GLC5        0.0000 
     35 CA         -0.5340    0.0610   -9.1300 C.3       9 GLL5        0.0000 
     36 CA         -0.6110    1.7130  -13.0650 C.3       6 GLP5        0.0000 
     37 CA         -2.2150   -0.6220   -9.7485 C.3       3 GLC5        0.0000 
     38 CA         -3.8960   -1.3050  -10.3670 C.3       6 GLP5        0.0000 
     39 CA          0.6080   -1.1210   -9.9120 C.3       3 GLC5        0.0000 
     40 CA          1.7500   -2.3030  -10.6940 C.3       6 GLP5        0.0000 
     41 CA         -1.8480   -8.5125   -1.8345 C.3       3 GLC5        0.0000 
     42 CA         -3.1590   -6.9520   -1.3070 C.3       9 GLL5        0.0000 
     43 CA         -0.5370  -10.0730   -2.3620 C.3       6 GLP5        0.0000 
     44 N          -2.8710   -9.4555   -0.5540 N.am      2 SEC2        0.0000 
     45 N          -2.8680   -7.8180   -0.2880 N.am      8 SEL2        0.0000 
     46 N          -2.8740  -11.0930   -0.8200 N.am      5 SEP2        0.0000 
     47 CA         -0.4720   -5.3850   -0.4990 C.3       3 GLC5        0.0000 
     48 CA         -2.3350   -5.4340    0.5710 C.3       9 GLL5        0.0000 
     49 CA          1.3910   -5.3360   -1.5690 C.3       6 GLP5        0.0000 
     50 O          -4.4955   -5.6110   -3.9480 O.2       1 ALC1        0.0000 
     51 O          -3.6450   -4.5640   -3.0690 O.2       7 ALL1        0.0000 
     52 O          -5.3460   -6.6580   -4.8270 O.2       4 ALP1        0.0000 
     53 CA          0.0755   -8.9960    0.2830 C.3       3 GLC5        0.0000 
     54 CA          0.6110   -7.4200    1.4960 C.3       9 GLL5        0.0000 
     55 CA         -0.4600  -10.5720   -0.9300 C.3       6 GLP5        0.0000 
     56 CA          2.4340   -7.3340    2.5310 C.3       3 GLC5        0.0000 
     57 CA          4.2570   -7.2480    3.5660 C.3       6 GLP5        0.0000 
     58 CA          1.6435   -8.1455   -0.0455 C.3       3 GLC5        0.0000 
     59 CA          2.6760   -8.8710   -1.5870 C.3       6 GLP5        0.0000 
     60 CA          1.0010   -6.3780   -0.0365 C.3       3 GLC5        0.0000 
     61 CA         -6.7590   -1.9890   -3.2125 C.3       3 GLC5        0.0000 
     62 CA         -5.0840   -2.9940   -4.2500 C.3       9 GLL5        0.0000 
     63 CA         -7.8130   -0.6740   -2.4690 C.3       6 GLP5        0.0000 
     64 CA         -1.5252   -4.3955   -4.0290 C.3       3 GLC5        0.0000 
     65 CA         -3.8090   -3.5430   -4.0310 C.3       9 GLL5        0.0000 
     66 CA          0.1960   -5.5160   -3.7160 C.3       6 GLP5        0.0000 
     67 CA         -1.4268   -3.5782   -6.3113 C.3       3 GLC5        0.0000 
     68 CA         -2.6840   -3.0070   -4.6530 C.3       9 GLL5        0.0000 
     69 CA         -0.1150   -4.7090   -7.5590 C.3       6 GLP5        0.0000 
     70 CA         -4.4526   -4.3159   -5.6719 C.3       3 GLC5        0.0000 
     71 CA         -4.9245   -0.0810   -4.3133 C.3       3 GLC5        0.0000 
     72 CA         -5.2410    1.4300   -3.2550 C.3       6 GLP5        0.0000 
     73 CA         -0.5950    2.5377   -7.0797 C.3       3 GLC5        0.0000 
     74 CA         -0.5540    4.2690   -6.0600 C.3       6 GLP5        0.0000 
     75 CA         -4.4805   -4.7513    0.3568 C.3       3 GLC5        0.0000 
     76 CA         -2.9510   -5.6310   -1.0420 C.3       9 GLL5        0.0000 
     77 CA         -6.3180   -3.9700    0.9490 C.3       6 GLP5        0.0000 
     78 CA         -4.8155   -6.7767   -1.4283 C.3       3 GLC5        0.0000 
     79 CA         -1.4295   -5.9038   -2.4452 C.3       3 GLC5        0.0000 
     80 CA         -0.9127   -9.2805    0.6452 C.3       3 GLC5        0.0000 
     81 CA         -2.0300   -7.8850    2.0280 C.3       9 GLL5        0.0000 
     82 CA         -4.0885   -7.5938    4.4692 C.3       3 GLC5        0.0000 
     83 CA         -3.0360   -8.4440    2.8230 C.3       9 GLL5        0.0000 
     84 CA         -5.2990   -6.3660    5.5550 C.3       6 GLP5        0.0000 
     85 CA         -4.4575   -9.3562    2.4463 C.3       3 GLC5        0.0000 
     86 CA         -6.0370   -9.8910    1.5090 C.3       6 GLP5        0.0000 
     87 CA          0.6172  -10.3253    3.8872 C.3       3 GLC5        0.0000 
     88 CA         -1.4020   -9.4000    4.2990 C.3       9 GLL5        0.0000 
     89 CA          2.1270  -11.5280    3.8550 C.3       6 GLP5        0.0000 
@<TRIPOS>BOND
@<TRIPOS>SUBSTRUCTURE
     1 ALC1       18 GROUP        1 X    ALC  0     ROOT ALC X 1
     2 SEC2       21 GROUP        1 X    SEC  0     **** SEC X 2
     3 GLC5        1 GROUP        1 X    GLC  0     **** GLC X 6
     4 ALP1       20 GROUP        1 Y    ALP  0     ROOT ALP Y 8
     5 SEP2       23 GROUP        1 Y    SEP  0     **** SEP Y 9
     6 GLP5        3 GROUP        1 Y    GLP  0     **** GLP Y 13
     7 ALL1       19 GROUP        1 Z    ALL  0     ROOT ALL Z 15
     8 SEL2       22 GROUP        1 Z    SEL  0     **** SEL Z 16
     9 GLL5        2 GROUP        1 Z    GLL  0     **** GLL Z 20
@<TRIPOS>SET

