#    Name: 4kip_1R9_2_ligand
#    Modification time : Tue Mar 25 07:58:24 2014

@<TRIPOS>MOLECULE
4kip_1R9_2_ligand
   46    49     1     0     0
SMALL
NO_CHARGES


@<TRIPOS>ATOM
      1 C1         -5.0840   -2.9940   -4.2500 C.ar      1 1R9401      0.0000 
      2 C2         -3.8090   -3.5430   -4.0310 C.ar      1 1R9401      0.0000 
      3 C3         -2.6840   -3.0070   -4.6530 C.ar      1 1R9401      0.0000 
      4 C4         -2.7930   -1.8880   -5.4740 C.ar      1 1R9401      0.0000 
      5 C5         -4.0480   -1.3170   -5.6710 C.ar      1 1R9401      0.0000 
      6 C6         -5.1680   -1.8670   -5.0720 C.ar      1 1R9401      0.0000 
      7 C7         -6.3260   -3.6140   -3.6620 C.3       1 1R9401      0.0000 
      8 C8         -1.5310   -1.3790   -6.0990 C.2       1 1R9401      0.0000 
      9 N9         -1.6410   -0.3090   -6.9030 N.am      1 1R9401      0.0000 
     10 O10        -0.4510   -1.9210   -5.8710 O.2       1 1R9401      0.0000 
     11 C11        -0.5170    0.2240   -7.6690 C.3       1 1R9401      0.0000 
     12 C12        -0.7550    1.3890   -8.5300 C.3       1 1R9401      0.0000 
     13 C13        -0.5340    0.0610   -9.1300 C.3       1 1R9401      0.0000 
     14 C14        -3.1460   -4.3910   -1.8230 C.2       1 1R9401      0.0000 
     15 C15        -2.9510   -5.6310   -1.0420 C.2       1 1R9401      0.0000 
     16 C16        -3.1590   -6.9520   -1.3070 C.2       1 1R9401      0.0000 
     17 N17        -2.8680   -7.8180   -0.2880 N.2       1 1R9401      0.0000 
     18 C18        -2.4100   -7.1720    0.7990 C.2       1 1R9401      0.0000 
     19 S19        -2.3350   -5.4340    0.5710 S.3       1 1R9401      0.0000 
     20 C20        -2.0300   -7.8850    2.0280 C.ar      1 1R9401      0.0000 
     21 C21        -3.0360   -8.4440    2.8230 C.ar      1 1R9401      0.0000 
     22 C22        -2.7200   -9.1990    3.9440 C.ar      1 1R9401      0.0000 
     23 C23        -1.4020   -9.4000    4.2990 C.ar      1 1R9401      0.0000 
     24 C24        -0.3830   -8.8450    3.5400 C.ar      1 1R9401      0.0000 
     25 C25        -0.7010   -8.0930    2.4130 C.ar      1 1R9401      0.0000 
     26 N26        -3.6450   -4.5640   -3.0690 N.am      1 1R9401      0.0000 
     27 O27        -2.8330   -3.2890   -1.3570 O.2       1 1R9401      0.0000 
     28 CL1         0.6110   -7.4200    1.4960 Cl        1 1R9401      0.0000 
     29 H          -1.7609   -3.4437   -4.5037 H         1 1R9401      0.0000 
     30 H          -4.1392   -0.4802   -6.2669 H         1 1R9401      0.0000 
     31 H          -6.1001   -1.4339   -5.2346 H         1 1R9401      0.0000 
     32 H          -2.5480    0.1982   -7.0190 H         1 1R9401      0.0000 
     33 H           0.4197    0.2544   -7.3929 H         1 1R9401      0.0000 
     34 H           0.0513    1.8997   -8.5988 H         1 1R9401      0.0000 
     35 H          -1.6916    1.5847   -8.5433 H         1 1R9401      0.0000 
     36 H          -1.3771   -0.3050   -9.3948 H         1 1R9401      0.0000 
     37 H           0.3658    0.0101   -9.4502 H         1 1R9401      0.0000 
     38 H          -3.5056   -7.2737   -2.1975 H         1 1R9401      0.0000 
     39 H          -4.0256   -8.2902    2.5686 H         1 1R9401      0.0000 
     40 H          -3.4775   -9.6106    4.5125 H         1 1R9401      0.0000 
     41 H          -1.1707   -9.9647    5.1314 H         1 1R9401      0.0000 
     42 H           0.5970   -8.9860    3.8048 H         1 1R9401      0.0000 
     43 H          -3.9458   -5.5435   -3.3716 H         1 1R9401      0.0000 
     44 H          -6.4565   -4.5542   -3.9767 H         1 1R9401      0.0000 
     45 H          -6.2901   -3.6416   -2.6630 H         1 1R9401      0.0000 
     46 H          -7.1494   -3.1044   -3.9117 H         1 1R9401      0.0000 
@<TRIPOS>BOND
     1    2    1 ar   
     2    6    1 ar   
     3    7    1 1    
     4    3    2 ar   
     5   26    2 1    
     6    4    3 ar   
     7   29    3 1    
     8    5    4 ar   
     9    8    4 1    
    10    6    5 ar   
    11   30    5 1    
    12   31    6 1    
    13   44    7 1    
    14   45    7 1    
    15   46    7 1    
    16    9    8 am   
    17   10    8 2    
    18   11    9 1    
    19   32    9 1    
    20   12   11 1    
    21   13   11 1    
    22   33   11 1    
    23   13   12 1    
    24   34   12 1    
    25   35   12 1    
    26   36   13 1    
    27   37   13 1    
    28   15   14 1    
    29   26   14 am   
    30   27   14 2    
    31   16   15 2    
    32   19   15 1    
    33   17   16 1    
    34   38   16 1    
    35   18   17 2    
    36   19   18 1    
    37   20   18 1    
    38   21   20 ar   
    39   25   20 ar   
    40   22   21 ar   
    41   39   21 1    
    42   23   22 ar   
    43   40   22 1    
    44   24   23 ar   
    45   41   23 1    
    46   25   24 ar   
    47   42   24 1    
    48   28   25 1    
    49   43   26 1    
@<TRIPOS>SUBSTRUCTURE
     1 1R9401      1 GROUP   
@<TRIPOS>SET

