#    Name: 1pzh_NAD_4_INTS_M
#    Modification time : Mon Mar 24 22:34:04 2014

@<TRIPOS>MOLECULE
1pzh_NAD_4_INTS_M
   85     0     9     0     0
SMALL
NO_CHARGES


@<TRIPOS>ATOM
      1 N         -29.5900   -8.5625   49.7445 N.am      2 SEC2        0.0000 
      2 N         -30.4070   -8.4050   48.5990 N.am      8 SEL2        0.0000 
      3 N         -28.7730   -8.7200   50.8900 N.am      5 SEP2        0.0000 
      4 N         -36.8575   -7.5505   50.3930 N.am      2 SEC2        0.0000 
      5 N         -35.9280   -8.8410   50.8040 N.am      8 SEL2        0.0000 
      6 N         -37.7870   -6.2600   49.9820 N.am      5 SEP2        0.0000 
      7 O         -34.3060  -11.6535   51.7960 O.2       1 ALC1        0.0000 
      8 O         -33.8210  -11.4510   50.6270 O.2       7 ALL1        0.0000 
      9 O         -34.7910  -11.8560   52.9650 O.2       4 ALP1        0.0000 
     10 O         -36.2850  -12.7060   50.8850 O.2       1 ALC1        0.0000 
     11 O         -36.2610  -12.1450   49.5610 O.2       7 ALL1        0.0000 
     12 O         -36.3090  -13.2670   52.2090 O.2       4 ALP1        0.0000 
     13 CA        -38.0700  -11.7180   50.6535 C.3       3 GLC5        0.0000 
     14 CA        -36.6100  -10.0200   50.6490 C.3       9 GLL5        0.0000 
     15 CA        -39.5300  -13.4160   50.6580 C.3       6 GLP5        0.0000 
     16 CA        -37.0440   -8.0915   51.5330 C.3       3 GLC5        0.0000 
     17 CA        -37.4780   -6.1630   52.4170 C.3       6 GLP5        0.0000 
     18 CA        -40.8630  -11.7875   51.8040 C.3       3 GLC5        0.0000 
     19 CA        -41.2380   -9.7970   51.8540 C.3       9 GLL5        0.0000 
     20 CA        -40.4880  -13.7780   51.7540 C.3       6 GLP5        0.0000 
     21 CA        -38.3730  -11.6285   54.4495 C.3       3 GLC5        0.0000 
     22 CA        -39.6770  -10.1970   53.7120 C.3       9 GLL5        0.0000 
     23 CA        -37.0690  -13.0600   55.1870 C.3       6 GLP5        0.0000 
     24 CA        -40.0825  -11.9875   52.7330 C.3       3 GLC5        0.0000 
     25 CA        -39.1770   -8.4220   53.4765 C.3       3 GLC5        0.0000 
     26 CA        -38.6770   -6.6470   53.2410 C.3       6 GLP5        0.0000 
     27 N         -29.4980   -5.9835   51.3945 N.am      2 SEC2        0.0000 
     28 N         -30.7050   -5.8530   50.5850 N.am      8 SEL2        0.0000 
     29 N         -28.2910   -6.1140   52.2040 N.am      5 SEP2        0.0000 
     30 CA        -31.1260   -3.0050   50.5460 C.3       3 GLC5        0.0000 
     31 CA        -32.8380   -3.9810   49.9090 C.3       9 GLL5        0.0000 
     32 CA        -29.4140   -2.0290   51.1830 C.3       6 GLP5        0.0000 
     33 CA        -33.1270   -4.1075   51.8385 C.3       3 GLC5        0.0000 
     34 CA        -33.4160   -4.2340   53.7680 C.3       6 GLP5        0.0000 
     35 CA        -32.3900   -4.3465   47.7760 C.3       3 GLC5        0.0000 
     36 CA        -31.9420   -4.7120   45.6430 C.3       6 GLP5        0.0000 
     37 CA        -34.2525   -3.2430   51.6120 C.3       3 GLC5        0.0000 
     38 CA        -33.6430   -2.7640   49.5320 C.3       9 GLL5        0.0000 
     39 CA        -34.8620   -3.7220   53.6920 C.3       6 GLP5        0.0000 
     40 CA        -35.0690   -1.5115   50.2590 C.3       3 GLC5        0.0000 
     41 CA        -36.4950   -0.2590   50.9860 C.3       6 GLP5        0.0000 
     42 N         -35.9380   -0.6515   48.3530 N.am      2 SEC2        0.0000 
     43 N         -35.4140   -2.1340   47.9060 N.am      8 SEL2        0.0000 
     44 N         -36.4620    0.8310   48.8000 N.am      5 SEP2        0.0000 
     45 O         -35.6935   -2.7865   46.7365 O.2       1 ALC1        0.0000 
     46 O         -35.4140   -2.1340   47.9060 O.2       7 ALL1        0.0000 
     47 O         -35.9730   -3.4390   45.5670 O.2       4 ALP1        0.0000 
     48 N         -33.4075    0.7490   46.5100 N.am      2 SEC2        0.0000 
     49 N         -33.4850   -0.8280   46.4330 N.am      8 SEL2        0.0000 
     50 N         -33.3300    2.3260   46.5870 N.am      5 SEP2        0.0000 
     51 CA        -32.5475   -0.2135   50.8740 C.3       3 GLC5        0.0000 
     52 CA        -32.9730   -0.6820   48.7430 C.3       9 GLL5        0.0000 
     53 CA        -32.1220    0.2550   53.0050 C.3       6 GLP5        0.0000 
     54 CA        -34.7340   -0.4705   49.8645 C.3       3 GLC5        0.0000 
     55 CA        -30.2500    2.7910   51.7335 C.3       3 GLC5        0.0000 
     56 CA        -30.9840    2.3070   49.8000 C.3       9 GLL5        0.0000 
     57 CA        -29.5160    3.2750   53.6670 C.3       6 GLP5        0.0000 
     58 O         -33.4490    2.7830   51.2430 O.2       1 ALC1        0.0000 
     59 O         -32.4330    3.8920   51.0960 O.2       7 ALL1        0.0000 
     60 O         -34.4650    1.6740   51.3900 O.2       4 ALP1        0.0000 
     61 O         -32.4200    4.6220   52.3030 O.2       1 ALC1        0.0000 
     62 O         -32.4070    5.3520   53.5100 O.2       4 ALP1        0.0000 
     63 CA        -28.3285    3.3525   49.6890 C.3       3 GLC5        0.0000 
     64 CA        -29.6510    1.9880   49.2410 C.3       9 GLL5        0.0000 
     65 CA        -27.0060    4.7170   50.1370 C.3       6 GLP5        0.0000 
     66 CA        -32.5650   -9.8995   50.8835 C.3       3 GLC5        0.0000 
     67 CA        -34.4950   -9.0200   50.4380 C.3       9 GLL5        0.0000 
     68 CA        -30.6490  -10.0490   51.6610 C.3       6 GLP5        0.0000 
     69 CA        -39.5117  -11.6310   50.9660 C.3       3 GLC5        0.0000 
     70 CA        -38.8510   -9.9410   51.5360 C.3       9 GLL5        0.0000 
     71 CA        -41.3970   -8.0705   51.5370 C.3       3 GLC5        0.0000 
     72 CA        -40.1360   -9.7510   51.0120 C.3       9 GLL5        0.0000 
     73 CA        -42.1070   -6.3670   51.6410 C.3       6 GLP5        0.0000 
     74 CA        -39.2230   -8.2523   52.3628 C.3       3 GLC5        0.0000 
     75 CA        -32.7313   -3.3922   46.7157 C.3       3 GLC5        0.0000 
     76 CA        -34.0200   -2.5980   48.0160 C.3       9 GLL5        0.0000 
     77 CA        -34.3495    0.3768   47.4190 C.3       3 GLC5        0.0000 
     78 CA        -33.0210   -1.5470   47.5610 C.3       9 GLL5        0.0000 
     79 CA        -35.7020    1.8680   46.6860 C.3       6 GLP5        0.0000 
     80 CA        -31.8135    1.0673   51.3625 C.3       3 GLC5        0.0000 
     81 CA        -32.0260    1.4520   49.6400 C.3       9 GLL5        0.0000 
     82 CA        -27.8950    1.2580   49.8247 C.3       3 GLC5        0.0000 
     83 CA        -29.4850    0.7320   48.5440 C.3       9 GLL5        0.0000 
     84 CA        -26.2220    1.1560   50.7570 C.3       6 GLP5        0.0000 
     85 CA        -29.7425   -0.7177   49.9089 C.3       3 GLC5        0.0000 
@<TRIPOS>BOND
@<TRIPOS>SUBSTRUCTURE
     1 ALC1        7 GROUP        1 X    ALC  0     ROOT ALC X 1
     2 SEC2        1 GROUP        1 X    SEC  0     **** SEC X 2
     3 GLC5       13 GROUP        1 X    GLC  0     **** GLC X 6
     4 ALP1        9 GROUP        1 Y    ALP  0     ROOT ALP Y 8
     5 SEP2        3 GROUP        1 Y    SEP  0     **** SEP Y 9
     6 GLP5       15 GROUP        1 Y    GLP  0     **** GLP Y 13
     7 ALL1        8 GROUP        1 Z    ALL  0     ROOT ALL Z 15
     8 SEL2        2 GROUP        1 Z    SEL  0     **** SEL Z 16
     9 GLL5       14 GROUP        1 Z    GLL  0     **** GLL Z 20
@<TRIPOS>SET

