#    Name: 1pzh_NAD_4_ligand
#    Modification time : Mon Mar 24 22:34:04 2014

@<TRIPOS>MOLECULE
1pzh_NAD_4_ligand
   69    73     1     0     0
SMALL
NO_CHARGES


@<TRIPOS>ATOM
      1 PA        -31.6860   -7.8860   48.3050 P.3       1 NAD707      0.0000 
      2 O1A       -30.4070   -8.4050   48.5990 O.co2     1 NAD707      0.0000 
      3 O2A       -32.3860   -8.2790   47.0280 O.co2     1 NAD707      0.0000 
      4 O5B       -32.6170   -8.2460   49.5160 O.3       1 NAD707      0.0000 
      5 C5B       -34.0110   -7.8370   49.5710 C.3       1 NAD707      0.0000 
      6 C4B       -34.4950   -9.0200   50.4380 C.3       1 NAD707      0.0000 
      7 O4B       -35.9280   -8.8410   50.8040 O.3       1 NAD707      0.0000 
      8 C3B       -34.4670  -10.4800   49.7740 C.3       1 NAD707      0.0000 
      9 O3B       -33.8210  -11.4510   50.6270 O.3       1 NAD707      0.0000 
     10 C2B       -35.9350  -10.7740   49.5050 C.3       1 NAD707      0.0000 
     11 O2B       -36.2610  -12.1450   49.5610 O.3       1 NAD707      0.0000 
     12 C1B       -36.6100  -10.0200   50.6490 C.3       1 NAD707      0.0000 
     13 N9A       -38.0220   -9.8560   50.4870 N.pl3     1 NAD707      0.0000 
     14 C8A       -38.8090   -9.6140   49.3860 C.2       1 NAD707      0.0000 
     15 N7A       -40.0900   -9.5460   49.6590 N.2       1 NAD707      0.0000 
     16 C5A       -40.1360   -9.7510   51.0120 C.ar      1 NAD707      0.0000 
     17 C6A       -41.2380   -9.7970   51.8540 C.ar      1 NAD707      0.0000 
     18 N6A       -42.5330   -9.6480   51.4800 N.pl3     1 NAD707      0.0000 
     19 N1A       -40.9960  -10.0180   53.2230 N.ar      1 NAD707      0.0000 
     20 C2A       -39.6770  -10.1970   53.7120 C.ar      1 NAD707      0.0000 
     21 N3A       -38.5630  -10.1670   52.8790 N.ar      1 NAD707      0.0000 
     22 C4A       -38.8510   -9.9410   51.5360 C.ar      1 NAD707      0.0000 
     23 O3        -31.5900   -6.3090   48.3490 O.3       1 NAD707      0.0000 
     24 PN        -30.7280   -5.3000   49.2190 P.3       1 NAD707      0.0000 
     25 O1N       -29.4360   -5.0160   48.5710 O.co2     1 NAD707      0.0000 
     26 O2N       -30.7050   -5.8530   50.5850 O.co2     1 NAD707      0.0000 
     27 O5D       -31.6210   -4.0040   49.1020 O.3       1 NAD707      0.0000 
     28 C5D       -32.8380   -3.9810   49.9090 C.3       1 NAD707      0.0000 
     29 C4D       -33.6430   -2.7640   49.5320 C.3       1 NAD707      0.0000 
     30 O4D       -32.9560   -1.5450   49.8840 O.3       1 NAD707      0.0000 
     31 C3D       -34.0200   -2.5980   48.0160 C.3       1 NAD707      0.0000 
     32 O3D       -35.4140   -2.1340   47.9060 O.3       1 NAD707      0.0000 
     33 C2D       -33.0210   -1.5470   47.5610 C.3       1 NAD707      0.0000 
     34 O2D       -33.4850   -0.8280   46.4330 O.3       1 NAD707      0.0000 
     35 C1D       -32.9730   -0.6820   48.7430 C.3       1 NAD707      0.0000 
     36 N1N       -31.8310    0.2290   48.9330 N.pl3     1 NAD707      0.0000 
     37 C2N       -32.0260    1.4520   49.6400 C.ar      1 NAD707      0.0000 
     38 C3N       -30.9840    2.3070   49.8000 C.ar      1 NAD707      0.0000 
     39 C7N       -31.2440    3.6200   50.5530 C.2       1 NAD707      0.0000 
     40 O7N       -30.3170    4.4030   50.5850 O.2       1 NAD707      0.0000 
     41 N7N       -32.4330    3.8920   51.0960 N.am      1 NAD707      0.0000 
     42 C4N       -29.6510    1.9880   49.2410 C.ar      1 NAD707      0.0000 
     43 C5N       -29.4850    0.7320   48.5440 C.ar      1 NAD707      0.0000 
     44 C6N       -30.5740   -0.1730   48.3770 C.ar      1 NAD707      0.0000 
     45 H         -34.4765   -7.8951   48.6430 H         1 NAD707      0.0000 
     46 H         -34.1434   -6.9570   50.1089 H         1 NAD707      0.0000 
     47 H         -33.9212   -9.0831   51.3484 H         1 NAD707      0.0000 
     48 H         -33.9727  -10.3497   48.8267 H         1 NAD707      0.0000 
     49 H         -36.2116  -10.2868   48.6015 H         1 NAD707      0.0000 
     50 H         -36.4227  -10.6655   51.5542 H         1 NAD707      0.0000 
     51 H         -38.4091   -9.5046   48.4733 H         1 NAD707      0.0000 
     52 H         -39.5495  -10.3558   54.7325 H         1 NAD707      0.0000 
     53 H         -32.5972   -3.9298   50.9705 H         1 NAD707      0.0000 
     54 H         -33.4390   -4.8716   49.7278 H         1 NAD707      0.0000 
     55 H         -34.6045   -2.7805   50.0772 H         1 NAD707      0.0000 
     56 H         -33.8309   -3.5042   47.5407 H         1 NAD707      0.0000 
     57 H         -32.0861   -2.0173   47.4290 H         1 NAD707      0.0000 
     58 H         -33.9059   -0.0951   48.8035 H         1 NAD707      0.0000 
     59 H         -32.9591    1.6558   50.0133 H         1 NAD707      0.0000 
     60 H         -32.5070    4.7647   51.5787 H         1 NAD707      0.0000 
     61 H         -33.1427    3.1986   50.9713 H         1 NAD707      0.0000 
     62 H         -28.9025    2.6283   49.3498 H         1 NAD707      0.0000 
     63 H         -28.5642    0.4959   48.1662 H         1 NAD707      0.0000 
     64 H         -30.4696   -1.0359   47.9015 H         1 NAD707      0.0000 
     65 H         -33.9893  -11.1293   51.5588 H         1 NAD707      0.0000 
     66 H         -35.8842  -12.4652   50.4301 H         1 NAD707      0.0000 
     67 H         -42.5037   -9.0506   50.6786 H         1 NAD707      0.0000 
     68 H         -35.6073   -2.1261   46.9249 H         1 NAD707      0.0000 
     69 H         -32.6810   -0.7160   45.8490 H         1 NAD707      0.0000 
@<TRIPOS>BOND
     1    2    1 ar   
     2    3    1 ar   
     3    4    1 1    
     4   23    1 1    
     5    5    4 1    
     6    6    5 1    
     7   45    5 1    
     8   46    5 1    
     9    7    6 1    
    10    8    6 1    
    11   47    6 1    
    12   12    7 1    
    13    9    8 1    
    14   10    8 1    
    15   48    8 1    
    16   65    9 1    
    17   11   10 1    
    18   12   10 1    
    19   49   10 1    
    20   66   11 1    
    21   13   12 1    
    22   50   12 1    
    23   14   13 1    
    24   22   13 1    
    25   15   14 2    
    26   51   14 1    
    27   16   15 1    
    28   17   16 ar   
    29   22   16 ar   
    30   18   17 1    
    31   19   17 ar   
    32   67   18 1    
    33   20   19 ar   
    34   21   20 ar   
    35   52   20 1    
    36   22   21 ar   
    37   24   23 1    
    38   25   24 ar   
    39   26   24 ar   
    40   27   24 1    
    41   28   27 1    
    42   29   28 1    
    43   53   28 1    
    44   54   28 1    
    45   30   29 1    
    46   31   29 1    
    47   55   29 1    
    48   35   30 1    
    49   32   31 1    
    50   33   31 1    
    51   56   31 1    
    52   68   32 1    
    53   34   33 1    
    54   35   33 1    
    55   57   33 1    
    56   69   34 1    
    57   36   35 1    
    58   58   35 1    
    59   37   36 ar   
    60   44   36 ar   
    61   38   37 ar   
    62   59   37 1    
    63   39   38 1    
    64   42   38 ar   
    65   40   39 2    
    66   41   39 am   
    67   60   41 1    
    68   61   41 1    
    69   43   42 ar   
    70   62   42 1    
    71   44   43 ar   
    72   63   43 1    
    73   64   44 1    
@<TRIPOS>SUBSTRUCTURE
     1 NAD707      1 GROUP   
@<TRIPOS>SET

