#    Name: 4fr0_SAM_1_INTS_M
#    Modification time : Mon Mar 24 20:33:55 2014

@<TRIPOS>MOLECULE
4fr0_SAM_1_INTS_M
   72     0     9     0     0
SMALL
NO_CHARGES


@<TRIPOS>ATOM
      1 O          -3.4470   24.3210   29.6590 O.2       1 ALC1        0.0000 
      2 O          -3.4990   22.9540   29.8030 O.2       7 ALL1        0.0000 
      3 O          -3.3950   25.6880   29.5150 O.2       4 ALP1        0.0000 
      4 CA         -4.3650   24.6150   32.2560 C.3       3 GLC5        0.0000 
      5 CA         -4.4700   22.9200   30.8890 C.3       9 GLL5        0.0000 
      6 CA         -4.2600   26.3100   33.6230 C.3       6 GLP5        0.0000 
      7 CA         -6.6370   20.6845   31.5055 C.3       3 GLC5        0.0000 
      8 CA         -5.7990   22.3870   30.3490 C.3       9 GLL5        0.0000 
      9 CA         -7.4750   18.9820   32.6620 C.3       6 GLP5        0.0000 
     10 CA         -8.5690   20.9765   30.6285 C.3       3 GLC5        0.0000 
     11 CA         -8.4110   22.0860   28.6790 C.3       9 GLL5        0.0000 
     12 CA         -8.7270   19.8670   32.5780 C.3       6 GLP5        0.0000 
     13 CA         -7.4395   20.7090   27.4110 C.3       3 GLC5        0.0000 
     14 CA         -6.4680   19.3320   26.1430 C.3       6 GLP5        0.0000 
     15 CA         -9.6010   24.9195   27.5710 C.3       3 GLC5        0.0000 
     16 CA         -8.5360   24.7600   29.1660 C.3       9 GLL5        0.0000 
     17 CA        -10.6660   25.0790   25.9760 C.3       6 GLP5        0.0000 
     18 N          -7.3455   26.3320   33.2310 N.am      2 SEC2        0.0000 
     19 N          -7.0390   26.9360   31.7330 N.am      8 SEL2        0.0000 
     20 N          -7.6520   25.7280   34.7290 N.am      5 SEP2        0.0000 
     21 O          -6.0265   27.7255   31.6075 O.2       1 ALC1        0.0000 
     22 O          -7.0390   26.9360   31.7330 O.2       7 ALL1        0.0000 
     23 O          -5.0140   28.5150   31.4820 O.2       4 ALP1        0.0000 
     24 O          -6.6855   28.5960   31.6945 O.2       1 ALC1        0.0000 
     25 O          -6.3320   30.2560   31.6560 O.2       4 ALP1        0.0000 
     26 CA         -9.7240   29.5185   29.1235 C.3       3 GLC5        0.0000 
     27 CA         -8.5090   27.8940   30.0630 C.3       9 GLL5        0.0000 
     28 CA        -10.9390   31.1430   28.1840 C.3       6 GLP5        0.0000 
     29 O          -6.7060   28.7695   31.1985 O.2       1 ALC1        0.0000 
     30 O          -8.3980   29.0240   30.9150 O.2       7 ALL1        0.0000 
     31 O          -7.3650   29.6400   31.2855 O.2       1 ALC1        0.0000 
     32 CA         -5.4610   27.8380   28.6440 C.3       3 GLC5        0.0000 
     33 CA         -7.4250   27.9730   29.0150 C.3       9 GLL5        0.0000 
     34 CA         -3.4970   27.7030   28.2730 C.3       6 GLP5        0.0000 
     35 CA         -6.4755   29.6890   24.5565 C.3       3 GLC5        0.0000 
     36 CA         -7.8230   30.1380   26.0360 C.3       9 GLL5        0.0000 
     37 CA         -5.1280   29.2400   23.0770 C.3       6 GLP5        0.0000 
     38 CA         -6.3320   33.2090   25.3135 C.3       3 GLC5        0.0000 
     39 CA         -7.3280   31.3390   25.3200 C.3       9 GLL5        0.0000 
     40 CA         -5.3360   35.0790   25.3070 C.3       6 GLP5        0.0000 
     41 CA         -6.0500   31.0115   24.0680 C.3       3 GLC5        0.0000 
     42 CA         -4.7720   30.6840   22.8160 C.3       6 GLP5        0.0000 
     43 O          -7.4495   32.4845   22.8730 O.2       1 ALC1        0.0000 
     44 O          -7.8600   31.7660   24.1450 O.2       7 ALL1        0.0000 
     45 O          -7.0390   33.2030   21.6010 O.2       4 ALP1        0.0000 
     46 N          -5.2915   32.6430   25.0035 N.am      2 SEC2        0.0000 
     47 N          -6.2990   32.0100   25.8870 N.am      8 SEL2        0.0000 
     48 N          -4.2840   33.2760   24.1200 N.am      5 SEP2        0.0000 
     49 CA         -4.8110   31.5875   28.8320 C.3       3 GLC5        0.0000 
     50 CA         -5.7590   31.6140   27.0610 C.3       9 GLL5        0.0000 
     51 CA         -3.8630   31.5610   30.6030 C.3       6 GLP5        0.0000 
     52 CA         -6.8200   32.6960   28.1760 C.3       3 GLC5        0.0000 
     53 CA         -7.8810   33.7780   29.2910 C.3       6 GLP5        0.0000 
     54 CA         -5.5475   33.3465   26.1840 C.3       3 GLC5        0.0000 
     55 CA         -4.5145   31.0820   25.9290 C.3       3 GLC5        0.0000 
     56 CA         -3.2700   30.5500   24.7970 C.3       6 GLP5        0.0000 
     57 N          -6.0740   31.6145   29.1260 N.am      2 SEC2        0.0000 
     58 N          -6.1640   30.5360   27.7630 N.am      8 SEL2        0.0000 
     59 N          -5.9840   32.6930   30.4890 N.am      5 SEP2        0.0000 
     60 CA         -5.3370   28.7395   27.7895 C.3       3 GLC5        0.0000 
     61 CA         -7.1770   29.7760   27.3060 C.3       9 GLL5        0.0000 
     62 CA         -7.9925   31.1720   28.3055 C.3       3 GLC5        0.0000 
     63 CA         -8.8080   32.5680   29.3050 C.3       6 GLP5        0.0000 
     64 CA         -6.3810   28.0160   26.2325 C.3       3 GLC5        0.0000 
     65 CA         -5.5850   26.2560   25.1590 C.3       6 GLP5        0.0000 
     66 CA         -8.2027   21.5442   31.4795 C.3       3 GLC5        0.0000 
     67 CA         -8.3600   23.2600   29.8800 C.3       9 GLL5        0.0000 
     68 CA         -9.4415   28.3978   31.6880 C.3       3 GLC5        0.0000 
     69 CA         -8.1030   26.6430   30.8110 C.3       9 GLL5        0.0000 
     70 CA        -10.5770   29.5270   32.9390 C.3       6 GLP5        0.0000 
     71 CA         -8.6958   31.6157   26.7415 C.3       3 GLC5        0.0000 
     72 CA         -9.8160   32.4930   27.8050 C.3       6 GLP5        0.0000 
@<TRIPOS>BOND
@<TRIPOS>SUBSTRUCTURE
     1 ALC1        1 GROUP        1 X    ALC  0     ROOT ALC X 1
     2 SEC2       18 GROUP        1 X    SEC  0     **** SEC X 2
     3 GLC5        4 GROUP        1 X    GLC  0     **** GLC X 6
     4 ALP1        3 GROUP        1 Y    ALP  0     ROOT ALP Y 8
     5 SEP2       20 GROUP        1 Y    SEP  0     **** SEP Y 9
     6 GLP5        6 GROUP        1 Y    GLP  0     **** GLP Y 13
     7 ALL1        2 GROUP        1 Z    ALL  0     ROOT ALL Z 15
     8 SEL2       19 GROUP        1 Z    SEL  0     **** SEL Z 16
     9 GLL5        5 GROUP        1 Z    GLL  0     **** GLL Z 20
@<TRIPOS>SET

