#    Name: 4fr0_SAM_1_ligand
#    Modification time : Mon Mar 24 20:33:55 2014

@<TRIPOS>MOLECULE
4fr0_SAM_1_ligand
   50    52     1     0     0
SMALL
NO_CHARGES


@<TRIPOS>ATOM
      1 N          -3.4990   22.9540   29.8030 N.4       1 SAM401      0.0000 
      2 CA         -4.4700   22.9200   30.8890 C.3       1 SAM401      0.0000 
      3 C          -3.9390   22.0870   32.0360 C.2       1 SAM401      0.0000 
      4 O          -4.2220   22.4110   33.2200 O.co2     1 SAM401      0.0000 
      5 OXT        -3.2150   21.1020   31.7660 O.co2     1 SAM401      0.0000 
      6 CB         -5.7990   22.3870   30.3490 C.3       1 SAM401      0.0000 
      7 CG         -6.9970   23.1830   30.8820 C.3       1 SAM401      0.0000 
      8 SD         -8.3600   23.2600   29.8800 S.3       1 SAM401      0.0000 
      9 CE         -8.4110   22.0860   28.6790 C.3       1 SAM401      0.0000 
     10 C5'        -8.5360   24.7600   29.1660 C.3       1 SAM401      0.0000 
     11 C4'        -7.5250   25.7440   29.7390 C.3       1 SAM401      0.0000 
     12 O4'        -7.0640   26.6180   28.7140 O.3       1 SAM401      0.0000 
     13 C3'        -8.1030   26.6430   30.8110 C.3       1 SAM401      0.0000 
     14 O3'        -7.0390   26.9360   31.7330 O.3       1 SAM401      0.0000 
     15 C2'        -8.5090   27.8940   30.0630 C.3       1 SAM401      0.0000 
     16 O2'        -8.3980   29.0240   30.9150 O.3       1 SAM401      0.0000 
     17 C1'        -7.4250   27.9730   29.0150 C.3       1 SAM401      0.0000 
     18 N9         -7.8020   28.6800   27.7630 N.pl3     1 SAM401      0.0000 
     19 C8         -8.7640   28.3260   26.8890 C.2       1 SAM401      0.0000 
     20 N7         -8.7820   29.2120   25.8520 N.2       1 SAM401      0.0000 
     21 C5         -7.8230   30.1380   26.0360 C.ar      1 SAM401      0.0000 
     22 C6         -7.3280   31.3390   25.3200 C.ar      1 SAM401      0.0000 
     23 N6         -7.8600   31.7660   24.1450 N.pl3     1 SAM401      0.0000 
     24 N1         -6.2990   32.0100   25.8870 N.ar      1 SAM401      0.0000 
     25 C2         -5.7590   31.6140   27.0610 C.ar      1 SAM401      0.0000 
     26 N3         -6.1640   30.5360   27.7630 N.ar      1 SAM401      0.0000 
     27 C4         -7.1770   29.7760   27.3060 C.ar      1 SAM401      0.0000 
     28 H          -4.6427   23.9341   31.2495 H         1 SAM401      0.0000 
     29 H          -5.9099   21.3391   30.6389 H         1 SAM401      0.0000 
     30 H          -5.7913   22.4426   29.2575 H         1 SAM401      0.0000 
     31 H          -6.7244   24.2297   31.0697 H         1 SAM401      0.0000 
     32 H          -7.3638   22.7606   31.8266 H         1 SAM401      0.0000 
     33 H          -9.5454   25.0644   29.3708 H         1 SAM401      0.0000 
     34 H          -8.3840   24.6027   28.1146 H         1 SAM401      0.0000 
     35 H          -6.6983   25.1971   30.1635 H         1 SAM401      0.0000 
     36 H          -8.9278   26.1897   31.2413 H         1 SAM401      0.0000 
     37 H          -9.4239   27.7574   29.6124 H         1 SAM401      0.0000 
     38 H          -6.5614   28.4706   29.4669 H         1 SAM401      0.0000 
     39 H          -9.3559   27.5629   26.9748 H         1 SAM401      0.0000 
     40 H          -7.2423   32.2663   23.5383 H         1 SAM401      0.0000 
     41 H          -8.8223   31.5423   23.9906 H         1 SAM401      0.0000 
     42 H          -4.9530   32.1980   27.4609 H         1 SAM401      0.0000 
     43 H          -3.8747   22.5757   28.9570 H         1 SAM401      0.0000 
     44 H          -3.2012   23.8868   29.6002 H         1 SAM401      0.0000 
     45 H          -2.6787   22.4254   30.0215 H         1 SAM401      0.0000 
     46 H          -7.6219   22.1456   28.0676 H         1 SAM401      0.0000 
     47 H          -8.4156   21.1624   29.0624 H         1 SAM401      0.0000 
     48 H          -9.2293   22.1715   28.1106 H         1 SAM401      0.0000 
     49 H          -6.4587   27.5967   31.2568 H         1 SAM401      0.0000 
     50 H          -7.4152   29.1866   31.0023 H         1 SAM401      0.0000 
@<TRIPOS>BOND
     1    2    1 1    
     2   43    1 1    
     3   44    1 1    
     4   45    1 1    
     5    3    2 1    
     6    6    2 1    
     7   28    2 1    
     8    4    3 ar   
     9    5    3 ar   
    10    7    6 1    
    11   29    6 1    
    12   30    6 1    
    13    8    7 1    
    14   31    7 1    
    15   32    7 1    
    16    9    8 1    
    17   10    8 1    
    18   46    9 1    
    19   47    9 1    
    20   48    9 1    
    21   11   10 1    
    22   33   10 1    
    23   34   10 1    
    24   12   11 1    
    25   13   11 1    
    26   35   11 1    
    27   17   12 1    
    28   14   13 1    
    29   15   13 1    
    30   36   13 1    
    31   49   14 1    
    32   16   15 1    
    33   17   15 1    
    34   37   15 1    
    35   50   16 1    
    36   18   17 1    
    37   38   17 1    
    38   19   18 1    
    39   27   18 1    
    40   20   19 2    
    41   39   19 1    
    42   21   20 1    
    43   22   21 ar   
    44   27   21 ar   
    45   23   22 1    
    46   24   22 ar   
    47   40   23 1    
    48   41   23 1    
    49   25   24 ar   
    50   26   25 ar   
    51   42   25 1    
    52   27   26 ar   
@<TRIPOS>SUBSTRUCTURE
     1 SAM401      1 GROUP   
@<TRIPOS>SET

