#    Name: 4a0m_NAD_2_INTS_M
#    Modification time : Tue Mar 25 04:46:15 2014

@<TRIPOS>MOLECULE
4a0m_NAD_2_INTS_M
  102     0     9     0     0
SMALL
NO_CHARGES


@<TRIPOS>ATOM
      1 N          15.3250   41.7335   38.8250 N.am      2 SEC2        0.0000 
      2 N          16.2650   42.3260   37.9910 N.am      8 SEL2        0.0000 
      3 N          14.3850   41.1410   39.6590 N.am      5 SEP2        0.0000 
      4 N          14.9890   41.4475   37.3470 N.am      2 SEC2        0.0000 
      5 N          13.7130   40.5690   36.7030 N.am      5 SEP2        0.0000 
      6 N          16.3535   41.4115   36.8530 N.am      2 SEC2        0.0000 
      7 N          16.4420   40.4970   35.7150 N.am      5 SEP2        0.0000 
      8 CA         17.1480   43.0080   40.4535 C.3       3 GLC5        0.0000 
      9 CA         18.5620   44.0040   39.4370 C.3       9 GLL5        0.0000 
     10 CA         15.7340   42.0120   41.4700 C.3       6 GLP5        0.0000 
     11 CA         20.7250   47.5040   39.0890 C.3       3 GLC5        0.0000 
     12 CA         20.4510   45.4200   38.6690 C.3       9 GLL5        0.0000 
     13 CA         20.9990   49.5880   39.5090 C.3       6 GLP5        0.0000 
     14 N          22.7120   46.5655   38.5495 N.am      2 SEC2        0.0000 
     15 N          21.3720   46.1290   39.4840 N.am      8 SEL2        0.0000 
     16 N          24.0520   47.0020   37.6150 N.am      5 SEP2        0.0000 
     17 O          20.9010   46.4835   40.8090 O.2       1 ALC1        0.0000 
     18 O          21.3720   46.1290   39.4840 O.2       7 ALL1        0.0000 
     19 O          20.4300   46.8380   42.1340 O.2       4 ALP1        0.0000 
     20 O          21.6230   47.2040   36.6265 O.2       1 ALC1        0.0000 
     21 O          22.0930   45.8410   36.9710 O.2       7 ALL1        0.0000 
     22 O          21.1530   48.5670   36.2820 O.2       4 ALP1        0.0000 
     23 CA         24.3315   39.6195   33.9830 C.3       3 GLC5        0.0000 
     24 CA         22.3260   39.9240   34.6450 C.3       9 GLL5        0.0000 
     25 CA         26.3370   39.3150   33.3210 C.3       6 GLP5        0.0000 
     26 CA         24.2590   40.3400   38.5495 C.3       3 GLC5        0.0000 
     27 CA         23.6150   39.8630   36.5320 C.3       9 GLL5        0.0000 
     28 CA         24.9030   40.8170   40.5670 C.3       6 GLP5        0.0000 
     29 CA         25.0445   41.1845   36.7380 C.3       3 GLC5        0.0000 
     30 CA         26.4740   42.5060   36.9440 C.3       6 GLP5        0.0000 
     31 CA         25.1600   39.6280   35.6605 C.3       3 GLC5        0.0000 
     32 CA         26.7050   39.3930   34.7890 C.3       6 GLP5        0.0000 
     33 CA         24.8035   38.9120   37.6705 C.3       3 GLC5        0.0000 
     34 CA         25.9920   37.9610   38.8090 C.3       6 GLP5        0.0000 
     35 CA         22.3105   38.5345   37.4795 C.3       3 GLC5        0.0000 
     36 CA         21.0060   37.2060   38.4270 C.3       6 GLP5        0.0000 
     37 CA         24.3020   42.0600   36.6035 C.3       3 GLC5        0.0000 
     38 CA         22.1300   41.6140   36.2630 C.3       9 GLL5        0.0000 
     39 N          14.4125   47.9905   38.2865 N.am      2 SEC2        0.0000 
     40 N          14.1530   46.5570   38.0560 N.am      8 SEL2        0.0000 
     41 N          14.6720   49.4240   38.5170 N.am      5 SEP2        0.0000 
     42 CA         14.7845   46.1540   41.8315 C.3       3 GLC5        0.0000 
     43 CA         13.2190   45.5600   40.7030 C.3       9 GLL5        0.0000 
     44 CA         16.3500   46.7480   42.9600 C.3       6 GLP5        0.0000 
     45 CA         11.6825   46.7375   40.9635 C.3       3 GLC5        0.0000 
     46 CA         10.1460   47.9150   41.2240 C.3       6 GLP5        0.0000 
     47 CA         13.0555   42.3405   40.1885 C.3       3 GLC5        0.0000 
     48 CA         12.9010   44.1880   41.2620 C.3       9 GLL5        0.0000 
     49 CA         13.2100   40.4930   39.1150 C.3       6 GLP5        0.0000 
     50 O           9.5280   42.7555   40.2605 O.2       1 ALC1        0.0000 
     51 O          10.8550   43.1770   40.5370 O.2       7 ALL1        0.0000 
     52 O           8.2010   42.3340   39.9840 O.2       4 ALP1        0.0000 
     53 CA          9.9670   45.0790   42.6045 C.3       3 GLC5        0.0000 
     54 CA         11.1560   43.8640   42.8410 C.3       9 GLL5        0.0000 
     55 CA          8.7780   46.2940   42.3680 C.3       6 GLP5        0.0000 
     56 O           8.7905   42.8655   42.5205 O.2       1 ALC1        0.0000 
     57 O          10.0750   42.9860   43.0230 O.2       7 ALL1        0.0000 
     58 O           7.5060   42.7450   42.0180 O.2       4 ALP1        0.0000 
     59 CA         14.3285   43.1495   44.4775 C.3       3 GLC5        0.0000 
     60 CA         12.4430   43.2670   43.3050 C.3       9 GLL5        0.0000 
     61 CA         16.2140   43.0320   45.6500 C.3       6 GLP5        0.0000 
     62 CA         14.0885   42.6395   42.3875 C.3       3 GLC5        0.0000 
     63 CA         11.0880   41.5165   44.9265 C.3       3 GLC5        0.0000 
     64 CA         12.6920   42.6400   45.5700 C.3       9 GLL5        0.0000 
     65 CA          9.4840   40.3930   44.2830 C.3       6 GLP5        0.0000 
     66 CA         14.1280   41.0920   47.2515 C.3       3 GLC5        0.0000 
     67 CA         12.9610   42.9290   46.8930 C.3       9 GLL5        0.0000 
     68 CA         15.2950   39.2550   47.6100 C.3       6 GLP5        0.0000 
     69 N          12.6520   41.8345   50.2760 N.am      2 SEC2        0.0000 
     70 N          13.1800   42.1250   49.1410 N.am      8 SEL2        0.0000 
     71 N          12.1240   41.5440   51.4110 N.am      5 SEP2        0.0000 
     72 CA         11.7455   44.2455   47.7270 C.3       3 GLC5        0.0000 
     73 CA         13.2330   44.2190   47.2670 C.3       9 GLL5        0.0000 
     74 CA         10.2580   44.2720   48.1870 C.3       6 GLP5        0.0000 
     75 CA         19.3732   42.2460   39.8210 C.3       3 GLC5        0.0000 
     76 CA         19.4370   40.4370   40.2720 C.3       6 GLP5        0.0000 
     77 CA         22.2005   44.4693   35.9210 C.3       3 GLC5        0.0000 
     78 CA         21.5240   43.5870   37.6160 C.3       9 GLL5        0.0000 
     79 CA         23.1140   44.6520   34.3560 C.3       6 GLP5        0.0000 
     80 CA         22.5252   42.9997   35.0147 C.3       3 GLC5        0.0000 
     81 CA         20.3406   40.4386   36.0319 C.3       3 GLC5        0.0000 
     82 CA         21.7430   41.0810   35.0840 C.3       9 GLL5        0.0000 
     83 CA         18.5990   39.8190   36.5000 C.3       6 GLP5        0.0000 
     84 CA         14.3970   43.4430   41.2263 C.3       3 GLC5        0.0000 
     85 CA         11.0400   45.6322   41.8170 C.3       3 GLC5        0.0000 
     86 CA          9.9240   47.0960   42.3120 C.3       6 GLP5        0.0000 
     87 CA         10.6418   41.9793   43.6780 C.3       3 GLC5        0.0000 
     88 CA         10.9083   43.7073   44.7605 C.3       3 GLC5        0.0000 
     89 CA         10.0170   43.8490   46.4480 C.3       6 GLP5        0.0000 
     90 CA         14.5202   42.9082   45.9408 C.3       3 GLC5        0.0000 
     91 CA         11.4217   43.3167   46.3398 C.3       3 GLC5        0.0000 
     92 CA         14.4170   45.7537   47.8190 C.3       3 GLC5        0.0000 
     93 CA         15.6050   46.8090   48.8640 C.3       6 GLP5        0.0000 
     94 CA         14.8170   45.5355   44.9693 C.3       3 GLC5        0.0000 
     95 CA         13.2250   45.1780   46.2810 C.3       9 GLL5        0.0000 
     96 CA         16.5450   46.0740   44.3110 C.3       6 GLP5        0.0000 
     97 CA         11.5530   44.4230   46.0378 C.3       3 GLC5        0.0000 
     98 CA         12.9530   44.8160   44.9740 C.3       9 GLL5        0.0000 
     99 CA         14.6525   43.8946   45.7620 C.3       3 GLC5        0.0000 
    100 CA         21.7808   43.7999   39.5730 C.3       3 GLC5        0.0000 
    101 CA         20.0570   44.1060   39.3030 C.3       9 GLL5        0.0000 
    102 CA         22.7910   43.0750   40.9100 C.3       6 GLP5        0.0000 
@<TRIPOS>BOND
@<TRIPOS>SUBSTRUCTURE
     1 ALC1       17 GROUP        1 X    ALC  0     ROOT ALC X 1
     2 SEC2        1 GROUP        1 X    SEC  0     **** SEC X 2
     3 GLC5        8 GROUP        1 X    GLC  0     **** GLC X 6
     4 ALP1       19 GROUP        1 Y    ALP  0     ROOT ALP Y 8
     5 SEP2        3 GROUP        1 Y    SEP  0     **** SEP Y 9
     6 GLP5       10 GROUP        1 Y    GLP  0     **** GLP Y 13
     7 ALL1       18 GROUP        1 Z    ALL  0     ROOT ALL Z 15
     8 SEL2        2 GROUP        1 Z    SEL  0     **** SEL Z 16
     9 GLL5        9 GROUP        1 Z    GLL  0     **** GLL Z 20
@<TRIPOS>SET

