#    Name: 4a0m_NAD_2_ligand
#    Modification time : Tue Mar 25 04:46:15 2014

@<TRIPOS>MOLECULE
4a0m_NAD_2_ligand
   70    74     1     0     0
SMALL
NO_CHARGES


@<TRIPOS>ATOM
      1 PA         16.4670   43.7460   37.8280 P.3       1 NAD1498     0.0000 
      2 O1A        16.2650   42.3260   37.9910 O.co2     1 NAD1498     0.0000 
      3 O2A        16.3130   44.2580   36.4910 O.co2     1 NAD1498     0.0000 
      4 O5B        17.9240   44.2310   38.1990 O.3       1 NAD1498     0.0000 
      5 C5B        18.5620   44.0040   39.4370 C.3       1 NAD1498     0.0000 
      6 C4B        20.0570   44.1060   39.3030 C.3       1 NAD1498     0.0000 
      7 O4B        20.5490   43.0840   38.4830 O.3       1 NAD1498     0.0000 
      8 C3B        20.4510   45.4200   38.6690 C.3       1 NAD1498     0.0000 
      9 O3B        21.3720   46.1290   39.4840 O.3       1 NAD1498     0.0000 
     10 C2B        21.0500   44.9860   37.3560 C.3       1 NAD1498     0.0000 
     11 O2B        22.0930   45.8410   36.9710 O.3       1 NAD1498     0.0000 
     12 C1B        21.5240   43.5870   37.6160 C.3       1 NAD1498     0.0000 
     13 N9A        21.4420   42.7160   36.4510 N.pl3     1 NAD1498     0.0000 
     14 C8A        20.6260   42.8680   35.4440 C.2       1 NAD1498     0.0000 
     15 N7A        20.8210   41.8760   34.5870 N.2       1 NAD1498     0.0000 
     16 C5A        21.7430   41.0810   35.0840 C.ar      1 NAD1498     0.0000 
     17 C6A        22.3260   39.9240   34.6450 C.ar      1 NAD1498     0.0000 
     18 N6A        21.9460   39.3900   33.4820 N.pl3     1 NAD1498     0.0000 
     19 N1A        23.2600   39.3340   35.3860 N.ar      1 NAD1498     0.0000 
     20 C2A        23.6150   39.8630   36.5320 C.ar      1 NAD1498     0.0000 
     21 N3A        23.0690   40.9740   36.9560 N.ar      1 NAD1498     0.0000 
     22 C4A        22.1300   41.6140   36.2630 C.ar      1 NAD1498     0.0000 
     23 O3         15.3940   44.4680   38.7410 O.3       1 NAD1498     0.0000 
     24 PN         15.1370   46.0090   38.9980 P.3       1 NAD1498     0.0000 
     25 O1N        14.1530   46.5570   38.0560 O.co2     1 NAD1498     0.0000 
     26 O2N        16.4260   46.6940   39.1180 O.co2     1 NAD1498     0.0000 
     27 O5D        14.5660   45.8020   40.4320 O.3       1 NAD1498     0.0000 
     28 C5D        13.2190   45.5600   40.7030 C.3       1 NAD1498     0.0000 
     29 C4D        12.9010   44.1880   41.2620 C.3       1 NAD1498     0.0000 
     30 O4D        13.3710   43.9950   42.5730 O.3       1 NAD1498     0.0000 
     31 C3D        11.4110   44.1490   41.3820 C.3       1 NAD1498     0.0000 
     32 O3D        10.8550   43.1770   40.5370 O.3       1 NAD1498     0.0000 
     33 C2D        11.1560   43.8640   42.8410 C.3       1 NAD1498     0.0000 
     34 O2D        10.0750   42.9860   43.0230 O.3       1 NAD1498     0.0000 
     35 C1D        12.4430   43.2670   43.3050 C.3       1 NAD1498     0.0000 
     36 N1N        12.6870   43.5790   44.6640 N.pl3     1 NAD1498     0.0000 
     37 C2N        12.6920   42.6400   45.5700 C.ar      1 NAD1498     0.0000 
     38 C3N        12.9610   42.9290   46.8930 C.ar      1 NAD1498     0.0000 
     39 C7N        12.9280   41.8710   47.9140 C.2       1 NAD1498     0.0000 
     40 O7N        13.1800   42.1250   49.1410 O.2       1 NAD1498     0.0000 
     41 N7N        12.6010   40.6650   47.6290 N.am      1 NAD1498     0.0000 
     42 C4N        13.2330   44.2190   47.2670 C.ar      1 NAD1498     0.0000 
     43 C5N        13.2250   45.1780   46.2810 C.ar      1 NAD1498     0.0000 
     44 C6N        12.9530   44.8160   44.9740 C.ar      1 NAD1498     0.0000 
     45 H          18.3246   43.0017   39.8407 H         1 NAD1498     0.0000 
     46 H          18.2388   44.7343   40.2025 H         1 NAD1498     0.0000 
     47 H          20.5001   44.0679   40.2884 H         1 NAD1498     0.0000 
     48 H          19.5536   45.9631   38.4629 H         1 NAD1498     0.0000 
     49 H          20.2509   44.9385   36.6364 H         1 NAD1498     0.0000 
     50 H          22.4675   43.5888   38.0536 H         1 NAD1498     0.0000 
     51 H          19.9735   43.5909   35.3294 H         1 NAD1498     0.0000 
     52 H          21.2134   39.8676   32.9970 H         1 NAD1498     0.0000 
     53 H          22.4281   38.5604   33.2003 H         1 NAD1498     0.0000 
     54 H          24.3545   39.3832   37.1222 H         1 NAD1498     0.0000 
     55 H          12.5817   45.6932   39.7839 H         1 NAD1498     0.0000 
     56 H          12.8015   46.3127   41.4295 H         1 NAD1498     0.0000 
     57 H          13.2023   43.4414   40.5853 H         1 NAD1498     0.0000 
     58 H          11.0412   45.1456   41.1767 H         1 NAD1498     0.0000 
     59 H          11.0289   44.8084   43.3384 H         1 NAD1498     0.0000 
     60 H          12.4689   42.2542   43.0874 H         1 NAD1498     0.0000 
     61 H          12.4922   41.6375   45.3226 H         1 NAD1498     0.0000 
     62 H          12.6113   40.0150   48.3889 H         1 NAD1498     0.0000 
     63 H          12.3662   40.4869   46.6734 H         1 NAD1498     0.0000 
     64 H          13.4329   44.4600   48.2335 H         1 NAD1498     0.0000 
     65 H          13.4204   46.1629   46.5115 H         1 NAD1498     0.0000 
     66 H          12.9699   45.5751   44.2475 H         1 NAD1498     0.0000 
     67 H          20.8052   46.6955   40.0823 H         1 NAD1498     0.0000 
     68 H          21.6509   46.7162   36.7745 H         1 NAD1498     0.0000 
     69 H           9.8712   43.2138   40.7125 H         1 NAD1498     0.0000 
     70 H           9.3626   43.3215   42.4066 H         1 NAD1498     0.0000 
@<TRIPOS>BOND
     1    2    1 ar   
     2    3    1 ar   
     3    4    1 1    
     4   23    1 1    
     5    5    4 1    
     6    6    5 1    
     7   45    5 1    
     8   46    5 1    
     9    7    6 1    
    10    8    6 1    
    11   47    6 1    
    12   12    7 1    
    13    9    8 1    
    14   10    8 1    
    15   48    8 1    
    16   67    9 1    
    17   11   10 1    
    18   12   10 1    
    19   49   10 1    
    20   68   11 1    
    21   13   12 1    
    22   50   12 1    
    23   14   13 1    
    24   22   13 1    
    25   15   14 2    
    26   51   14 1    
    27   16   15 1    
    28   17   16 ar   
    29   22   16 ar   
    30   18   17 1    
    31   19   17 ar   
    32   52   18 1    
    33   53   18 1    
    34   20   19 ar   
    35   21   20 ar   
    36   54   20 1    
    37   22   21 ar   
    38   24   23 1    
    39   25   24 ar   
    40   26   24 ar   
    41   27   24 1    
    42   28   27 1    
    43   29   28 1    
    44   55   28 1    
    45   56   28 1    
    46   30   29 1    
    47   31   29 1    
    48   57   29 1    
    49   35   30 1    
    50   32   31 1    
    51   33   31 1    
    52   58   31 1    
    53   69   32 1    
    54   34   33 1    
    55   35   33 1    
    56   59   33 1    
    57   70   34 1    
    58   36   35 1    
    59   60   35 1    
    60   37   36 ar   
    61   44   36 ar   
    62   38   37 ar   
    63   61   37 1    
    64   39   38 1    
    65   42   38 ar   
    66   40   39 2    
    67   41   39 am   
    68   62   41 1    
    69   63   41 1    
    70   43   42 ar   
    71   64   42 1    
    72   44   43 ar   
    73   65   43 1    
    74   66   44 1    
@<TRIPOS>SUBSTRUCTURE
     1 NAD1498     1 GROUP   
@<TRIPOS>SET

