#    Name: 3cr7_PPS_2_INTS_M
#    Modification time : Mon Mar 24 22:14:06 2014

@<TRIPOS>MOLECULE
3cr7_PPS_2_INTS_M
   61     0    12     0     0
SMALL
NO_CHARGES


@<TRIPOS>ATOM
      1 N          27.1665   19.8450   71.0915 N.am      2 SEC2        0.0000 
      2 N          27.1010   21.3190   70.5500 N.am     10 SEL2        0.0000 
      3 N          27.2320   18.3710   71.6330 N.am      6 SEP2        0.0000 
      4 NZ         27.7655   23.9190   67.9975 N.4       3 LYC4        0.0000 
      5 NZ         28.2970   22.8740   68.5950 N.4      11 LYL4        0.0000 
      6 NZ         26.2710   25.6770   66.8370 N.4       7 LYP4        0.0000 
      7 N          27.7655   23.9190   67.9975 N.am      2 SEC2        0.0000 
      8 N          28.2970   22.8740   68.5950 N.am     10 SEL2        0.0000 
      9 N          27.2340   24.9640   67.4000 N.am      6 SEP2        0.0000 
     10 N          27.4855   23.7200   69.6105 N.am      2 SEC2        0.0000 
     11 N          26.6740   24.5660   70.6260 N.am      6 SEP2        0.0000 
     12 NZ         29.1120   19.8420   67.1120 N.4       3 LYC4        0.0000 
     13 NZ         28.7430   20.1700   68.6620 N.4      11 LYL4        0.0000 
     14 NZ         30.5480   20.2890   65.6590 N.4       7 LYP4        0.0000 
     15 N          29.7735   20.5580   67.7230 N.am      2 SEC2        0.0000 
     16 N          28.7430   20.1700   68.6620 N.am     10 SEL2        0.0000 
     17 N          30.8040   20.9460   66.7840 N.am      6 SEP2        0.0000 
     18 N          29.1120   19.8420   67.1120 N.am      2 SEC2        0.0000 
     19 N          29.4810   19.5140   65.5620 N.am      6 SEP2        0.0000 
     20 NZ         24.7915   24.1285   67.9070 N.4       3 LYC4        0.0000 
     21 NZ         24.5820   22.9000   68.7600 N.4      11 LYL4        0.0000 
     22 N          24.7915   24.1285   67.9070 N.am      2 SEC2        0.0000 
     23 N          24.5820   22.9000   68.7600 N.am     10 SEL2        0.0000 
     24 N          25.0010   25.3570   67.0540 N.am      6 SEP2        0.0000 
     25 N          25.6280   23.7330   69.6930 N.am      2 SEC2        0.0000 
     26 N          24.3430   19.3405   69.6745 N.am      2 SEC2        0.0000 
     27 N          24.0120   20.3900   68.8570 N.am     10 SEL2        0.0000 
     28 N          24.6740   18.2910   70.4920 N.am      6 SEP2        0.0000 
     29 CA         25.4390   21.7845   65.0505 C.3       4 GLC5        0.0000 
     30 CA         24.1830   20.6310   65.4360 C.3      12 GLL5        0.0000 
     31 CA         26.6950   22.9380   64.6650 C.3       8 GLP5        0.0000 
     32 CA         24.9910   18.9600   65.8795 C.3       4 GLC5        0.0000 
     33 CA         25.7990   17.2890   66.3230 C.3       8 GLP5        0.0000 
     34 CA         24.3050   22.1460   64.2155 C.3       4 GLC5        0.0000 
     35 CA         22.8690   20.7420   64.5940 C.3      12 GLL5        0.0000 
     36 CA         25.7410   23.5500   63.8370 C.3       8 GLP5        0.0000 
     37 CA         24.3995   21.9675   63.0440 C.3       4 GLC5        0.0000 
     38 CA         23.0580   20.3850   62.2510 C.3      12 GLL5        0.0000 
     39 CA         24.0425   19.1635   60.8200 C.3       4 GLC5        0.0000 
     40 CA         25.6270   19.9520   62.1670 C.3      12 GLL5        0.0000 
     41 CA         22.4580   18.3750   59.4730 C.3       8 GLP5        0.0000 
     42 CA         26.5150   17.8525   64.9795 C.3       4 GLC5        0.0000 
     43 CA         27.2310   18.4160   63.6360 C.3      12 GLL5        0.0000 
     44 CA         28.3630   16.9770   64.3205 C.3       4 GLC5        0.0000 
     45 CA         29.4950   15.5380   65.0050 C.3       8 GLP5        0.0000 
     46 N          28.9525   19.2230   64.2115 N.am      2 SEC2        0.0000 
     47 N          28.4240   18.9320   62.8610 N.am     10 SEL2        0.0000 
     48 N          29.2960   17.4920   62.7655 N.am      2 SEC2        0.0000 
     49 N          30.1680   16.0520   62.6700 N.am      6 SEP2        0.0000 
     50 CA         29.0910   21.9265   62.3415 C.3       4 GLC5        0.0000 
     51 CA         28.2600   19.9550   61.7360 C.3      12 GLL5        0.0000 
     52 CA         29.9220   23.8980   62.9470 C.3       8 GLP5        0.0000 
     53 CA         29.4400   18.4185   61.0870 C.3       4 GLC5        0.0000 
     54 CA         30.6200   16.8820   60.4380 C.3       8 GLP5        0.0000 
     55 O          30.6430   19.8180   61.1145 O.2       1 ALC1        0.0000 
     56 O          29.4460   20.4430   60.9920 O.2       9 ALL1        0.0000 
     57 O          31.8400   19.1930   61.2370 O.2       5 ALP1        0.0000 
     58 CA         22.7105   19.0380   61.0377 C.3       4 GLC5        0.0000 
     59 CA         22.8680   19.0170   62.9540 C.3      12 GLL5        0.0000 
     60 CA         22.9057   17.1850   63.9080 C.3       4 GLC5        0.0000 
     61 CA         23.2170   15.1890   64.1780 C.3       8 GLP5        0.0000 
@<TRIPOS>BOND
@<TRIPOS>SUBSTRUCTURE
     1 ALC1       55 GROUP        1 X    ALC  0     ROOT ALC X 1
     2 SEC2        1 GROUP        1 X    SEC  0     **** SEC X 2
     3 LYC4        4 GROUP        1 X    LYC  0     **** LYC X 4
     4 GLC5       29 GROUP        1 X    GLC  0     **** GLC X 6
     5 ALP1       57 GROUP        1 Y    ALP  0     ROOT ALP Y 8
     6 SEP2        3 GROUP        1 Y    SEP  0     **** SEP Y 9
     7 LYP4        6 GROUP        1 Y    LYP  0     **** LYP Y 11
     8 GLP5       31 GROUP        1 Y    GLP  0     **** GLP Y 13
     9 ALL1       56 GROUP        1 Z    ALL  0     ROOT ALL Z 15
    10 SEL2        2 GROUP        1 Z    SEL  0     **** SEL Z 16
    11 LYL4        5 GROUP        1 Z    LYL  0     **** LYL Z 18
    12 GLL5       30 GROUP        1 Z    GLL  0     **** GLL Z 20
@<TRIPOS>SET

