#    Name: 3cr7_PPS_2_ligand
#    Modification time : Mon Mar 24 22:14:06 2014

@<TRIPOS>MOLECULE
3cr7_PPS_2_ligand
   42    44     1     0     0
SMALL
NO_CHARGES


@<TRIPOS>ATOM
      1 S2         27.5980   21.3790   68.9520 S.o2      1 PPS2005     0.0000 
      2 OS1        27.1010   21.3190   70.5500 O.co2     1 PPS2005     0.0000 
      3 OS2        28.2970   22.8740   68.5950 O.co2     1 PPS2005     0.0000 
      4 OS3        28.7430   20.1700   68.6620 O.co2     1 PPS2005     0.0000 
      5 O6P        26.3420   21.0330   67.8750 O.3       1 PPS2005     0.0000 
      6 P2         24.7130   21.4150   68.0280 P.3       1 PPS2005     0.0000 
      7 O4P        24.5820   22.9000   68.7600 O.co2     1 PPS2005     0.0000 
      8 O5P        24.0120   20.3900   68.8570 O.co2     1 PPS2005     0.0000 
      9 O5'        23.9870   21.5470   66.5150 O.3       1 PPS2005     0.0000 
     10 C5'        24.1830   20.6310   65.4360 C.3       1 PPS2005     0.0000 
     11 C4'        22.8690   20.7420   64.5940 C.3       1 PPS2005     0.0000 
     12 O4'        23.1070   21.4050   63.3060 O.3       1 PPS2005     0.0000 
     13 C1'        23.0580   20.3850   62.2510 C.3       1 PPS2005     0.0000 
     14 N9         24.3910   20.5850   61.6240 N.pl3     1 PPS2005     0.0000 
     15 C4         25.6270   19.9520   62.1670 C.ar      1 PPS2005     0.0000 
     16 N3         25.8050   18.9400   63.2790 N.ar      1 PPS2005     0.0000 
     17 C2         27.2310   18.4160   63.6360 C.ar      1 PPS2005     0.0000 
     18 N1         28.4240   18.9320   62.8610 N.ar      1 PPS2005     0.0000 
     19 C6         28.2600   19.9550   61.7360 C.ar      1 PPS2005     0.0000 
     20 N6         29.4460   20.4430   60.9920 N.pl3     1 PPS2005     0.0000 
     21 C5         26.8280   20.4770   61.3790 C.ar      1 PPS2005     0.0000 
     22 N7         26.3000   21.4610   60.3560 N.2       1 PPS2005     0.0000 
     23 C8         24.8000   21.5480   60.4980 C.2       1 PPS2005     0.0000 
     24 C2'        22.8680   19.0170   62.9540 C.3       1 PPS2005     0.0000 
     25 O2'        21.8800   18.2170   62.3380 O.3       1 PPS2005     0.0000 
     26 C3'        22.3210   19.3450   64.3220 C.3       1 PPS2005     0.0000 
     27 O3'        20.8850   19.2530   64.2310 O.3       1 PPS2005     0.0000 
     28 P1         19.7540   20.5130   64.2990 P.3       1 PPS2005     0.0000 
     29 O1P        19.3340   20.8060   65.9020 O.co2     1 PPS2005     0.0000 
     30 O2P        18.3790   20.0330   63.4610 O.co2     1 PPS2005     0.0000 
     31 O3P        20.2660   21.7660   63.7130 O.co2     1 PPS2005     0.0000 
     32 H          24.2668   19.6150   65.7630 H         1 PPS2005     0.0000 
     33 H          24.9954   20.9093   64.7966 H         1 PPS2005     0.0000 
     34 H          22.1462   21.2829   65.1749 H         1 PPS2005     0.0000 
     35 H          22.2850   20.5868   61.5914 H         1 PPS2005     0.0000 
     36 H          27.3304   17.7643   64.3529 H         1 PPS2005     0.0000 
     37 H          29.2677   21.1093   60.2680 H         1 PPS2005     0.0000 
     38 H          30.3282   20.0663   61.2744 H         1 PPS2005     0.0000 
     39 H          24.2428   22.0566   60.0259 H         1 PPS2005     0.0000 
     40 H          23.7978   18.5486   63.0647 H         1 PPS2005     0.0000 
     41 H          22.7438   18.6605   65.0108 H         1 PPS2005     0.0000 
     42 H          21.0338   18.4286   62.8271 H         1 PPS2005     0.0000 
@<TRIPOS>BOND
     1    2    1 ar   
     2    3    1 ar   
     3    4    1 ar   
     4    5    1 1    
     5    6    5 1    
     6    7    6 ar   
     7    8    6 ar   
     8    9    6 1    
     9   10    9 1    
    10   11   10 1    
    11   32   10 1    
    12   33   10 1    
    13   12   11 1    
    14   26   11 1    
    15   34   11 1    
    16   13   12 1    
    17   14   13 1    
    18   24   13 1    
    19   35   13 1    
    20   15   14 1    
    21   23   14 1    
    22   16   15 ar   
    23   21   15 ar   
    24   17   16 ar   
    25   18   17 ar   
    26   36   17 1    
    27   19   18 ar   
    28   20   19 1    
    29   21   19 ar   
    30   37   20 1    
    31   38   20 1    
    32   22   21 1    
    33   23   22 2    
    34   39   23 1    
    35   25   24 1    
    36   26   24 1    
    37   40   24 1    
    38   42   25 1    
    39   27   26 1    
    40   41   26 1    
    41   28   27 1    
    42   29   28 ar   
    43   30   28 ar   
    44   31   28 ar   
@<TRIPOS>SUBSTRUCTURE
     1 PPS2005     1 GROUP   
@<TRIPOS>SET

