#    Name: 1hih_C20_1_INTS_M
#    Modification time : Tue Mar 25 05:31:33 2014

@<TRIPOS>MOLECULE
1hih_C20_1_INTS_M
   92     0     9     0     0
SMALL
NO_CHARGES


@<TRIPOS>ATOM
      1 N           8.0435   -5.2090   19.9610 N.am      2 SEC2        0.0000 
      2 N           7.3320   -5.6920   18.7870 N.am      8 SEL2        0.0000 
      3 N           8.7550   -4.7260   21.1350 N.am      5 SEP2        0.0000 
      4 O           7.1955   -6.8125   15.4320 O.2       1 ALC1        0.0000 
      5 O           7.3370   -5.7360   16.5290 O.2       7 ALL1        0.0000 
      6 O           7.0540   -7.8890   14.3350 O.2       4 ALP1        0.0000 
      7 CA          7.9335   -3.4995   18.1105 C.3       3 GLC5        0.0000 
      8 CA          7.7120   -4.3250   16.3100 C.3       9 GLL5        0.0000 
      9 CA          8.1550   -2.6740   19.9110 C.3       6 GLP5        0.0000 
     10 CA         11.5305   -3.3100   15.3770 C.3       3 GLC5        0.0000 
     11 CA          9.4450   -2.7780   15.2470 C.3       9 GLL5        0.0000 
     12 CA         13.6160   -3.8420   15.5070 C.3       6 GLP5        0.0000 
     13 CA         10.3405   -1.3550   14.5575 C.3       3 GLC5        0.0000 
     14 CA         11.2360    0.0680   13.8680 C.3       6 GLP5        0.0000 
     15 CA         11.8910   -4.3955   15.9005 C.3       3 GLC5        0.0000 
     16 CA         10.1660   -4.9490   16.2940 C.3       9 GLL5        0.0000 
     17 CA         11.4220   -5.9810   14.9600 C.3       3 GLC5        0.0000 
     18 CA         12.6780   -7.0130   13.6260 C.3       6 GLP5        0.0000 
     19 O           5.6385   -2.7600   17.6645 O.2       1 ALC1        0.0000 
     20 O           5.8130   -2.8010   16.1990 O.2       7 ALL1        0.0000 
     21 O           5.4640   -2.7190   19.1300 O.2       4 ALP1        0.0000 
     22 CA          2.4225   -3.9560   19.0240 C.3       3 GLC5        0.0000 
     23 CA          3.3920   -4.8290   17.5510 C.3       9 GLL5        0.0000 
     24 CA          1.4530   -3.0830   20.4970 C.3       6 GLP5        0.0000 
     25 N           4.3500    0.6000   17.7040 N.am      2 SEC2        0.0000 
     26 N           5.0810   -0.1840   17.0370 N.am      8 SEL2        0.0000 
     27 N           3.6190    1.3840   18.3710 N.am      5 SEP2        0.0000 
     28 O           6.4055    0.2295   17.1840 O.2       1 ALC1        0.0000 
     29 O           5.0810   -0.1840   17.0370 O.2       7 ALL1        0.0000 
     30 O           7.7300    0.6430   17.3310 O.2       4 ALP1        0.0000 
     31 CA          5.7205    1.8950   15.8070 C.3       3 GLC5        0.0000 
     32 CA          5.9520   -0.0500   14.8420 C.3       9 GLL5        0.0000 
     33 CA          5.4890    3.8400   16.7720 C.3       6 GLP5        0.0000 
     34 CA          8.0730   -1.5955   12.0800 C.3       3 GLC5        0.0000 
     35 CA          6.9760    0.2000   12.8490 C.3       9 GLL5        0.0000 
     36 CA          9.1700   -3.3910   11.3110 C.3       6 GLP5        0.0000 
     37 CA          9.1060    0.1340   13.3585 C.3       3 GLC5        0.0000 
     38 CA          6.0620   -0.3790   10.0595 C.3       3 GLC5        0.0000 
     39 CA          7.0550    0.7770   11.4470 C.3       9 GLL5        0.0000 
     40 CA          5.0690   -1.5350    8.6720 C.3       6 GLP5        0.0000 
     41 CA          8.8735   -1.3080   11.2790 C.3       3 GLC5        0.0000 
     42 CA          8.5770    0.7750   11.2470 C.3       9 GLL5        0.0000 
     43 CA          9.9065    0.4215   12.5575 C.3       3 GLC5        0.0000 
     44 CA         10.4205    1.9805    8.7725 C.3       3 GLC5        0.0000 
     45 CA          9.0840    1.7400   10.1890 C.3       9 GLL5        0.0000 
     46 CA         11.7570    2.2210    7.3560 C.3       6 GLP5        0.0000 
     47 O           4.6965    1.9460   13.7890 O.2       1 ALC1        0.0000 
     48 O           4.5240    0.5620   13.0690 O.2       7 ALL1        0.0000 
     49 O           4.8690    3.3300   14.5090 O.2       4 ALP1        0.0000 
     50 CA          2.3865    2.4765   13.3260 C.3       3 GLC5        0.0000 
     51 CA          2.5780    1.1960   11.7700 C.3       9 GLL5        0.0000 
     52 CA          2.1950    3.7570   14.8820 C.3       6 GLP5        0.0000 
     53 O           3.0655    1.1120    9.2655 O.2       1 ALC1        0.0000 
     54 O           2.9860    1.8490   10.5200 O.2       7 ALL1        0.0000 
     55 O           3.1450    0.3750    8.0110 O.2       4 ALP1        0.0000 
     56 CA         -1.3585   -0.1615   12.5080 C.3       3 GLC5        0.0000 
     57 CA          0.7830   -0.1610   12.9230 C.3       9 GLL5        0.0000 
     58 CA         -3.5000   -0.1620   12.0930 C.3       6 GLP5        0.0000 
     59 CA          0.0970   -1.3875   14.2255 C.3       3 GLC5        0.0000 
     60 CA         -0.5890   -2.6140   15.5280 C.3       6 GLP5        0.0000 
     61 CA         -1.4470    3.1265   11.3165 C.3       3 GLC5        0.0000 
     62 CA          0.1340    1.6920   11.3430 C.3       9 GLL5        0.0000 
     63 CA         -3.0280    4.5610   11.2900 C.3       6 GLP5        0.0000 
     64 CA         -1.6830    0.7650   11.7180 C.3       3 GLC5        0.0000 
     65 N           2.2545    4.6815   12.3460 N.am      2 SEC2        0.0000 
     66 N           3.0360    3.9100   11.4080 N.am      8 SEL2        0.0000 
     67 N           1.4730    5.4530   13.2840 N.am      5 SEP2        0.0000 
     68 CA          9.2090   -3.4460   13.3483 C.3       3 GLC5        0.0000 
     69 CA          9.4990   -3.0630   17.5109 C.3       3 GLC5        0.0000 
     70 CA          9.2910   -1.9010   19.1820 C.3       6 GLP5        0.0000 
     71 CA          1.4598   -5.7375   17.8158 C.3       3 GLC5        0.0000 
     72 CA         -0.3840   -5.9680   18.0860 C.3       6 GLP5        0.0000 
     73 CA          1.7098   -7.4928   14.8735 C.3       3 GLC5        0.0000 
     74 CA          2.9490   -6.8680   16.3470 C.3       9 GLL5        0.0000 
     75 CA          0.5190   -8.4490   14.0060 C.3       6 GLP5        0.0000 
     76 CA          1.2582   -6.2523   16.9135 C.3       3 GLC5        0.0000 
     77 CA          2.8520   -6.2050   15.1350 C.3       9 GLL5        0.0000 
     78 CA          4.2480   -6.0913   13.7628 C.3       3 GLC5        0.0000 
     79 CA          5.5600   -6.6630   12.4280 C.3       6 GLP5        0.0000 
     80 CA          2.5955   -5.5738   13.0162 C.3       3 GLC5        0.0000 
     81 CA          2.2550   -5.6280   10.9350 C.3       6 GLP5        0.0000 
     82 CA          1.2986   -3.3484   15.5925 C.3       3 GLC5        0.0000 
     83 CA          3.0200   -4.8340   15.0600 C.3       9 GLL5        0.0000 
     84 CA         10.3635    3.1763   10.8635 C.3       3 GLC5        0.0000 
     85 CA         11.8870    3.9110   11.3870 C.3       6 GLP5        0.0000 
     86 CA         -0.4047    0.0375    9.9837 C.3       3 GLC5        0.0000 
     87 CA          1.1670    0.5740   11.6480 C.3       9 GLL5        0.0000 
     88 CA         -1.4600   -1.0580    8.4720 C.3       6 GLP5        0.0000 
     89 CA          0.4590   -1.7172   12.2658 C.3       3 GLC5        0.0000 
     90 CA         -0.0570   -3.6410   12.2460 C.3       6 GLP5        0.0000 
     91 CA          0.8347    1.8606   13.5546 C.3       3 GLC5        0.0000 
     92 CA          1.1150    2.7720   15.2950 C.3       6 GLP5        0.0000 
@<TRIPOS>BOND
@<TRIPOS>SUBSTRUCTURE
     1 ALC1        4 GROUP        1 X    ALC  0     ROOT ALC X 1
     2 SEC2        1 GROUP        1 X    SEC  0     **** SEC X 2
     3 GLC5        7 GROUP        1 X    GLC  0     **** GLC X 6
     4 ALP1        6 GROUP        1 Y    ALP  0     ROOT ALP Y 8
     5 SEP2        3 GROUP        1 Y    SEP  0     **** SEP Y 9
     6 GLP5        9 GROUP        1 Y    GLP  0     **** GLP Y 13
     7 ALL1        5 GROUP        1 Z    ALL  0     ROOT ALL Z 15
     8 SEL2        2 GROUP        1 Z    SEL  0     **** SEL Z 16
     9 GLL5        8 GROUP        1 Z    GLL  0     **** GLL Z 20
@<TRIPOS>SET

