#    Name: 1hih_C20_1_ligand
#    Modification time : Tue Mar 25 05:31:33 2014

@<TRIPOS>MOLECULE
1hih_C20_1_ligand
   93    94     1     0     0
SMALL
NO_CHARGES


@<TRIPOS>ATOM
      1 C1          6.7720   -7.7770   17.7370 C.3       1 C20101      0.0000 
      2 C2          7.1810   -6.3010   17.7280 C.2       1 C20101      0.0000 
      3 O3          7.3320   -5.6920   18.7870 O.2       1 C20101      0.0000 
      4 N4          7.3370   -5.7360   16.5290 N.am      1 C20101      0.0000 
      5 C5          7.7120   -4.3250   16.3100 C.3       1 C20101      0.0000 
      6 C6          9.0510   -4.2240   15.5240 C.3       1 C20101      0.0000 
      7 C7          9.4450   -2.7780   15.2470 C.3       1 C20101      0.0000 
      8 C8         10.1660   -4.9490   16.2940 C.3       1 C20101      0.0000 
      9 C9          6.5980   -3.6290   15.5190 C.2       1 C20101      0.0000 
     10 O10         6.4990   -3.8030   14.3070 O.2       1 C20101      0.0000 
     11 N11         5.8130   -2.8010   16.1990 N.am      1 C20101      0.0000 
     12 C12         4.6990   -2.1070   15.5770 C.3       1 C20101      0.0000 
     13 C13         3.4080   -2.5770   16.2330 C.3       1 C20101      0.0000 
     14 C14         3.2970   -4.0860   16.2750 C.ar      1 C20101      0.0000 
     15 C15         3.3920   -4.8290   17.5510 C.ar      1 C20101      0.0000 
     16 C16         3.2150   -6.1850   17.5400 C.ar      1 C20101      0.0000 
     17 C17         2.9490   -6.8680   16.3470 C.ar      1 C20101      0.0000 
     18 C18         2.8520   -6.2050   15.1350 C.ar      1 C20101      0.0000 
     19 C19         3.0200   -4.8340   15.0600 C.ar      1 C20101      0.0000 
     20 C20         4.8100   -0.5720   15.6880 C.3       1 C20101      0.0000 
     21 O21         5.0810   -0.1840   17.0370 O.3       1 C20101      0.0000 
     22 C22         5.9520   -0.0500   14.8420 C.3       1 C20101      0.0000 
     23 N23         5.6940   -0.2190   13.4260 N.4       1 C20101      0.0000 
     24 C24         6.9760    0.2000   12.8490 C.3       1 C20101      0.0000 
     25 C25         7.0550    0.7770   11.4470 C.3       1 C20101      0.0000 
     26 C26         8.5770    0.7750   11.2470 C.3       1 C20101      0.0000 
     27 C27         9.0840    1.7400   10.1890 C.3       1 C20101      0.0000 
     28 C28         8.5960    3.1430   10.4910 C.3       1 C20101      0.0000 
     29 C29         7.0770    3.1630   10.5400 C.3       1 C20101      0.0000 
     30 C30         6.5680    2.2170   11.5930 C.3       1 C20101      0.0000 
     31 N31         4.5240    0.5620   13.0690 N.am      1 C20101      0.0000 
     32 C32         3.6110    0.1480   12.1910 C.2       1 C20101      0.0000 
     33 O33         3.5990   -0.9970   11.7100 O.2       1 C20101      0.0000 
     34 C34         2.5780    1.1960   11.7700 C.3       1 C20101      0.0000 
     35 N35         2.9860    1.8490   10.5200 N.am      1 C20101      0.0000 
     36 C36         1.1670    0.5740   11.6480 C.3       1 C20101      0.0000 
     37 C37         0.7830   -0.1610   12.9230 C.3       1 C20101      0.0000 
     38 C38         0.1340    1.6920   11.3430 C.3       1 C20101      0.0000 
     39 C39         3.2180    3.1540   10.4490 C.2       1 C20101      0.0000 
     40 O40         3.0360    3.9100   11.4080 O.2       1 C20101      0.0000 
     41 C41         3.7090    3.7320    9.1480 C.3       1 C20101      0.0000 
     42 H           7.1948   -6.2902   15.6392 H         1 C20101      0.0000 
     43 H           7.8328   -3.8159   17.2464 H         1 C20101      0.0000 
     44 H           8.9149   -4.7381   14.5739 H         1 C20101      0.0000 
     45 H           5.9578   -2.6076   17.2155 H         1 C20101      0.0000 
     46 H           4.6366   -2.3609   14.5208 H         1 C20101      0.0000 
     47 H           2.5548   -2.1650   15.6783 H         1 C20101      0.0000 
     48 H           3.3620   -2.1805   17.2557 H         1 C20101      0.0000 
     49 H           3.5861   -4.2975   18.3880 H         1 C20101      0.0000 
     50 H           3.2760   -6.7288   18.4216 H         1 C20101      0.0000 
     51 H           2.8221   -7.8993   16.3787 H         1 C20101      0.0000 
     52 H           2.6507   -6.7441   14.2727 H         1 C20101      0.0000 
     53 H           2.9568   -4.3280   14.1838 H         1 C20101      0.0000 
     54 H           3.8956   -0.1357   15.3348 H         1 C20101      0.0000 
     55 H           6.8722   -0.5817   15.1389 H         1 C20101      0.0000 
     56 H           6.1049    1.0147   15.0882 H         1 C20101      0.0000 
     57 H           5.5474   -1.2703   13.2418 H         1 C20101      0.0000 
     58 H           7.7095   -0.6756   12.8941 H         1 C20101      0.0000 
     59 H           7.4729    0.9530   13.5510 H         1 C20101      0.0000 
     60 H           6.5725    0.2336   10.7860 H         1 C20101      0.0000 
     61 H           8.8951   -0.2517   10.9836 H         1 C20101      0.0000 
     62 H           9.0586    1.0123   12.2147 H         1 C20101      0.0000 
     63 H           8.7173    1.4304    9.2132 H         1 C20101      0.0000 
     64 H          10.1714    1.7278   10.1812 H         1 C20101      0.0000 
     65 H           8.9403    3.8221    9.7152 H         1 C20101      0.0000 
     66 H           8.9916    3.4665   11.4504 H         1 C20101      0.0000 
     67 H           6.6845    2.8731    9.5637 H         1 C20101      0.0000 
     68 H           6.7403    4.1771   10.7622 H         1 C20101      0.0000 
     69 H           6.8646    2.5880   12.5945 H         1 C20101      0.0000 
     70 H           5.4597    2.2156   11.5808 H         1 C20101      0.0000 
     71 H           4.4369    1.4916   13.5528 H         1 C20101      0.0000 
     72 H           2.5300    1.9467   12.5711 H         1 C20101      0.0000 
     73 H           3.0799    1.2169    9.6962 H         1 C20101      0.0000 
     74 H           1.1677   -0.1149   10.8219 H         1 C20101      0.0000 
     75 H           6.6818   -8.1430   16.8108 H         1 C20101      0.0000 
     76 H           7.4432   -8.3455   18.2127 H         1 C20101      0.0000 
     77 H           5.8935   -7.9162   18.1940 H         1 C20101      0.0000 
     78 H           9.5679   -2.2581   16.0923 H         1 C20101      0.0000 
     79 H          10.3040   -2.7180   14.7385 H         1 C20101      0.0000 
     80 H           8.7512   -2.3008   14.7077 H         1 C20101      0.0000 
     81 H          11.0418   -4.8991   15.8140 H         1 C20101      0.0000 
     82 H          10.3068   -4.5551   17.2023 H         1 C20101      0.0000 
     83 H           9.9578   -5.9184   16.4240 H         1 C20101      0.0000 
     84 H           1.4200   -0.9036   13.1298 H         1 C20101      0.0000 
     85 H           0.7764    0.4488   13.7156 H         1 C20101      0.0000 
     86 H          -0.1287   -0.5666   12.8576 H         1 C20101      0.0000 
     87 H           0.1115    2.3838   12.0648 H         1 C20101      0.0000 
     88 H           0.3424    2.1671   10.4881 H         1 C20101      0.0000 
     89 H          -0.7933    1.3275   11.2573 H         1 C20101      0.0000 
     90 H           3.8476    4.7204    9.2096 H         1 C20101      0.0000 
     91 H           4.5813    3.3305    8.8689 H         1 C20101      0.0000 
     92 H           3.0613    3.5727    8.4029 H         1 C20101      0.0000 
     93 H           6.0748   -0.2465   17.1294 H         1 C20101      0.0000 
@<TRIPOS>BOND
     1    2    1 1    
     2   75    1 1    
     3   76    1 1    
     4   77    1 1    
     5    3    2 2    
     6    4    2 am   
     7    5    4 1    
     8   42    4 1    
     9    6    5 1    
    10    9    5 1    
    11   43    5 1    
    12    7    6 1    
    13    8    6 1    
    14   44    6 1    
    15   78    7 1    
    16   79    7 1    
    17   80    7 1    
    18   81    8 1    
    19   82    8 1    
    20   83    8 1    
    21   10    9 2    
    22   11    9 am   
    23   12   11 1    
    24   45   11 1    
    25   13   12 1    
    26   20   12 1    
    27   46   12 1    
    28   14   13 1    
    29   47   13 1    
    30   48   13 1    
    31   15   14 ar   
    32   19   14 ar   
    33   16   15 ar   
    34   49   15 1    
    35   17   16 ar   
    36   50   16 1    
    37   18   17 ar   
    38   51   17 1    
    39   19   18 ar   
    40   52   18 1    
    41   53   19 1    
    42   21   20 1    
    43   22   20 1    
    44   54   20 1    
    45   93   21 1    
    46   23   22 1    
    47   55   22 1    
    48   56   22 1    
    49   24   23 1    
    50   31   23 1    
    51   57   23 1    
    52   25   24 1    
    53   58   24 1    
    54   59   24 1    
    55   26   25 1    
    56   30   25 1    
    57   60   25 1    
    58   27   26 1    
    59   61   26 1    
    60   62   26 1    
    61   28   27 1    
    62   63   27 1    
    63   64   27 1    
    64   29   28 1    
    65   65   28 1    
    66   66   28 1    
    67   30   29 1    
    68   67   29 1    
    69   68   29 1    
    70   69   30 1    
    71   70   30 1    
    72   32   31 am   
    73   71   31 1    
    74   33   32 2    
    75   34   32 1    
    76   35   34 1    
    77   36   34 1    
    78   72   34 1    
    79   39   35 am   
    80   73   35 1    
    81   37   36 1    
    82   38   36 1    
    83   74   36 1    
    84   84   37 1    
    85   85   37 1    
    86   86   37 1    
    87   87   38 1    
    88   88   38 1    
    89   89   38 1    
    90   40   39 2    
    91   41   39 1    
    92   90   41 1    
    93   91   41 1    
    94   92   41 1    
@<TRIPOS>SUBSTRUCTURE
     1 C20101      1 GROUP   
@<TRIPOS>SET

