#    Name: 4asf_62U_1_INTS_M
#    Modification time : Tue Mar 25 06:05:28 2014

@<TRIPOS>MOLECULE
4asf_62U_1_INTS_M
   55     0     6     0     0
SMALL
NO_CHARGES


@<TRIPOS>ATOM
      1 CA         19.4285  -30.9265   -2.5040 C.3       2 GLC5        0.0000 
      2 CA         18.5100  -32.6730   -1.6320 C.3       6 GLL5        0.0000 
      3 CA         20.3470  -29.1800   -3.3760 C.3       4 GLP5        0.0000 
      4 CA         17.9860  -34.6055   -2.5910 C.3       2 GLC5        0.0000 
      5 CA         17.4620  -36.5380   -3.5500 C.3       4 GLP5        0.0000 
      6 CA         19.3810  -32.9665   -0.0075 C.3       2 GLC5        0.0000 
      7 CA         20.2520  -33.2600    1.6170 C.3       4 GLP5        0.0000 
      8 CA         17.0000  -32.2695   -0.9420 C.3       2 GLC5        0.0000 
      9 CA         15.4900  -31.8660   -0.2520 C.3       4 GLP5        0.0000 
     10 CA         19.7365  -38.6450   -6.3710 C.3       2 GLC5        0.0000 
     11 CA         21.5890  -39.0070   -7.1750 C.3       6 GLL5        0.0000 
     12 CA         17.8840  -38.2830   -5.5670 C.3       4 GLP5        0.0000 
     13 CA         20.9335  -40.7900   -7.3025 C.3       2 GLC5        0.0000 
     14 CA         20.2780  -42.5730   -7.4300 C.3       4 GLP5        0.0000 
     15 CA         22.5825  -39.6020   -5.2620 C.3       2 GLC5        0.0000 
     16 CA         23.5760  -40.1970   -3.3490 C.3       4 GLP5        0.0000 
     17 CA         26.8585  -35.8415   -0.5295 C.3       2 GLC5        0.0000 
     18 CA         25.1510  -34.7220   -0.7160 C.3       6 GLL5        0.0000 
     19 CA         28.5660  -36.9610   -0.3430 C.3       4 GLP5        0.0000 
     20 CA         19.0255  -32.8285   -8.3635 C.3       2 GLC5        0.0000 
     21 CA         20.3770  -34.0700   -8.2220 C.3       6 GLL5        0.0000 
     22 CA         17.6740  -31.5870   -8.5050 C.3       4 GLP5        0.0000 
     23 CA         21.2265  -33.7765   -9.8285 C.3       2 GLC5        0.0000 
     24 CA         22.0760  -33.4830  -11.4350 C.3       4 GLP5        0.0000 
     25 CA         19.0825  -34.5685   -9.5070 C.3       2 GLC5        0.0000 
     26 CA         17.7880  -35.0670  -10.7920 C.3       4 GLP5        0.0000 
     27 N          24.7155  -31.1025    0.5495 N.am      1 SEC2        0.0000 
     28 N          25.4280  -31.7500   -0.4540 N.am      5 SEL2        0.0000 
     29 N          24.0030  -30.4550    1.5530 N.am      3 SEP2        0.0000 
     30 CA         19.9495  -36.2350   -3.3625 C.3       2 GLC5        0.0000 
     31 CA         21.2770  -34.6530   -2.7360 C.3       6 GLL5        0.0000 
     32 CA         18.6220  -37.8170   -3.9890 C.3       4 GLP5        0.0000 
     33 CA         19.7965  -36.1225   -4.8865 C.3       2 GLC5        0.0000 
     34 CA         20.9710  -34.4280   -5.7840 C.3       6 GLL5        0.0000 
     35 CA         20.3835  -33.3575   -0.5215 C.3       2 GLC5        0.0000 
     36 CA         20.5150  -33.4550   -2.6600 C.3       6 GLL5        0.0000 
     37 CA         23.7717  -33.3830    0.2085 C.3       2 GLC5        0.0000 
     38 CA         22.7050  -32.5770    1.4650 C.3       4 GLP5        0.0000 
     39 CA         20.7970  -30.9128   -4.3812 C.3       2 GLC5        0.0000 
     40 CA         20.7730  -33.1460   -5.2290 C.3       6 GLL5        0.0000 
     41 CA         24.1513  -38.4495   -4.1463 C.3       2 GLC5        0.0000 
     42 CA         24.3790  -36.7380   -4.2540 C.3       6 GLL5        0.0000 
     43 CA         21.5678  -35.9287   -0.8538 C.3       2 GLC5        0.0000 
     44 CA         22.4840  -34.8840   -2.0830 C.3       6 GLL5        0.0000 
     45 CA         21.2550  -37.0890    0.7020 C.3       4 GLP5        0.0000 
     46 CA         22.8422  -33.4920   -0.3540 C.3       2 GLC5        0.0000 
     47 CA         22.6723  -28.6545   -5.1855 C.3       2 GLC5        0.0000 
     48 CA         24.7330  -29.5550   -5.9330 C.3       6 GLL5        0.0000 
     49 CA         20.6460  -28.3980   -4.6460 C.3       4 GLP5        0.0000 
     50 CA         23.5362  -28.9530   -7.2190 C.3       2 GLC5        0.0000 
     51 CA         24.6640  -28.2670   -5.5170 C.3       6 GLL5        0.0000 
     52 CA         22.3740  -28.9950   -8.7130 C.3       4 GLP5        0.0000 
     53 CA         20.2920  -31.1833   -3.3672 C.3       2 GLC5        0.0000 
     54 CA         19.9590  -32.9180   -4.0570 C.3       6 GLL5        0.0000 
     55 CA         18.8495  -34.8622   -3.4543 C.3       2 GLC5        0.0000 
@<TRIPOS>BOND
@<TRIPOS>SUBSTRUCTURE
     1 SEC2       27 GROUP        1 X    SEC  0     ROOT SEC X 2
     2 GLC5        1 GROUP        1 X    GLC  0     **** GLC X 6
     3 SEP2       29 GROUP        1 Y    SEP  0     ROOT SEP Y 9
     4 GLP5        3 GROUP        1 Y    GLP  0     **** GLP Y 13
     5 SEL2       28 GROUP        1 Z    SEL  0     ROOT SEL Z 16
     6 GLL5        2 GROUP        1 Z    GLL  0     **** GLL Z 20
@<TRIPOS>SET

