#    Name: 4asf_62U_1_ligand
#    Modification time : Tue Mar 25 06:05:28 2014

@<TRIPOS>MOLECULE
4asf_62U_1_ligand
   87    89     1     0     0
SMALL
NO_CHARGES


@<TRIPOS>ATOM
      1 CAA        27.5650  -34.1570   -8.4120 C.3       1 62U1216     0.0000 
      2 CAB        18.5100  -32.6730   -1.6320 C.3       1 62U1216     0.0000 
      3 CAC        21.5890  -39.0070   -7.1750 C.3       1 62U1216     0.0000 
      4 CAD        25.1510  -34.7220   -0.7160 C.3       1 62U1216     0.0000 
      5 CAE        21.7210  -32.1450   -5.5440 C.3       1 62U1216     0.0000 
      6 CAF        24.3790  -36.7380   -4.2540 C.3       1 62U1216     0.0000 
      7 CAG        20.3770  -34.0700   -8.2220 C.3       1 62U1216     0.0000 
      8 NAH        17.0240  -33.2130   -5.9140 N.am      1 62U1216     0.0000 
      9 OAI        18.5960  -33.3750   -4.2350 O.3       1 62U1216     0.0000 
     10 OAJ        25.4280  -31.7500   -0.4540 O.2       1 62U1216     0.0000 
     11 OAK        26.2730  -34.5370   -3.1510 O.2       1 62U1216     0.0000 
     12 OAL        25.7240  -31.5820   -7.5140 O.2       1 62U1216     0.0000 
     13 OAM        22.3390  -36.0050   -8.9270 O.3       1 62U1216     0.0000 
     14 CAN        22.4840  -34.8840   -2.0830 C.2       1 62U1216     0.0000 
     15 CAO        23.4750  -33.9300   -2.2630 C.2       1 62U1216     0.0000 
     16 CAP        21.2770  -34.6530   -2.7360 C.2       1 62U1216     0.0000 
     17 CAQ        20.9710  -34.4280   -5.7840 C.2       1 62U1216     0.0000 
     18 CAR        24.6640  -28.2670   -5.5170 C.2       1 62U1216     0.0000 
     19 CAS        25.3090  -28.1180   -4.3390 C.2       1 62U1216     0.0000 
     20 CAT        24.7330  -29.5550   -5.9330 C.2       1 62U1216     0.0000 
     21 CAU        26.4600  -35.8510   -5.5680 C.3       1 62U1216     0.0000 
     22 CAV        24.0560  -36.1000   -6.6720 C.3       1 62U1216     0.0000 
     23 NAW        25.7730  -31.8910   -2.7040 N.am      1 62U1216     0.0000 
     24 OAX        26.2030  -34.2020   -7.8730 O.3       1 62U1216     0.0000 
     25 OAY        19.4390  -33.7440   -1.7320 O.3       1 62U1216     0.0000 
     26 OAZ        22.8490  -38.2940   -7.0650 O.3       1 62U1216     0.0000 
     27 OBA        17.1400  -31.6180   -4.3580 O.2       1 62U1216     0.0000 
     28 OBB        25.8300  -29.3920   -3.9640 O.3       1 62U1216     0.0000 
     29 CBC        17.6170  -32.6480   -4.8610 C.2       1 62U1216     0.0000 
     30 CBD        24.5260  -33.6560   -1.3800 C.2       1 62U1216     0.0000 
     31 CBE        20.7730  -33.1460   -5.2290 C.2       1 62U1216     0.0000 
     32 CBF        25.2010  -32.4130   -1.4740 C.2       1 62U1216     0.0000 
     33 CBG        25.4500  -30.2980   -5.0630 C.2       1 62U1216     0.0000 
     34 CBH        26.2350  -34.4430   -5.4520 C.2       1 62U1216     0.0000 
     35 CBI        25.8720  -32.4560   -4.0230 C.2       1 62U1216     0.0000 
     36 CBJ        26.0890  -33.6330   -6.5950 C.2       1 62U1216     0.0000 
     37 CBK        25.7140  -31.6340   -5.1780 C.2       1 62U1216     0.0000 
     38 CBL        26.1450  -33.8390   -4.1670 C.2       1 62U1216     0.0000 
     39 CBM        25.8310  -32.2460   -6.4750 C.2       1 62U1216     0.0000 
     40 CBP        20.5150  -33.4550   -2.6600 C.3       1 62U1216     0.0000 
     41 CBQ        21.6820  -36.2200   -7.6390 C.3       1 62U1216     0.0000 
     42 CBR        22.7040  -36.8540   -6.6720 C.3       1 62U1216     0.0000 
     43 CBO        20.7020  -35.0120   -7.0750 C.3       1 62U1216     0.0000 
     44 CBS        19.9590  -32.9180   -4.0570 C.3       1 62U1216     0.0000 
     45 CBN        25.0740  -36.6660   -5.6330 C.3       1 62U1216     0.0000 
     46 H          17.3098  -34.1462   -6.1317 H         1 62U1216     0.0000 
     47 H          16.3470  -32.6525   -6.3910 H         1 62U1216     0.0000 
     48 H          22.6277  -35.6975   -1.5131 H         1 62U1216     0.0000 
     49 H          23.4365  -33.3462   -3.1597 H         1 62U1216     0.0000 
     50 H          20.8824  -35.4287   -3.3445 H         1 62U1216     0.0000 
     51 H          21.4384  -35.1581   -5.0752 H         1 62U1216     0.0000 
     52 H          24.2116  -27.5498   -6.0016 H         1 62U1216     0.0000 
     53 H          25.4195  -27.3322   -3.8229 H         1 62U1216     0.0000 
     54 H          24.3193  -29.8966   -6.7514 H         1 62U1216     0.0000 
     55 H          27.0074  -36.2653   -4.7138 H         1 62U1216     0.0000 
     56 H          27.0049  -36.1202   -6.4799 H         1 62U1216     0.0000 
     57 H          23.8771  -35.0459   -6.4452 H         1 62U1216     0.0000 
     58 H          24.5019  -36.1662   -7.6677 H         1 62U1216     0.0000 
     59 H          26.2041  -30.8888   -2.6035 H         1 62U1216     0.0000 
     60 H          21.1254  -32.6456   -2.2388 H         1 62U1216     0.0000 
     61 H          20.9203  -37.0951   -7.8335 H         1 62U1216     0.0000 
     62 H          22.2784  -36.8057   -5.6733 H         1 62U1216     0.0000 
     63 H          19.6827  -35.6274   -6.9655 H         1 62U1216     0.0000 
     64 H          19.8882  -31.7874   -3.8893 H         1 62U1216     0.0000 
     65 H          25.3165  -37.6902   -5.9324 H         1 62U1216     0.0000 
     66 H          28.2110  -34.6516   -7.8306 H         1 62U1216     0.0000 
     67 H          27.6177  -34.5664   -9.3229 H         1 62U1216     0.0000 
     68 H          27.9018  -33.2189   -8.4923 H         1 62U1216     0.0000 
     69 H          18.9462  -31.8316   -1.3130 H         1 62U1216     0.0000 
     70 H          18.0847  -32.4668   -2.5132 H         1 62U1216     0.0000 
     71 H          17.7709  -32.8811   -0.9914 H         1 62U1216     0.0000 
     72 H          21.7247  -39.9628   -7.4357 H         1 62U1216     0.0000 
     73 H          21.0859  -39.0075   -6.3108 H         1 62U1216     0.0000 
     74 H          20.9896  -38.5978   -7.8629 H         1 62U1216     0.0000 
     75 H          25.5621  -35.3694   -1.3577 H         1 62U1216     0.0000 
     76 H          25.8814  -34.4055   -0.1107 H         1 62U1216     0.0000 
     77 H          24.5059  -35.2378   -0.1522 H         1 62U1216     0.0000 
     78 H          22.6407  -32.3963   -5.2423 H         1 62U1216     0.0000 
     79 H          21.7711  -31.9776   -6.5286 H         1 62U1216     0.0000 
     80 H          21.4981  -31.2724   -5.1093 H         1 62U1216     0.0000 
     81 H          24.9512  -37.1953   -3.5732 H         1 62U1216     0.0000 
     82 H          24.1683  -35.8282   -3.8964 H         1 62U1216     0.0000 
     83 H          23.5167  -37.2424   -4.2986 H         1 62U1216     0.0000 
     84 H          21.1254  -33.4316   -8.4017 H         1 62U1216     0.0000 
     85 H          20.2045  -34.5664   -9.0728 H         1 62U1216     0.0000 
     86 H          19.5628  -33.5212   -8.0326 H         1 62U1216     0.0000 
     87 H          23.2867  -35.7810   -8.6998 H         1 62U1216     0.0000 
@<TRIPOS>BOND
     1   24    1 1    
     2   66    1 1    
     3   67    1 1    
     4   68    1 1    
     5   25    2 1    
     6   69    2 1    
     7   70    2 1    
     8   71    2 1    
     9   26    3 1    
    10   72    3 1    
    11   73    3 1    
    12   74    3 1    
    13   30    4 1    
    14   75    4 1    
    15   76    4 1    
    16   77    4 1    
    17   31    5 1    
    18   78    5 1    
    19   79    5 1    
    20   80    5 1    
    21   45    6 1    
    22   81    6 1    
    23   82    6 1    
    24   83    6 1    
    25   43    7 1    
    26   84    7 1    
    27   85    7 1    
    28   86    7 1    
    29   29    8 am   
    30   46    8 1    
    31   47    8 1    
    32   29    9 1    
    33   44    9 1    
    34   32   10 2    
    35   38   11 2    
    36   39   12 2    
    37   41   13 1    
    38   87   13 1    
    39   15   14 1    
    40   16   14 2    
    41   48   14 1    
    42   30   15 2    
    43   49   15 1    
    44   40   16 1    
    45   50   16 1    
    46   31   17 2    
    47   43   17 1    
    48   51   17 1    
    49   19   18 2    
    50   20   18 1    
    51   52   18 1    
    52   28   19 1    
    53   53   19 1    
    54   33   20 2    
    55   54   20 1    
    56   34   21 1    
    57   45   21 1    
    58   55   21 1    
    59   56   21 1    
    60   42   22 1    
    61   45   22 1    
    62   57   22 1    
    63   58   22 1    
    64   32   23 am   
    65   35   23 1    
    66   59   23 1    
    67   36   24 1    
    68   40   25 1    
    69   42   26 1    
    70   29   27 2    
    71   33   28 1    
    72   32   30 1    
    73   44   31 1    
    74   37   33 1    
    75   36   34 2    
    76   38   34 1    
    77   37   35 2    
    78   38   35 1    
    79   39   36 1    
    80   39   37 1    
    81   44   40 1    
    82   60   40 1    
    83   42   41 1    
    84   43   41 1    
    85   61   41 1    
    86   62   42 1    
    87   63   43 1    
    88   64   44 1    
    89   65   45 1    
@<TRIPOS>SUBSTRUCTURE
     1 62U1216     1 GROUP   
@<TRIPOS>SET

