#    Name: 3b1r_AMP_8_INTS_M
#    Modification time : Mon Mar 24 18:42:41 2014

@<TRIPOS>MOLECULE
3b1r_AMP_8_INTS_M
   50     0     9     0     0
SMALL
NO_CHARGES


@<TRIPOS>ATOM
      1 N          67.1620  -27.1335   42.1540 N.am      2 SEC2        0.0000 
      2 N          67.0490  -26.3030   43.1850 N.am      8 SEL2        0.0000 
      3 N          67.2750  -27.9640   41.1230 N.am      5 SEP2        0.0000 
      4 N          66.8240  -24.9600   42.2025 N.am      2 SEC2        0.0000 
      5 N          66.5990  -23.6170   41.2200 N.am      5 SEP2        0.0000 
      6 N          70.2545  -27.7760   44.2280 N.am      2 SEC2        0.0000 
      7 N          69.0090  -27.5230   44.0640 N.am      8 SEL2        0.0000 
      8 N          71.5000  -28.0290   44.3920 N.am      5 SEP2        0.0000 
      9 N          67.9690  -28.6620   44.5455 N.am      2 SEC2        0.0000 
     10 N          66.9290  -29.8010   45.0270 N.am      5 SEP2        0.0000 
     11 CA         70.1670  -26.9040   46.0305 C.3       3 GLC5        0.0000 
     12 CA         68.9180  -25.3280   46.3130 C.3       9 GLL5        0.0000 
     13 CA         71.4160  -28.4800   45.7480 C.3       6 GLP5        0.0000 
     14 CA         67.8550  -23.7610   45.7330 C.3       3 GLC5        0.0000 
     15 CA         66.7920  -22.1940   45.1530 C.3       6 GLP5        0.0000 
     16 CA         70.0695  -23.9320   45.4065 C.3       3 GLC5        0.0000 
     17 CA         71.2210  -22.5360   44.5000 C.3       6 GLP5        0.0000 
     18 CA         70.3770  -24.3460   47.5030 C.3       3 GLC5        0.0000 
     19 CA         71.8360  -23.3640   48.6930 C.3       6 GLP5        0.0000 
     20 CA         69.6340  -27.7525   46.8045 C.3       3 GLC5        0.0000 
     21 CA         67.8520  -27.0250   47.8610 C.3       9 GLL5        0.0000 
     22 CA         66.7540  -28.0485   46.4625 C.3       3 GLC5        0.0000 
     23 CA         65.6560  -29.0720   45.0640 C.3       6 GLP5        0.0000 
     24 CA         67.0805  -29.0210   49.4980 C.3       3 GLC5        0.0000 
     25 CA         66.8330  -26.8670   48.9740 C.3       9 GLL5        0.0000 
     26 CA         67.3280  -31.1750   50.0220 C.3       6 GLP5        0.0000 
     27 O          66.2310  -26.7555   50.9940 O.2       1 ALC1        0.0000 
     28 O          67.4630  -26.9740   50.2580 O.2       7 ALL1        0.0000 
     29 O          64.9990  -26.5370   51.7300 O.2       4 ALP1        0.0000 
     30 CA         66.6260  -23.6090   49.3155 C.3       3 GLC5        0.0000 
     31 CA         66.2770  -25.4580   48.7520 C.3       9 GLL5        0.0000 
     32 CA         66.9750  -21.7600   49.8790 C.3       6 GLP5        0.0000 
     33 CA         59.5060  -25.4370   47.2965 C.3       3 GLC5        0.0000 
     34 CA         61.5050  -26.3820   47.5780 C.3       9 GLL5        0.0000 
     35 CA         57.5070  -24.4920   47.0150 C.3       6 GLP5        0.0000 
     36 CA         60.5820  -25.0350   50.3305 C.3       3 GLC5        0.0000 
     37 CA         62.0050  -26.2800   49.9050 C.3       9 GLL5        0.0000 
     38 CA         59.1590  -23.7900   50.7560 C.3       6 GLP5        0.0000 
     39 CA         62.7470  -24.8020   51.3820 C.3       3 GLC5        0.0000 
     40 CA         63.4890  -23.3240   52.8590 C.3       6 GLP5        0.0000 
     41 N          64.1535  -26.2785   50.7170 N.am      2 SEC2        0.0000 
     42 N          63.3080  -26.0200   49.7040 N.am      8 SEL2        0.0000 
     43 N          64.9990  -26.5370   51.7300 N.am      5 SEP2        0.0000 
     44 CA         69.6962  -25.9065   48.8648 C.3       3 GLC5        0.0000 
     45 CA         71.2790  -25.4960   49.9470 C.3       6 GLP5        0.0000 
     46 CA         62.4723  -28.2088   47.3395 C.3       3 GLC5        0.0000 
     47 CA         62.9380  -26.1030   47.2920 C.3       9 GLL5        0.0000 
     48 CA         62.7230  -30.1750   47.2440 C.3       6 GLP5        0.0000 
     49 CA         62.2466  -24.7129   46.7737 C.3       3 GLC5        0.0000 
     50 CA         61.4690  -23.3470   45.6050 C.3       6 GLP5        0.0000 
@<TRIPOS>BOND
@<TRIPOS>SUBSTRUCTURE
     1 ALC1       27 GROUP        1 X    ALC  0     ROOT ALC X 1
     2 SEC2        1 GROUP        1 X    SEC  0     **** SEC X 2
     3 GLC5       11 GROUP        1 X    GLC  0     **** GLC X 6
     4 ALP1       29 GROUP        1 Y    ALP  0     ROOT ALP Y 8
     5 SEP2        3 GROUP        1 Y    SEP  0     **** SEP Y 9
     6 GLP5       13 GROUP        1 Y    GLP  0     **** GLP Y 13
     7 ALL1       28 GROUP        1 Z    ALL  0     ROOT ALL Z 15
     8 SEL2        2 GROUP        1 Z    SEL  0     **** SEL Z 16
     9 GLL5       12 GROUP        1 Z    GLL  0     **** GLL Z 20
@<TRIPOS>SET

