#    Name: 3b1r_AMP_8_ligand
#    Modification time : Mon Mar 24 18:42:41 2014

@<TRIPOS>MOLECULE
3b1r_AMP_8_ligand
   35    37     1     0     0
SMALL
NO_CHARGES


@<TRIPOS>ATOM
      1 P          68.3640  -26.1720   43.8940 P.3       1 AMP502      0.0000 
      2 O1P        69.3080  -25.1020   43.3760 O.co2     1 AMP502      0.0000 
      3 O2P        67.0490  -26.3030   43.1850 O.co2     1 AMP502      0.0000 
      4 O3P        69.0090  -27.5230   44.0640 O.co2     1 AMP502      0.0000 
      5 O5'        67.9270  -25.6640   45.3440 O.3       1 AMP502      0.0000 
      6 C5'        68.9180  -25.3280   46.3130 C.3       1 AMP502      0.0000 
      7 C4'        68.3750  -25.6090   47.7040 C.3       1 AMP502      0.0000 
      8 O4'        67.2740  -24.7450   48.0110 O.3       1 AMP502      0.0000 
      9 C3'        67.8520  -27.0250   47.8610 C.3       1 AMP502      0.0000 
     10 O3'        68.8880  -27.9370   48.2070 O.3       1 AMP502      0.0000 
     11 C2'        66.8330  -26.8670   48.9740 C.3       1 AMP502      0.0000 
     12 O2'        67.4630  -26.9740   50.2580 O.3       1 AMP502      0.0000 
     13 C1'        66.2770  -25.4580   48.7520 C.3       1 AMP502      0.0000 
     14 N9         65.0440  -25.6670   47.9460 N.pl3     1 AMP502      0.0000 
     15 C8         64.9670  -25.6980   46.5940 C.2       1 AMP502      0.0000 
     16 N7         63.7000  -25.9490   46.1930 N.2       1 AMP502      0.0000 
     17 C5         62.9380  -26.1030   47.2920 C.ar      1 AMP502      0.0000 
     18 C6         61.5050  -26.3820   47.5780 C.ar      1 AMP502      0.0000 
     19 N6         60.6100  -26.5600   46.5740 N.pl3     1 AMP502      0.0000 
     20 N1         61.1270  -26.4580   48.8840 N.ar      1 AMP502      0.0000 
     21 C2         62.0050  -26.2800   49.9050 C.ar      1 AMP502      0.0000 
     22 N3         63.3080  -26.0200   49.7040 N.ar      1 AMP502      0.0000 
     23 C4         63.8270  -25.9150   48.4500 C.ar      1 AMP502      0.0000 
     24 H          69.1904  -24.2683   46.2642 H         1 AMP502      0.0000 
     25 H          69.8311  -25.9183   46.1810 H         1 AMP502      0.0000 
     26 H          69.1688  -25.4670   48.4292 H         1 AMP502      0.0000 
     27 H          67.3282  -27.2808   46.9697 H         1 AMP502      0.0000 
     28 H          66.0523  -27.5617   48.8215 H         1 AMP502      0.0000 
     29 H          66.0581  -25.0383   49.6799 H         1 AMP502      0.0000 
     30 H          65.7251  -25.5578   45.9909 H         1 AMP502      0.0000 
     31 H          59.6600  -26.7030   46.8516 H         1 AMP502      0.0000 
     32 H          60.9795  -26.5324   45.6452 H         1 AMP502      0.0000 
     33 H          61.6418  -26.3502   50.8980 H         1 AMP502      0.0000 
     34 H          68.7661  -28.1081   49.1847 H         1 AMP502      0.0000 
     35 H          66.7505  -27.3216   50.8675 H         1 AMP502      0.0000 
@<TRIPOS>BOND
     1    2    1 ar   
     2    3    1 ar   
     3    4    1 ar   
     4    5    1 1    
     5    6    5 1    
     6    7    6 1    
     7   24    6 1    
     8   25    6 1    
     9    8    7 1    
    10    9    7 1    
    11   26    7 1    
    12   13    8 1    
    13   10    9 1    
    14   11    9 1    
    15   27    9 1    
    16   34   10 1    
    17   12   11 1    
    18   13   11 1    
    19   28   11 1    
    20   35   12 1    
    21   14   13 1    
    22   29   13 1    
    23   15   14 1    
    24   23   14 1    
    25   16   15 2    
    26   30   15 1    
    27   17   16 1    
    28   18   17 ar   
    29   23   17 ar   
    30   19   18 1    
    31   20   18 ar   
    32   31   19 1    
    33   32   19 1    
    34   21   20 ar   
    35   22   21 ar   
    36   33   21 1    
    37   23   22 ar   
@<TRIPOS>SUBSTRUCTURE
     1 AMP502      1 GROUP   
@<TRIPOS>SET

