#    Name: 1ecb_5GP_1_INTS_M
#    Modification time : Mon Mar 24 23:26:37 2014

@<TRIPOS>MOLECULE
1ecb_5GP_1_INTS_M
   26     0     9     0     0
SMALL
NO_CHARGES


@<TRIPOS>ATOM
      1 N          23.7190   47.5425   75.3325 N.am      1 SEC2        0.0000 
      2 N          25.0050   46.8340   74.9500 N.am      7 SEL2        0.0000 
      3 N          22.4330   48.2510   75.7150 N.am      4 SEP2        0.0000 
      4 N          23.9095   46.1685   75.1825 N.am      1 SEC2        0.0000 
      5 N          22.8140   45.5030   75.4150 N.am      4 SEP2        0.0000 
      6 N          28.1040   46.8930   75.0380 N.am      1 SEC2        0.0000 
      7 N          27.2160   45.7390   74.7200 N.am      7 SEL2        0.0000 
      8 N          28.9920   48.0470   75.3560 N.am      4 SEP2        0.0000 
      9 N          27.8275   46.6880   77.4165 N.am      1 SEC2        0.0000 
     10 N          26.5380   46.9720   76.9000 N.am      7 SEL2        0.0000 
     11 N          29.1170   46.4040   77.9330 N.am      4 SEP2        0.0000 
     12 N          26.8235   48.2995   76.6785 N.am      1 SEC2        0.0000 
     13 N          27.1090   49.6270   76.4570 N.am      4 SEP2        0.0000 
     14 N          24.1960   45.1355   75.8600 N.am      1 SEC2        0.0000 
     15 N          25.5780   44.7680   76.3050 N.am      7 SEL2        0.0000 
     16 CA         28.1740   43.8380   76.8560 C.3       3 GLC5        0.0000 
     17 CA         26.2720   43.6740   77.0540 C.3       9 GLL5        0.0000 
     18 CA         30.0760   44.0020   76.6580 C.3       6 GLP5        0.0000 
     19 Zn         24.6125   41.1060   79.9950 Zn        2 ZIC7        0.0000 
     20 Zn         25.3900   41.6090   79.7190 Zn        8 ZIL7        0.0000 
     21 Zn         23.8350   40.6030   80.2710 Zn        5 ZIP7        0.0000 
     22 Zn         23.9135   40.1085   79.4315 Zn        2 ZIC7        0.0000 
     23 Zn         23.9920   39.6140   78.5920 Zn        8 ZIL7        0.0000 
     24 CA         25.6935   38.8510   77.7455 C.3       3 GLC5        0.0000 
     25 CA         25.0940   40.1510   77.8250 C.3       9 GLL5        0.0000 
     26 CA         26.4350   37.0150   78.2050 C.3       6 GLP5        0.0000 
@<TRIPOS>BOND
@<TRIPOS>SUBSTRUCTURE
     1 SEC2        1 GROUP        1 X    SEC  0     ROOT SEC X 2
     2 ZIC7       19 GROUP        1 X    ZIC  0     **** ZIC X 5
     3 GLC5       16 GROUP        1 X    GLC  0     **** GLC X 6
     4 SEP2        3 GROUP        1 Y    SEP  0     ROOT SEP Y 9
     5 ZIP7       21 GROUP        1 Y    ZIP  0     **** ZIP Y 12
     6 GLP5       18 GROUP        1 Y    GLP  0     **** GLP Y 13
     7 SEL2        2 GROUP        1 Z    SEL  0     ROOT SEL Z 16
     8 ZIL7       20 GROUP        1 Z    ZIL  0     **** ZIL Z 19
     9 GLL5       17 GROUP        1 Z    GLL  0     **** GLL Z 20
@<TRIPOS>SET

