#    Name: 1ecb_5GP_1_ligand
#    Modification time : Mon Mar 24 23:26:37 2014

@<TRIPOS>MOLECULE
1ecb_5GP_1_ligand
   34    36     1     0     0
SMALL
NO_CHARGES


@<TRIPOS>ATOM
      1 P          26.1420   46.1980   75.6560 P.3       1 5GP505      0.0000 
      2 O1P        25.0050   46.8340   74.9500 O.co2     1 5GP505      0.0000 
      3 O2P        27.2160   45.7390   74.7200 O.co2     1 5GP505      0.0000 
      4 O3P        26.5380   46.9720   76.9000 O.co2     1 5GP505      0.0000 
      5 O5'        25.5780   44.7680   76.3050 O.3       1 5GP505      0.0000 
      6 C5'        26.2720   43.6740   77.0540 C.3       1 5GP505      0.0000 
      7 C4'        25.2650   42.5890   77.5840 C.3       1 5GP505      0.0000 
      8 O4'        24.6810   42.0230   76.3860 O.3       1 5GP505      0.0000 
      9 C3'        25.7860   41.4050   78.4030 C.3       1 5GP505      0.0000 
     10 O3'        25.3900   41.6090   79.7190 O.3       1 5GP505      0.0000 
     11 C2'        25.0940   40.1510   77.8250 C.3       1 5GP505      0.0000 
     12 O2'        23.9920   39.6140   78.5920 O.3       1 5GP505      0.0000 
     13 C1'        24.4640   40.5960   76.4580 C.3       1 5GP505      0.0000 
     14 N9         25.1250   40.0600   75.2350 N.pl3     1 5GP505      0.0000 
     15 C8         24.5660   39.5330   74.0600 C.2       1 5GP505      0.0000 
     16 N7         25.4680   39.1480   73.1860 N.2       1 5GP505      0.0000 
     17 C5         26.7180   39.4380   73.8220 C.2       1 5GP505      0.0000 
     18 C6         28.0690   39.2280   73.3960 C.2       1 5GP505      0.0000 
     19 O6         28.3540   38.7140   72.3400 O.2       1 5GP505      0.0000 
     20 N1         29.0930   39.6350   74.3250 N.am      1 5GP505      0.0000 
     21 C2         28.8370   40.2000   75.5730 C.2       1 5GP505      0.0000 
     22 N2         29.8320   40.5390   76.4020 N.pl3     1 5GP505      0.0000 
     23 N3         27.5730   40.3960   75.9740 N.2       1 5GP505      0.0000 
     24 C4         26.5470   39.9990   75.0690 C.2       1 5GP505      0.0000 
     25 H          26.8061   44.0785   77.9178 H         1 5GP505      0.0000 
     26 H          26.9954   43.1665   76.4104 H         1 5GP505      0.0000 
     27 H          24.4829   43.0977   78.1313 H         1 5GP505      0.0000 
     28 H          26.8202   41.3239   78.2586 H         1 5GP505      0.0000 
     29 H          25.8266   39.4161   77.5842 H         1 5GP505      0.0000 
     30 H          23.4308   40.3860   76.4670 H         1 5GP505      0.0000 
     31 H          23.5802   39.4771   73.9463 H         1 5GP505      0.0000 
     32 H          30.0879   39.4888   74.0251 H         1 5GP505      0.0000 
     33 H          30.7583   40.3396   76.0823 H         1 5GP505      0.0000 
     34 H          29.5598   40.9612   77.2667 H         1 5GP505      0.0000 
@<TRIPOS>BOND
     1    2    1 ar   
     2    3    1 ar   
     3    4    1 ar   
     4    5    1 1    
     5    6    5 1    
     6    7    6 1    
     7   25    6 1    
     8   26    6 1    
     9    8    7 1    
    10    9    7 1    
    11   27    7 1    
    12   13    8 1    
    13   10    9 1    
    14   11    9 1    
    15   28    9 1    
    16   12   11 1    
    17   13   11 1    
    18   29   11 1    
    19   14   13 1    
    20   30   13 1    
    21   15   14 1    
    22   24   14 1    
    23   16   15 2    
    24   31   15 1    
    25   17   16 1    
    26   18   17 1    
    27   24   17 2    
    28   19   18 2    
    29   20   18 am   
    30   21   20 1    
    31   32   20 1    
    32   22   21 1    
    33   23   21 2    
    34   33   22 1    
    35   34   22 1    
    36   24   23 1    
@<TRIPOS>SUBSTRUCTURE
     1 5GP505      1 GROUP   
@<TRIPOS>SET

