#    Name: 3gyu_DL7_1_INTS_M
#    Modification time : Tue Mar 25 13:17:32 2014

@<TRIPOS>MOLECULE
3gyu_DL7_1_INTS_M
   98     0     9     0     0
SMALL
NO_CHARGES


@<TRIPOS>ATOM
      1 NZ        -10.6155  -32.4970    3.1560 N.4       2 LYC4        0.0000 
      2 NZ         -9.1820  -32.5550    3.3840 N.4       8 LYL4        0.0000 
      3 NZ        -12.5160  -33.3330    2.1040 N.4       5 LYP4        0.0000 
      4 N         -10.6155  -32.4970    3.1560 N.am      1 SEC2        0.0000 
      5 N          -9.1820  -32.5550    3.3840 N.am      7 SEL2        0.0000 
      6 N         -12.0490  -32.4390    2.9280 N.am      4 SEP2        0.0000 
      7 N          -9.1870  -30.9595    3.4445 N.am      1 SEC2        0.0000 
      8 N          -9.1920  -29.3640    3.5050 N.am      4 SEP2        0.0000 
      9 N          -8.1575  -35.1370    4.3065 N.am      1 SEC2        0.0000 
     10 N          -8.4780  -33.9900    4.9090 N.am      7 SEL2        0.0000 
     11 N          -7.8370  -36.2840    3.7040 N.am      4 SEP2        0.0000 
     12 CA         -8.2030  -30.1180    5.7555 C.3       3 GLC5        0.0000 
     13 CA         -6.9910  -31.2080    4.9440 C.3       9 GLL5        0.0000 
     14 CA         -9.4150  -29.0280    6.5670 C.3       6 GLP5        0.0000 
     15 CA         -7.6635  -32.5015   -0.9305 C.3       3 GLC5        0.0000 
     16 CA         -6.1030  -33.3220    0.4380 C.3       9 GLL5        0.0000 
     17 CA         -9.2240  -31.6810   -2.2990 C.3       6 GLP5        0.0000 
     18 CA         -5.6660  -32.0470   -1.3525 C.3       3 GLC5        0.0000 
     19 CA         -5.2290  -30.7720   -3.1430 C.3       6 GLP5        0.0000 
     20 CA         -4.1325  -32.2865    0.5375 C.3       3 GLC5        0.0000 
     21 CA         -2.1620  -31.2510    0.6370 C.3       6 GLP5        0.0000 
     22 CA         -9.2330  -35.5560   -0.2840 C.3       3 GLC5        0.0000 
     23 CA         -7.5360  -35.0000   -0.6130 C.3       9 GLL5        0.0000 
     24 CA        -10.9300  -36.1120    0.0450 C.3       6 GLP5        0.0000 
     25 CA         -8.1930  -35.4095   -2.3820 C.3       3 GLC5        0.0000 
     26 CA         -8.8500  -35.8190   -4.1510 C.3       6 GLP5        0.0000 
     27 CA         -8.3800  -33.3405   -1.4560 C.3       3 GLC5        0.0000 
     28 CA         -5.0575  -33.5145   -2.5775 C.3       3 GLC5        0.0000 
     29 CA         -4.9480  -35.0640   -1.1450 C.3       9 GLL5        0.0000 
     30 CA         -5.1670  -31.9650   -4.0100 C.3       6 GLP5        0.0000 
     31 CA         -3.3020  -34.4515    1.3760 C.3       3 GLC5        0.0000 
     32 CA         -3.5390  -34.7790   -0.6150 C.3       9 GLL5        0.0000 
     33 CA         -3.0650  -34.1240    3.3670 C.3       6 GLP5        0.0000 
     34 CA         -3.7715  -33.7100   -2.5510 C.3       3 GLC5        0.0000 
     35 CA         -4.0040  -32.6410   -4.4870 C.3       6 GLP5        0.0000 
     36 CA         -2.8505  -33.0150    0.0110 C.3       3 GLC5        0.0000 
     37 CA         -0.6840  -36.4830   -0.4875 C.3       3 GLC5        0.0000 
     38 CA         -2.5510  -35.8050   -1.1700 C.3       9 GLL5        0.0000 
     39 CA          1.1830  -37.1610    0.1950 C.3       6 GLP5        0.0000 
     40 CA         -0.3625  -37.8310   -1.2405 C.3       3 GLC5        0.0000 
     41 CA         -1.9080  -38.5010   -2.6760 C.3       9 GLL5        0.0000 
     42 CA         -2.1405  -40.5145   -1.6445 C.3       3 GLC5        0.0000 
     43 CA         -1.3340  -39.7880   -3.1610 C.3       9 GLL5        0.0000 
     44 CA         -2.9470  -41.2410   -0.1280 C.3       6 GLP5        0.0000 
     45 CA         -3.5365  -38.4380    0.7435 C.3       3 GLC5        0.0000 
     46 CA         -4.7700  -37.5900   -0.5690 C.3       9 GLL5        0.0000 
     47 CA         -2.3030  -39.2860    2.0560 C.3       6 GLP5        0.0000 
     48 CA         -6.0690  -38.8040    0.6475 C.3       3 GLC5        0.0000 
     49 CA         -7.3680  -40.0180    1.8640 C.3       6 GLP5        0.0000 
     50 CA         -5.0795  -35.2805   -4.0700 C.3       3 GLC5        0.0000 
     51 CA         -5.7240  -36.8640   -2.8650 C.3       9 GLL5        0.0000 
     52 CA         -4.4350  -33.6970   -5.2750 C.3       6 GLP5        0.0000 
     53 CA         -7.0340  -39.3070   -4.0485 C.3       3 GLC5        0.0000 
     54 CA         -5.4090  -38.1960   -3.5450 C.3       9 GLL5        0.0000 
     55 CA         -8.6590  -40.4180   -4.5520 C.3       6 GLP5        0.0000 
     56 CA         -5.0960  -39.0430   -7.2255 C.3       3 GLC5        0.0000 
     57 CA         -4.2050  -40.1210   -5.7800 C.3       9 GLL5        0.0000 
     58 CA         -5.9870  -37.9650   -8.6710 C.3       6 GLP5        0.0000 
     59 CA         -3.5530  -41.0610   -1.7705 C.3       3 GLC5        0.0000 
     60 CA         -4.1590  -40.8810   -3.4130 C.3       9 GLL5        0.0000 
     61 CA         -4.6670  -43.0450   -3.2405 C.3       3 GLC5        0.0000 
     62 CA         -5.1750  -45.2090   -3.0680 C.3       6 GLP5        0.0000 
     63 CA         -1.3150  -39.1705   -6.3280 C.3       3 GLC5        0.0000 
     64 CA         -2.0660  -40.0390   -4.5340 C.3       9 GLL5        0.0000 
     65 CA         -0.5640  -38.3020   -8.1220 C.3       6 GLP5        0.0000 
     66 CA         -0.5690  -40.2650   -6.5995 C.3       3 GLC5        0.0000 
     67 CA         -1.6210  -41.3530   -5.1290 C.3       9 GLL5        0.0000 
     68 CA          0.4830  -39.1770   -8.0700 C.3       6 GLP5        0.0000 
     69 CA         -1.6680  -43.3705   -5.4420 C.3       3 GLC5        0.0000 
     70 CA         -1.7150  -45.3880   -5.7550 C.3       6 GLP5        0.0000 
     71 CA         -0.0595  -41.9715   -5.5595 C.3       3 GLC5        0.0000 
     72 CA          1.5020  -42.5900   -5.9900 C.3       6 GLP5        0.0000 
     73 N          -1.5155  -43.1845   -8.3360 N.am      1 SEC2        0.0000 
     74 N          -1.7380  -42.0990   -7.4130 N.am      7 SEL2        0.0000 
     75 N          -1.2930  -44.2700   -9.2590 N.am      4 SEP2        0.0000 
     76 CA         -4.4455  -42.3035   -8.2325 C.3       3 GLC5        0.0000 
     77 CA         -3.8120  -41.4330   -6.3980 C.3       9 GLL5        0.0000 
     78 CA         -5.0790  -43.1740  -10.0670 C.3       6 GLP5        0.0000 
     79 CA         -4.8852  -33.2438    3.3912 C.3       3 GLC5        0.0000 
     80 CA         -6.9170  -32.4990    4.1330 C.3       9 GLL5        0.0000 
     81 CA         -5.0830  -31.3314    4.5961 C.3       3 GLC5        0.0000 
     82 CA         -6.4940  -32.2280    2.6980 C.3       9 GLL5        0.0000 
     83 CA         -3.4420  -30.6220    5.5740 C.3       6 GLP5        0.0000 
     84 CA         -7.5080  -30.4939    3.0541 C.3       3 GLC5        0.0000 
     85 CA         -8.2920  -28.9470    2.4900 C.3       6 GLP5        0.0000 
     86 CA         -4.6895  -33.7670    2.2673 C.3       3 GLC5        0.0000 
     87 CA         -6.5250  -33.4980    1.8970 C.3       9 GLL5        0.0000 
     88 CA         -2.7010  -39.6932   -1.4495 C.3       3 GLC5        0.0000 
     89 CA         -3.0020  -37.7900   -2.8660 C.3       9 GLL5        0.0000 
     90 CA         -1.0415  -37.3582   -3.9205 C.3       3 GLC5        0.0000 
     91 CA          0.3720  -36.5710   -5.0700 C.3       6 GLP5        0.0000 
     92 CA         -0.6640  -38.2422   -4.4588 C.3       3 GLC5        0.0000 
     93 CA         -7.2082  -36.6745   -3.6780 C.3       3 GLC5        0.0000 
     94 CA         -3.5656  -36.1757   -4.5449 C.3       3 GLC5        0.0000 
     95 CA         -3.9320  -38.4050   -3.9110 C.3       9 GLL5        0.0000 
     96 CA         -3.5650  -34.5830   -5.8500 C.3       6 GLP5        0.0000 
     97 CA         -6.1098  -40.8625   -6.5095 C.3       3 GLC5        0.0000 
     98 CA         -8.2110  -40.9480   -6.9300 C.3       6 GLP5        0.0000 
@<TRIPOS>BOND
@<TRIPOS>SUBSTRUCTURE
     1 SEC2        4 GROUP        1 X    SEC  0     ROOT SEC X 2
     2 LYC4        1 GROUP        1 X    LYC  0     **** LYC X 4
     3 GLC5       12 GROUP        1 X    GLC  0     **** GLC X 6
     4 SEP2        6 GROUP        1 Y    SEP  0     ROOT SEP Y 9
     5 LYP4        3 GROUP        1 Y    LYP  0     **** LYP Y 11
     6 GLP5       14 GROUP        1 Y    GLP  0     **** GLP Y 13
     7 SEL2        5 GROUP        1 Z    SEL  0     ROOT SEL Z 16
     8 LYL4        2 GROUP        1 Z    LYL  0     **** LYL Z 18
     9 GLL5       13 GROUP        1 Z    GLL  0     **** GLL Z 20
@<TRIPOS>SET

