#    Name: 3gyu_DL7_1_ligand
#    Modification time : Tue Mar 25 13:17:32 2014

@<TRIPOS>MOLECULE
3gyu_DL7_1_ligand
   71    74     1     0     0
SMALL
NO_CHARGES


@<TRIPOS>ATOM
      1 O3         -9.1820  -32.5550    3.3840 O.co2     1 DL7200      0.0000 
      2 C27        -8.2850  -33.0590    4.1140 C.2       1 DL7200      0.0000 
      3 O2         -8.4780  -33.9900    4.9090 O.co2     1 DL7200      0.0000 
      4 C25        -6.9170  -32.4990    4.1330 C.3       1 DL7200      0.0000 
      5 C26        -6.9910  -31.2080    4.9440 C.3       1 DL7200      0.0000 
      6 C24        -6.4940  -32.2280    2.6980 C.3       1 DL7200      0.0000 
      7 C23        -6.5250  -33.4980    1.8970 C.3       1 DL7200      0.0000 
      8 C22        -6.1030  -33.3220    0.4380 C.3       1 DL7200      0.0000 
      9 C20        -6.0940  -34.7620   -0.1250 C.3       1 DL7200      0.0000 
     10 C21        -7.5360  -35.0000   -0.6130 C.3       1 DL7200      0.0000 
     11 C17        -4.9480  -35.0640   -1.1450 C.3       1 DL7200      0.0000 
     12 C16        -3.5390  -34.7790   -0.6150 C.3       1 DL7200      0.0000 
     13 C15        -2.5510  -35.8050   -1.1700 C.3       1 DL7200      0.0000 
     14 C14        -3.3990  -36.4740   -2.2710 C.3       1 DL7200      0.0000 
     15 C8         -3.0020  -37.7900   -2.8660 C.2       1 DL7200      0.0000 
     16 C7         -1.9080  -38.5010   -2.6760 C.2       1 DL7200      0.0000 
     17 C6         -1.3340  -39.7880   -3.1610 C.3       1 DL7200      0.0000 
     18 C13        -4.7970  -36.5220   -1.7020 C.3       1 DL7200      0.0000 
     19 C18        -4.7700  -37.5900   -0.5690 C.3       1 DL7200      0.0000 
     20 C12        -5.7240  -36.8640   -2.8650 C.3       1 DL7200      0.0000 
     21 C11        -5.4090  -38.1960   -3.5450 C.3       1 DL7200      0.0000 
     22 C9         -3.9320  -38.4050   -3.9110 C.3       1 DL7200      0.0000 
     23 C10        -3.5980  -39.8670   -4.3960 C.3       1 DL7200      0.0000 
     24 C1         -4.2050  -40.1210   -5.7800 C.3       1 DL7200      0.0000 
     25 C19        -4.1590  -40.8810   -3.4130 C.3       1 DL7200      0.0000 
     26 C5         -2.0660  -40.0390   -4.5340 C.3       1 DL7200      0.0000 
     27 C4         -1.6210  -41.3530   -5.1290 C.3       1 DL7200      0.0000 
     28 C3         -2.3280  -41.6860   -6.4000 C.2       1 DL7200      0.0000 
     29 O1         -1.7380  -42.0990   -7.4130 O.2       1 DL7200      0.0000 
     30 C2         -3.8120  -41.4330   -6.3980 C.3       1 DL7200      0.0000 
     31 H          -6.2490  -33.1725    4.5942 H         1 DL7200      0.0000 
     32 H          -5.4854  -31.8142    2.6959 H         1 DL7200      0.0000 
     33 H          -7.1730  -31.4970    2.2584 H         1 DL7200      0.0000 
     34 H          -7.5447  -33.9233    1.9176 H         1 DL7200      0.0000 
     35 H          -5.8611  -34.2469    2.3656 H         1 DL7200      0.0000 
     36 H          -5.1246  -32.9200    0.3890 H         1 DL7200      0.0000 
     37 H          -6.8242  -32.7466   -0.0817 H         1 DL7200      0.0000 
     38 H          -5.9556  -35.4251    0.7600 H         1 DL7200      0.0000 
     39 H          -5.0676  -34.4150   -2.0330 H         1 DL7200      0.0000 
     40 H          -3.5463  -34.8357    0.4687 H         1 DL7200      0.0000 
     41 H          -3.2356  -33.7837   -0.9230 H         1 DL7200      0.0000 
     42 H          -2.3119  -36.5116   -0.4326 H         1 DL7200      0.0000 
     43 H          -1.7308  -35.3175   -1.6057 H         1 DL7200      0.0000 
     44 H          -3.4695  -35.7093   -3.1024 H         1 DL7200      0.0000 
     45 H          -1.1537  -38.0367   -1.9344 H         1 DL7200      0.0000 
     46 H          -1.5742  -40.5903   -2.5103 H         1 DL7200      0.0000 
     47 H          -0.2949  -39.7014   -3.3548 H         1 DL7200      0.0000 
     48 H          -5.6682  -36.0581   -3.6165 H         1 DL7200      0.0000 
     49 H          -6.7645  -36.8880   -2.4987 H         1 DL7200      0.0000 
     50 H          -6.0162  -38.2809   -4.4656 H         1 DL7200      0.0000 
     51 H          -5.7285  -39.0215   -2.8817 H         1 DL7200      0.0000 
     52 H          -3.7866  -37.7516   -4.8592 H         1 DL7200      0.0000 
     53 H          -3.9053  -39.2924   -6.4492 H         1 DL7200      0.0000 
     54 H          -5.3067  -40.0688   -5.6921 H         1 DL7200      0.0000 
     55 H          -1.7057  -39.2222   -5.2049 H         1 DL7200      0.0000 
     56 H          -1.7907  -42.1555   -4.3901 H         1 DL7200      0.0000 
     57 H          -0.5328  -41.3127   -5.3107 H         1 DL7200      0.0000 
     58 H          -4.1861  -41.4705   -7.4395 H         1 DL7200      0.0000 
     59 H          -4.3179  -42.2556   -5.8564 H         1 DL7200      0.0000 
     60 H          -6.1000  -30.7588    5.0092 H         1 DL7200      0.0000 
     61 H          -7.6225  -30.5487    4.5359 H         1 DL7200      0.0000 
     62 H          -7.3046  -31.3742    5.8789 H         1 DL7200      0.0000 
     63 H          -7.8026  -34.3430   -1.3182 H         1 DL7200      0.0000 
     64 H          -7.6495  -35.9129   -1.0050 H         1 DL7200      0.0000 
     65 H          -8.1986  -34.9161    0.1313 H         1 DL7200      0.0000 
     66 H          -4.6709  -38.5159   -0.9336 H         1 DL7200      0.0000 
     67 H          -4.0100  -37.4412    0.0636 H         1 DL7200      0.0000 
     68 H          -5.6098  -37.5771   -0.0263 H         1 DL7200      0.0000 
     69 H          -3.9601  -41.8199   -3.6939 H         1 DL7200      0.0000 
     70 H          -3.7758  -40.7616   -2.4971 H         1 DL7200      0.0000 
     71 H          -5.1524  -40.8049   -3.3273 H         1 DL7200      0.0000 
@<TRIPOS>BOND
     1    2    1 ar   
     2    3    2 ar   
     3    4    2 1    
     4    5    4 1    
     5    6    4 1    
     6   31    4 1    
     7   60    5 1    
     8   61    5 1    
     9   62    5 1    
    10    7    6 1    
    11   32    6 1    
    12   33    6 1    
    13    8    7 1    
    14   34    7 1    
    15   35    7 1    
    16    9    8 1    
    17   36    8 1    
    18   37    8 1    
    19   10    9 1    
    20   11    9 1    
    21   38    9 1    
    22   63   10 1    
    23   64   10 1    
    24   65   10 1    
    25   12   11 1    
    26   18   11 1    
    27   39   11 1    
    28   13   12 1    
    29   40   12 1    
    30   41   12 1    
    31   14   13 1    
    32   42   13 1    
    33   43   13 1    
    34   15   14 1    
    35   18   14 1    
    36   44   14 1    
    37   16   15 2    
    38   22   15 1    
    39   17   16 1    
    40   45   16 1    
    41   26   17 1    
    42   46   17 1    
    43   47   17 1    
    44   19   18 1    
    45   20   18 1    
    46   66   19 1    
    47   67   19 1    
    48   68   19 1    
    49   21   20 1    
    50   48   20 1    
    51   49   20 1    
    52   22   21 1    
    53   50   21 1    
    54   51   21 1    
    55   23   22 1    
    56   52   22 1    
    57   24   23 1    
    58   25   23 1    
    59   26   23 1    
    60   30   24 1    
    61   53   24 1    
    62   54   24 1    
    63   69   25 1    
    64   70   25 1    
    65   71   25 1    
    66   27   26 1    
    67   55   26 1    
    68   28   27 1    
    69   56   27 1    
    70   57   27 1    
    71   29   28 2    
    72   30   28 1    
    73   58   30 1    
    74   59   30 1    
@<TRIPOS>SUBSTRUCTURE
     1 DL7200      1 GROUP   
@<TRIPOS>SET

