#    Name: 3qwf_NAP_2_INTS_M
#    Modification time : Tue Mar 25 10:15:54 2014

@<TRIPOS>MOLECULE
3qwf_NAP_2_INTS_M
  107     0    12     0     0
SMALL
NO_CHARGES


@<TRIPOS>ATOM
      1 N          -7.1280   17.7360  -42.8595 N.am      2 SEC2        0.0000 
      2 N          -8.5230   17.0580  -43.6350 N.am     10 SEL2        0.0000 
      3 N          -5.7330   18.4140  -42.0840 N.am      6 SEP2        0.0000 
      4 CA        -12.3560   17.8035  -46.4180 C.3       4 GLC5        0.0000 
      5 CA        -13.5150   18.0290  -44.9490 C.3      12 GLL5        0.0000 
      6 CA        -11.1970   17.5780  -47.8870 C.3       8 GLP5        0.0000 
      7 O         -14.6070   15.7515  -45.5950 O.2       1 ALC1        0.0000 
      8 O         -14.0280   16.9840  -45.7800 O.2       9 ALL1        0.0000 
      9 O         -15.1860   14.5190  -45.4100 O.2       5 ALP1        0.0000 
     10 CA        -16.6540   17.8915  -42.3410 C.3       4 GLC5        0.0000 
     11 CA        -15.3950   18.7170  -43.6770 C.3      12 GLL5        0.0000 
     12 CA        -17.9130   17.0660  -41.0050 C.3       8 GLP5        0.0000 
     13 CA        -19.2470   20.8495  -40.5830 C.3       4 GLC5        0.0000 
     14 CA        -19.1000   21.5630  -42.3040 C.3      12 GLL5        0.0000 
     15 CA        -19.3940   20.1360  -38.8620 C.3       8 GLP5        0.0000 
     16 O         -20.7165   23.3035  -41.7065 O.2       1 ALC1        0.0000 
     17 O         -19.4260   22.7060  -41.7120 O.2       9 ALL1        0.0000 
     18 O         -22.0070   23.9010  -41.7010 O.2       5 ALP1        0.0000 
     19 N         -21.5145   20.8200  -42.3560 N.am      2 SEC2        0.0000 
     20 N         -20.0570   20.7540  -42.7820 N.am     10 SEL2        0.0000 
     21 N         -22.9720   20.8860  -41.9300 N.am      6 SEP2        0.0000 
     22 CA        -19.4895   20.8760  -44.5905 C.3       4 GLC5        0.0000 
     23 CA        -19.7440   19.6090  -43.3770 C.3      12 GLL5        0.0000 
     24 CA        -19.2350   22.1430  -45.8040 C.3       8 GLP5        0.0000 
     25 CA        -21.0840   18.7790  -42.6725 C.3       4 GLC5        0.0000 
     26 CA        -22.4240   17.9490  -41.9680 C.3       8 GLP5        0.0000 
     27 CA        -18.8285   18.3375  -42.1910 C.3       4 GLC5        0.0000 
     28 N         -18.4065   17.9440  -42.9085 N.am      2 SEC2        0.0000 
     29 N         -18.4850   19.2230  -43.5270 N.am     10 SEL2        0.0000 
     30 N         -18.3280   16.6650  -42.2900 N.am      6 SEP2        0.0000 
     31 N          -9.9430   13.1505  -43.4865 N.am      2 SEC2        0.0000 
     32 N         -10.0190   14.2820  -42.6670 N.am     10 SEL2        0.0000 
     33 N          -9.8670   12.0190  -44.3060 N.am      6 SEP2        0.0000 
     34 N          -7.0250   15.0265  -41.5565 N.am      2 SEC2        0.0000 
     35 N          -8.1440   14.8680  -41.0280 N.am     10 SEL2        0.0000 
     36 N          -5.9060   15.1850  -42.0850 N.am      6 SEP2        0.0000 
     37 CA        -13.6320   16.4640  -37.9590 C.3       4 GLC5        0.0000 
     38 CA        -12.5420   14.8780  -38.0690 C.3      12 GLL5        0.0000 
     39 CA        -14.7220   18.0500  -37.8490 C.3       8 GLP5        0.0000 
     40 N         -13.3470   14.6585  -35.6470 N.am      2 SEC2        0.0000 
     41 N         -13.7360   14.6520  -37.2860 N.am     10 SEL2        0.0000 
     42 N         -12.9580   14.6650  -34.0080 N.am      6 SEP2        0.0000 
     43 O         -14.4975   14.3785  -38.3740 O.2       1 ALC1        0.0000 
     44 O         -13.7360   14.6520  -37.2860 O.2       9 ALL1        0.0000 
     45 O         -15.2590   14.1050  -39.4620 O.2       5 ALP1        0.0000 
     46 N         -10.7350   15.7495  -34.9950 N.am      2 SEC2        0.0000 
     47 N         -11.5580   15.7580  -35.9960 N.am     10 SEL2        0.0000 
     48 N          -9.9120   15.7410  -33.9940 N.am      6 SEP2        0.0000 
     49 N         -12.2580   15.2115  -35.0020 N.am      2 SEC2        0.0000 
     50 CA        -12.2510   12.2425  -36.7625 C.3       4 GLC5        0.0000 
     51 CA        -11.0010   13.5740  -36.9060 C.3      12 GLL5        0.0000 
     52 CA        -13.5010   10.9110  -36.6190 C.3       8 GLP5        0.0000 
     53 N          -4.0525   12.4345  -37.8815 N.am      2 SEC2        0.0000 
     54 N          -4.7880   13.5580  -37.5260 N.am     10 SEL2        0.0000 
     55 N          -3.3170   11.3110  -38.2370 N.am      6 SEP2        0.0000 
     56 O          -5.0630   13.2850  -39.9025 O.2       1 ALC1        0.0000 
     57 O          -6.3630   13.7290  -39.2450 O.2       9 ALL1        0.0000 
     58 O          -3.7630   12.8410  -40.5600 O.2       5 ALP1        0.0000 
     59 O          -6.1345   14.4570  -40.6650 O.2       1 ALC1        0.0000 
     60 O          -5.9060   15.1850  -42.0850 O.2       5 ALP1        0.0000 
     61 CA         -9.7855   10.9975  -35.1635 C.3       4 GLC5        0.0000 
     62 CA         -9.3440   12.8740  -35.2120 C.3      12 GLL5        0.0000 
     63 CA        -10.2270    9.1210  -35.1150 C.3       8 GLP5        0.0000 
     64 N         -17.7410   20.5525  -47.7475 N.am      2 SEC2        0.0000 
     65 N         -16.3100   20.6520  -47.9040 N.am     10 SEL2        0.0000 
     66 N         -19.1720   20.4530  -47.5910 N.am      6 SEP2        0.0000 
     67 N         -17.0625   21.6350  -48.2570 N.am      2 SEC2        0.0000 
     68 N         -17.8150   22.6180  -48.6100 N.am      6 SEP2        0.0000 
     69 N         -16.0780   21.2225  -49.1865 N.am      2 SEC2        0.0000 
     70 N         -15.8460   21.7930  -50.4690 N.am      6 SEP2        0.0000 
     71 NZ        -12.4650   21.0565  -46.3510 N.4       3 LYC4        0.0000 
     72 NZ        -13.7620   20.8570  -47.4010 N.4      11 LYL4        0.0000 
     73 NZ        -10.5720   20.4460  -46.1700 N.4       7 LYP4        0.0000 
     74 N         -12.5160   20.3885  -47.2885 N.am      2 SEC2        0.0000 
     75 N         -13.7620   20.8570  -47.4010 N.am     10 SEL2        0.0000 
     76 N         -11.2700   19.9200  -47.1760 N.am      6 SEP2        0.0000 
     77 N         -12.4650   21.0565  -46.3510 N.am      2 SEC2        0.0000 
     78 N         -11.1680   21.2560  -45.3010 N.am      6 SEP2        0.0000 
     79 N         -13.4575   20.9125  -48.6320 N.am      2 SEC2        0.0000 
     80 N         -13.1530   20.9680  -49.8630 N.am      6 SEP2        0.0000 
     81 N         -15.9250   23.1630  -46.0105 N.am      2 SEC2        0.0000 
     82 N         -15.4880   21.8910  -45.8270 N.am     10 SEL2        0.0000 
     83 N         -16.3620   24.4350  -46.1940 N.am      6 SEP2        0.0000 
     84 CA        -15.9804   17.1837  -44.7074 C.3       4 GLC5        0.0000 
     85 CA        -17.2580   15.7070  -45.1320 C.3       8 GLP5        0.0000 
     86 CA        -17.7673   18.8292  -41.8837 C.3       4 GLC5        0.0000 
     87 CA        -17.7660   21.1920  -42.4480 C.3      12 GLL5        0.0000 
     88 CA        -17.2832   20.6707  -40.8128 C.3       4 GLC5        0.0000 
     89 CA        -17.4770   19.9930  -43.0770 C.3      12 GLL5        0.0000 
     90 CA        -16.9450   20.7490  -38.8630 C.3       8 GLP5        0.0000 
     91 CA        -18.5950   21.4141  -44.2653 C.3       4 GLC5        0.0000 
     92 CA        -10.4973   12.4205  -39.8605 C.3       4 GLC5        0.0000 
     93 CA        -11.6870   13.9200  -40.2970 C.3      12 GLL5        0.0000 
     94 CA         -9.0320   11.0780  -40.1310 C.3       8 GLP5        0.0000 
     95 CA        -12.9455   12.5765  -37.5475 C.3       4 GLC5        0.0000 
     96 CA        -12.2380   13.6060  -38.8830 C.3      12 GLL5        0.0000 
     97 CA        -10.8375   16.5825  -38.0343 C.3       4 GLC5        0.0000 
     98 CA         -9.7530   18.2110  -38.4330 C.3       8 GLP5        0.0000 
     99 CA         -8.4608   12.2692  -38.6615 C.3       4 GLC5        0.0000 
    100 CA         -8.5430   13.5790  -37.3940 C.3      12 GLL5        0.0000 
    101 CA         -8.1112   15.4042  -37.4540 C.3       4 GLC5        0.0000 
    102 CA         -8.3330   17.3480  -37.7160 C.3       8 GLP5        0.0000 
    103 CA         -9.1605   12.8167  -33.2500 C.3       4 GLC5        0.0000 
    104 CA         -8.0380   12.6410  -34.8200 C.3      12 GLL5        0.0000 
    105 CA         -9.6300   12.8760  -31.4840 C.3       8 GLP5        0.0000 
    106 CA         -7.8377   10.9793  -35.9034 C.3       4 GLC5        0.0000 
    107 CA         -8.1020    9.0830  -36.2250 C.3       8 GLP5        0.0000 
@<TRIPOS>BOND
@<TRIPOS>SUBSTRUCTURE
     1 ALC1        7 GROUP        1 X    ALC  0     ROOT ALC X 1
     2 SEC2        1 GROUP        1 X    SEC  0     **** SEC X 2
     3 LYC4       71 GROUP        1 X    LYC  0     **** LYC X 4
     4 GLC5        4 GROUP        1 X    GLC  0     **** GLC X 6
     5 ALP1        9 GROUP        1 Y    ALP  0     ROOT ALP Y 8
     6 SEP2        3 GROUP        1 Y    SEP  0     **** SEP Y 9
     7 LYP4       73 GROUP        1 Y    LYP  0     **** LYP Y 11
     8 GLP5        6 GROUP        1 Y    GLP  0     **** GLP Y 13
     9 ALL1        8 GROUP        1 Z    ALL  0     ROOT ALL Z 15
    10 SEL2        2 GROUP        1 Z    SEL  0     **** SEL Z 16
    11 LYL4       72 GROUP        1 Z    LYL  0     **** LYL Z 18
    12 GLL5        5 GROUP        1 Z    GLL  0     **** GLL Z 20
@<TRIPOS>SET

