#    Name: 3qwf_NAP_2_ligand
#    Modification time : Tue Mar 25 10:15:54 2014

@<TRIPOS>MOLECULE
3qwf_NAP_2_ligand
   73    77     1     0     0
SMALL
NO_CHARGES


@<TRIPOS>ATOM
      1 PA         -9.6200   17.6070  -42.7890 P.3       1 NAP303      0.0000 
      2 O1A        -9.5210   18.9510  -42.2040 O.co2     1 NAP303      0.0000 
      3 O2A        -8.5230   17.0580  -43.6350 O.co2     1 NAP303      0.0000 
      4 O5B       -10.9990   17.4790  -43.5630 O.3       1 NAP303      0.0000 
      5 C5B       -12.1240   18.0850  -42.9480 C.3       1 NAP303      0.0000 
      6 C4B       -13.4020   17.5160  -43.5020 C.3       1 NAP303      0.0000 
      7 O4B       -14.4480   18.1640  -42.7340 O.3       1 NAP303      0.0000 
      8 C3B       -13.5150   18.0290  -44.9490 C.3       1 NAP303      0.0000 
      9 O3B       -14.0280   16.9840  -45.7800 O.3       1 NAP303      0.0000 
     10 C2B       -14.5060   19.1790  -44.8280 C.3       1 NAP303      0.0000 
     11 O2B       -15.2640   19.3010  -46.0260 O.3       1 NAP303      0.0000 
     12 C1B       -15.3950   18.7170  -43.6770 C.3       1 NAP303      0.0000 
     13 N9A       -16.1530   19.8640  -43.0930 N.pl3     1 NAP303      0.0000 
     14 C8A       -15.6270   20.9400  -42.4900 C.2       1 NAP303      0.0000 
     15 N7A       -16.6110   21.7580  -42.1040 N.2       1 NAP303      0.0000 
     16 C5A       -17.7660   21.1920  -42.4480 C.ar      1 NAP303      0.0000 
     17 C6A       -19.1000   21.5630  -42.3040 C.ar      1 NAP303      0.0000 
     18 N6A       -19.4260   22.7060  -41.7120 N.pl3     1 NAP303      0.0000 
     19 N1A       -20.0570   20.7540  -42.7820 N.ar      1 NAP303      0.0000 
     20 C2A       -19.7440   19.6090  -43.3770 C.ar      1 NAP303      0.0000 
     21 N3A       -18.4850   19.2230  -43.5270 N.ar      1 NAP303      0.0000 
     22 C4A       -17.4770   19.9930  -43.0770 C.ar      1 NAP303      0.0000 
     23 O3         -9.9450   16.5820  -41.5540 O.3       1 NAP303      0.0000 
     24 PN         -9.5280   15.0630  -41.5040 P.3       1 NAP303      0.0000 
     25 O1N       -10.0190   14.2820  -42.6670 O.co2     1 NAP303      0.0000 
     26 O2N        -8.1440   14.8680  -41.0280 O.co2     1 NAP303      0.0000 
     27 O5D       -10.4740   14.6650  -40.1890 O.3       1 NAP303      0.0000 
     28 C5D       -11.6870   13.9200  -40.2970 C.3       1 NAP303      0.0000 
     29 C4D       -12.2380   13.6060  -38.8830 C.3       1 NAP303      0.0000 
     30 O4D       -11.2080   12.9020  -38.1660 O.3       1 NAP303      0.0000 
     31 C3D       -12.5420   14.8780  -38.0690 C.3       1 NAP303      0.0000 
     32 O3D       -13.7360   14.6520  -37.2860 O.3       1 NAP303      0.0000 
     33 C2D       -11.3020   15.0300  -37.2020 C.3       1 NAP303      0.0000 
     34 O2D       -11.5580   15.7580  -35.9960 O.3       1 NAP303      0.0000 
     35 C1D       -11.0010   13.5740  -36.9060 C.3       1 NAP303      0.0000 
     36 N1N        -9.6050   13.3380  -36.5020 N.pl3     1 NAP303      0.0000 
     37 C2N        -8.5430   13.5790  -37.3940 C.ar      1 NAP303      0.0000 
     38 C3N        -7.2360   13.3420  -36.9900 C.ar      1 NAP303      0.0000 
     39 C7N        -6.0660   13.5760  -37.9580 C.2       1 NAP303      0.0000 
     40 O7N        -4.7880   13.5580  -37.5260 O.2       1 NAP303      0.0000 
     41 N7N        -6.3630   13.7290  -39.2450 N.am      1 NAP303      0.0000 
     42 C4N        -6.9820   12.8780  -35.6970 C.ar      1 NAP303      0.0000 
     43 C5N        -8.0380   12.6410  -34.8200 C.ar      1 NAP303      0.0000 
     44 C6N        -9.3440   12.8740  -35.2120 C.ar      1 NAP303      0.0000 
     45 P2B       -15.2700   20.7060  -46.8560 P.3       1 NAP303      0.0000 
     46 O1X       -16.3100   20.6520  -47.9040 O.co2     1 NAP303      0.0000 
     47 O2X       -13.7620   20.8570  -47.4010 O.co2     1 NAP303      0.0000 
     48 O3X       -15.4880   21.8910  -45.8270 O.co2     1 NAP303      0.0000 
     49 H         -12.1363   19.1761  -43.1115 H         1 NAP303      0.0000 
     50 H         -12.1237   17.9256  -41.8562 H         1 NAP303      0.0000 
     51 H         -13.4185   16.5046  -43.4611 H         1 NAP303      0.0000 
     52 H         -12.5820   18.4015  -45.2408 H         1 NAP303      0.0000 
     53 H         -13.9935   20.0410  -44.5376 H         1 NAP303      0.0000 
     54 H         -16.0461   17.9652  -44.0443 H         1 NAP303      0.0000 
     55 H         -14.6734   21.0989  -42.3551 H         1 NAP303      0.0000 
     56 H         -18.6657   23.2508  -41.3583 H         1 NAP303      0.0000 
     57 H         -20.4024   22.9187  -41.6734 H         1 NAP303      0.0000 
     58 H         -20.5230   18.9875  -43.7416 H         1 NAP303      0.0000 
     59 H         -11.5390   12.9630  -40.8068 H         1 NAP303      0.0000 
     60 H         -12.4647   14.4738  -40.8320 H         1 NAP303      0.0000 
     61 H         -13.1158   13.0226  -38.9678 H         1 NAP303      0.0000 
     62 H         -12.6101   15.6830  -38.7345 H         1 NAP303      0.0000 
     63 H         -10.5233   15.4141  -37.7958 H         1 NAP303      0.0000 
     64 H         -11.6854   13.2137  -36.1825 H         1 NAP303      0.0000 
     65 H          -8.7428   13.9280  -38.3360 H         1 NAP303      0.0000 
     66 H          -5.5882   13.8663  -39.8621 H         1 NAP303      0.0000 
     67 H          -7.3344   13.6929  -39.4797 H         1 NAP303      0.0000 
     68 H          -6.0144   12.7119  -35.3942 H         1 NAP303      0.0000 
     69 H          -7.8397   12.2882  -33.8695 H         1 NAP303      0.0000 
     70 H         -10.1204   12.7083  -34.5619 H         1 NAP303      0.0000 
     71 H         -14.5243   16.3788  -45.1577 H         1 NAP303      0.0000 
     72 H         -14.4538   14.4656  -37.9568 H         1 NAP303      0.0000 
     73 H         -11.6544   16.7106  -36.2844 H         1 NAP303      0.0000 
@<TRIPOS>BOND
     1    2    1 ar   
     2    3    1 ar   
     3    4    1 1    
     4   23    1 1    
     5    5    4 1    
     6    6    5 1    
     7   49    5 1    
     8   50    5 1    
     9    7    6 1    
    10    8    6 1    
    11   51    6 1    
    12   12    7 1    
    13    9    8 1    
    14   10    8 1    
    15   52    8 1    
    16   71    9 1    
    17   11   10 1    
    18   12   10 1    
    19   53   10 1    
    20   45   11 1    
    21   13   12 1    
    22   54   12 1    
    23   14   13 1    
    24   22   13 1    
    25   15   14 2    
    26   55   14 1    
    27   16   15 1    
    28   17   16 ar   
    29   22   16 ar   
    30   18   17 1    
    31   19   17 ar   
    32   56   18 1    
    33   57   18 1    
    34   20   19 ar   
    35   21   20 ar   
    36   58   20 1    
    37   22   21 ar   
    38   24   23 1    
    39   25   24 ar   
    40   26   24 ar   
    41   27   24 1    
    42   28   27 1    
    43   29   28 1    
    44   59   28 1    
    45   60   28 1    
    46   30   29 1    
    47   31   29 1    
    48   61   29 1    
    49   35   30 1    
    50   32   31 1    
    51   33   31 1    
    52   62   31 1    
    53   72   32 1    
    54   34   33 1    
    55   35   33 1    
    56   63   33 1    
    57   73   34 1    
    58   36   35 1    
    59   64   35 1    
    60   37   36 ar   
    61   44   36 ar   
    62   38   37 ar   
    63   65   37 1    
    64   39   38 1    
    65   42   38 ar   
    66   40   39 2    
    67   41   39 am   
    68   66   41 1    
    69   67   41 1    
    70   43   42 ar   
    71   68   42 1    
    72   44   43 ar   
    73   69   43 1    
    74   70   44 1    
    75   46   45 ar   
    76   47   45 ar   
    77   48   45 ar   
@<TRIPOS>SUBSTRUCTURE
     1 NAP303      1 GROUP   
@<TRIPOS>SET

