#    Name: 2pyw_ADP_2_INTS_M
#    Modification time : Mon Mar 24 19:35:18 2014

@<TRIPOS>MOLECULE
2pyw_ADP_2_INTS_M
   73     0    15     0     0
SMALL
NO_CHARGES


@<TRIPOS>ATOM
      1 N          23.7225   38.8795   27.3935 N.am      2 SEC2        0.0000 
      2 N          23.2010   39.2360   25.9060 N.am     12 SEL2        0.0000 
      3 N          24.2440   38.5230   28.8810 N.am      7 SEP2        0.0000 
      4 N          24.2430   39.9870   26.5905 N.am      2 SEC2        0.0000 
      5 N          25.2850   40.7380   27.2750 N.am      7 SEP2        0.0000 
      6 NZ         24.6515   38.0515   22.7745 N.4       3 LYC4        0.0000 
      7 NZ         24.2810   37.6900   24.2920 N.4      13 LYL4        0.0000 
      8 NZ         25.0220   38.4130   21.2570 N.4       8 LYP4        0.0000 
      9 Zn         24.5040   36.6815   24.3695 Zn        4 ZIC7        0.0000 
     10 Zn         24.2810   37.6900   24.2920 Zn       14 ZIL7        0.0000 
     11 Zn         24.7270   35.6730   24.4470 Zn        9 ZIP7        0.0000 
     12 N          25.5190   38.3465   24.5180 N.am      2 SEC2        0.0000 
     13 N          24.2810   37.6900   24.2920 N.am     12 SEL2        0.0000 
     14 N          26.7570   39.0030   24.7440 N.am      7 SEP2        0.0000 
     15 N          24.6515   38.0515   22.7745 N.am      2 SEC2        0.0000 
     16 N          25.0220   38.4130   21.2570 N.am      7 SEP2        0.0000 
     17 Zn         21.5565   36.3795   24.6180 Zn        4 ZIC7        0.0000 
     18 Zn         22.0030   37.0620   25.2110 Zn       14 ZIL7        0.0000 
     19 Zn         21.1100   35.6970   24.0250 Zn        9 ZIP7        0.0000 
     20 NZ         23.6535   38.4680   21.2050 N.4       3 LYC4        0.0000 
     21 NZ         22.2850   38.5230   21.1530 N.4      13 LYL4        0.0000 
     22 N          23.6535   38.4680   21.2050 N.am      2 SEC2        0.0000 
     23 N          22.2850   38.5230   21.1530 N.am     12 SEL2        0.0000 
     24 Zn         20.8725   36.4705   23.3625 Zn        4 ZIC7        0.0000 
     25 Zn         20.6350   37.2440   22.7000 Zn       14 ZIL7        0.0000 
     26 CA         19.6740   39.3215   25.2795 C.3       5 GLC5        0.0000 
     27 CA         19.5280   40.0780   23.2340 C.3      15 GLL5        0.0000 
     28 CA         19.8200   38.5650   27.3250 C.3      10 GLP5        0.0000 
     29 CA         20.9085   41.4920   22.8715 C.3       5 GLC5        0.0000 
     30 CA         22.2890   42.9060   22.5090 C.3      10 GLP5        0.0000 
     31 CA         19.2990   42.3895   22.0825 C.3       5 GLC5        0.0000 
     32 CA         18.2380   40.6260   22.6360 C.3      15 GLL5        0.0000 
     33 CA         20.3600   44.1530   21.5290 C.3      10 GLP5        0.0000 
     34 CA         16.3940   37.9700   21.3335 C.3       5 GLC5        0.0000 
     35 CA         17.4340   39.5570   21.9180 C.3      15 GLL5        0.0000 
     36 CA         15.3540   36.3830   20.7490 C.3      10 GLP5        0.0000 
     37 CA         18.2790   38.2605   20.5730 C.3       5 GLC5        0.0000 
     38 CA         19.1240   36.9640   19.2280 C.3      10 GLP5        0.0000 
     39 O          16.3530   39.5475   23.9520 O.2       1 ALC1        0.0000 
     40 O          16.5450   38.8750   22.8100 O.2      11 ALL1        0.0000 
     41 O          16.1610   40.2200   25.0940 O.2       6 ALP1        0.0000 
     42 CA         15.4130   38.7095   21.2020 C.3       5 GLC5        0.0000 
     43 CA         16.6540   40.3740   20.9110 C.3      15 GLL5        0.0000 
     44 CA         14.1720   37.0450   21.4930 C.3      10 GLP5        0.0000 
     45 CA         16.2175   39.5560   19.0500 C.3       5 GLC5        0.0000 
     46 CA         15.7810   38.7380   17.1890 C.3      10 GLP5        0.0000 
     47 O          14.5105   40.4700   22.3515 O.2       1 ALC1        0.0000 
     48 O          15.5290   40.9650   21.5850 O.2      11 ALL1        0.0000 
     49 O          13.4920   39.9750   23.1180 O.2       6 ALP1        0.0000 
     50 CA         17.4120   43.6550   21.1180 C.3       5 GLC5        0.0000 
     51 CA         17.6010   41.5070   20.5570 C.3      15 GLL5        0.0000 
     52 CA         17.2230   45.8030   21.6790 C.3      10 GLP5        0.0000 
     53 CA         18.9805   42.8300   21.0430 C.3       5 GLC5        0.0000 
     54 CA         18.1225   39.9325   14.7495 C.3       5 GLC5        0.0000 
     55 CA         18.9010   41.4620   15.8330 C.3      15 GLL5        0.0000 
     56 CA         17.3440   38.4030   13.6660 C.3      10 GLP5        0.0000 
     57 O          20.0415   41.7875   13.6285 O.2       1 ALC1        0.0000 
     58 O          19.9140   41.1880   14.9770 O.2      11 ALL1        0.0000 
     59 O          20.1690   42.3870   12.2800 O.2       6 ALP1        0.0000 
     60 N          17.2270   42.2635   14.0630 N.am      2 SEC2        0.0000 
     61 N          17.7170   41.9540   15.3820 N.am     12 SEL2        0.0000 
     62 N          16.7370   42.5730   12.7440 N.am      7 SEP2        0.0000 
     63 CA         18.2245   43.6310   16.0210 C.3       5 GLC5        0.0000 
     64 CA         16.7110   42.2440   16.2140 C.3      15 GLL5        0.0000 
     65 CA         19.7380   45.0180   15.8280 C.3      10 GLP5        0.0000 
     66 CA         16.2530   41.2765   14.6560 C.3       5 GLC5        0.0000 
     67 CA         15.7950   40.3090   13.0980 C.3      10 GLP5        0.0000 
     68 CA         16.2460   40.4910   16.7015 C.3       5 GLC5        0.0000 
     69 CA         19.0625   41.9865   24.1230 C.3       5 GLC5        0.0000 
     70 CA         19.2420   43.6210   25.3110 C.3      10 GLP5        0.0000 
     71 CA         19.1155   43.2413   16.5595 C.3       5 GLC5        0.0000 
     72 CA         18.0030   41.5670   18.0630 C.3      15 GLL5        0.0000 
     73 CA         17.1370   40.1013   17.2400 C.3       5 GLC5        0.0000 
@<TRIPOS>BOND
@<TRIPOS>SUBSTRUCTURE
     1 ALC1       39 GROUP        1 X    ALC  0     ROOT ALC X 1
     2 SEC2        1 GROUP        1 X    SEC  0     **** SEC X 2
     3 LYC4        6 GROUP        1 X    LYC  0     **** LYC X 4
     4 ZIC7        9 GROUP        1 X    ZIC  0     **** ZIC X 5
     5 GLC5       26 GROUP        1 X    GLC  0     **** GLC X 6
     6 ALP1       41 GROUP        1 Y    ALP  0     ROOT ALP Y 8
     7 SEP2        3 GROUP        1 Y    SEP  0     **** SEP Y 9
     8 LYP4        8 GROUP        1 Y    LYP  0     **** LYP Y 11
     9 ZIP7       11 GROUP        1 Y    ZIP  0     **** ZIP Y 12
    10 GLP5       28 GROUP        1 Y    GLP  0     **** GLP Y 13
    11 ALL1       40 GROUP        1 Z    ALL  0     ROOT ALL Z 15
    12 SEL2        2 GROUP        1 Z    SEL  0     **** SEL Z 16
    13 LYL4        7 GROUP        1 Z    LYL  0     **** LYL Z 18
    14 ZIL7       10 GROUP        1 Z    ZIL  0     **** ZIL Z 19
    15 GLL5       27 GROUP        1 Z    GLL  0     **** GLL Z 20
@<TRIPOS>SET

