#    Name: 2pyw_ADP_2_ligand
#    Modification time : Mon Mar 24 19:35:19 2014

@<TRIPOS>MOLECULE
2pyw_ADP_2_ligand
   39    41     1     0     0
SMALL
NO_CHARGES


@<TRIPOS>ATOM
      1 PB         22.9670   38.1840   24.8540 P.3       1 ADP999      0.0000 
      2 O1B        23.2010   39.2360   25.9060 O.co2     1 ADP999      0.0000 
      3 O2B        24.2810   37.6900   24.2920 O.co2     1 ADP999      0.0000 
      4 O3B        22.0030   37.0620   25.2110 O.co2     1 ADP999      0.0000 
      5 PA         21.4240   38.4850   22.3690 P.3       1 ADP999      0.0000 
      6 O1A        22.2850   38.5230   21.1530 O.co2     1 ADP999      0.0000 
      7 O2A        20.6350   37.2440   22.7000 O.co2     1 ADP999      0.0000 
      8 O3A        22.2960   39.0280   23.6410 O.3       1 ADP999      0.0000 
      9 O5'        20.3750   39.6800   22.1550 O.3       1 ADP999      0.0000 
     10 C5'        19.5280   40.0780   23.2340 C.3       1 ADP999      0.0000 
     11 C4'        18.2380   40.6260   22.6360 C.3       1 ADP999      0.0000 
     12 O4'        18.5230   41.6310   21.6510 O.3       1 ADP999      0.0000 
     13 C3'        17.4340   39.5570   21.9180 C.3       1 ADP999      0.0000 
     14 O3'        16.5450   38.8750   22.8100 O.3       1 ADP999      0.0000 
     15 C2'        16.6540   40.3740   20.9110 C.3       1 ADP999      0.0000 
     16 O2'        15.5290   40.9650   21.5850 O.3       1 ADP999      0.0000 
     17 C1'        17.6010   41.5070   20.5570 C.3       1 ADP999      0.0000 
     18 N9         18.3950   41.2940   19.3140 N.pl3     1 ADP999      0.0000 
     19 C8         19.6580   40.8280   19.2530 C.2       1 ADP999      0.0000 
     20 N7         20.0790   40.7970   17.9570 N.2       1 ADP999      0.0000 
     21 C5         19.0650   41.2620   17.2050 C.ar      1 ADP999      0.0000 
     22 C6         18.9010   41.4620   15.8330 C.ar      1 ADP999      0.0000 
     23 N6         19.9140   41.1880   14.9770 N.pl3     1 ADP999      0.0000 
     24 N1         17.7170   41.9540   15.3820 N.ar      1 ADP999      0.0000 
     25 C2         16.7110   42.2440   16.2140 C.ar      1 ADP999      0.0000 
     26 N3         16.8420   42.0650   17.5430 N.ar      1 ADP999      0.0000 
     27 C4         18.0030   41.5670   18.0630 C.ar      1 ADP999      0.0000 
     28 H          19.9802   40.8633   23.8373 H         1 ADP999      0.0000 
     29 H          19.2710   39.2399   23.8794 H         1 ADP999      0.0000 
     30 H          17.6267   41.0354   23.4225 H         1 ADP999      0.0000 
     31 H          18.0971   38.9256   21.3984 H         1 ADP999      0.0000 
     32 H          16.4237   39.8230   20.0842 H         1 ADP999      0.0000 
     33 H          17.0264   42.4202   20.4708 H         1 ADP999      0.0000 
     34 H          20.1963   40.5525   20.0152 H         1 ADP999      0.0000 
     35 H          19.7312   41.3610   14.0092 H         1 ADP999      0.0000 
     36 H          20.7550   40.8369   15.3886 H         1 ADP999      0.0000 
     37 H          15.8069   42.6157   15.8316 H         1 ADP999      0.0000 
     38 H          16.4913   39.4601   23.6192 H         1 ADP999      0.0000 
     39 H          15.0470   40.1967   22.0062 H         1 ADP999      0.0000 
@<TRIPOS>BOND
     1    2    1 ar   
     2    3    1 ar   
     3    4    1 ar   
     4    8    1 1    
     5    6    5 ar   
     6    7    5 ar   
     7    8    5 1    
     8    9    5 1    
     9   10    9 1    
    10   11   10 1    
    11   28   10 1    
    12   29   10 1    
    13   12   11 1    
    14   13   11 1    
    15   30   11 1    
    16   17   12 1    
    17   14   13 1    
    18   15   13 1    
    19   31   13 1    
    20   38   14 1    
    21   16   15 1    
    22   17   15 1    
    23   32   15 1    
    24   39   16 1    
    25   18   17 1    
    26   33   17 1    
    27   19   18 1    
    28   27   18 1    
    29   20   19 2    
    30   34   19 1    
    31   21   20 1    
    32   22   21 ar   
    33   27   21 ar   
    34   23   22 1    
    35   24   22 ar   
    36   35   23 1    
    37   36   23 1    
    38   25   24 ar   
    39   26   25 ar   
    40   37   25 1    
    41   27   26 ar   
@<TRIPOS>SUBSTRUCTURE
     1 ADP999      1 GROUP   
@<TRIPOS>SET

