#    Name: 1ajx_AH1_1_INTS_M
#    Modification time : Mon Mar 24 18:28:53 2014

@<TRIPOS>MOLECULE
1ajx_AH1_1_INTS_M
  100     0     9     0     0
SMALL
NO_CHARGES


@<TRIPOS>ATOM
      1 CA          9.0255   22.4170    6.3330 C.3       3 GLC5        0.0000 
      2 CA         10.4530   23.6120    6.6690 C.3       9 GLL5        0.0000 
      3 CA          7.5980   21.2220    5.9970 C.3       6 GLP5        0.0000 
      4 CA         10.5320   28.1555    6.4480 C.3       3 GLC5        0.0000 
      5 CA          9.0390   27.0110    7.5220 C.3       9 GLL5        0.0000 
      6 CA         12.0250   29.3000    5.3740 C.3       6 GLP5        0.0000 
      7 CA         12.9230   27.5705    9.2010 C.3       3 GLC5        0.0000 
      8 CA         11.1000   26.7320    8.6960 C.3       9 GLL5        0.0000 
      9 CA         14.7460   28.4090    9.7060 C.3       6 GLP5        0.0000 
     10 CA         12.9470   25.4240    9.3095 C.3       3 GLC5        0.0000 
     11 CA         11.2270   25.4360    8.1300 C.3       9 GLL5        0.0000 
     12 CA         14.6670   25.4120   10.4890 C.3       6 GLP5        0.0000 
     13 CA         11.0850   23.9460    9.5780 C.3       3 GLC5        0.0000 
     14 CA         10.9430   22.4560   11.0260 C.3       6 GLP5        0.0000 
     15 N          10.2890   20.2940    5.8570 N.am      2 SEC2        0.0000 
     16 N          11.5490   21.0910    6.5030 N.am      8 SEL2        0.0000 
     17 N           9.0290   19.4970    5.2110 N.am      5 SEP2        0.0000 
     18 N          11.5380   20.3140    7.7330 N.am      2 SEC2        0.0000 
     19 N          11.5270   19.5370    8.9630 N.am      5 SEP2        0.0000 
     20 CA         12.3850   19.2010    5.0015 C.3       3 GLC5        0.0000 
     21 CA         13.9250   20.3890    5.4920 C.3       9 GLL5        0.0000 
     22 CA         10.8450   18.0130    4.5110 C.3       6 GLP5        0.0000 
     23 CA         13.3765   18.6590    1.9695 C.3       3 GLC5        0.0000 
     24 CA         15.2220   19.6500    1.9380 C.3       9 GLL5        0.0000 
     25 CA         11.5310   17.6680    2.0010 C.3       6 GLP5        0.0000 
     26 CA         14.6350   24.3525    8.8025 C.3       3 GLC5        0.0000 
     27 CA         14.6030   23.2930    7.1160 C.3       9 GLL5        0.0000 
     28 CA         15.2245   23.5930    9.5745 C.3       3 GLC5        0.0000 
     29 CA         15.7820   21.7740    8.6600 C.3       9 GLL5        0.0000 
     30 CA         14.1970   19.2680    8.5900 C.3       3 GLC5        0.0000 
     31 CA         15.6250   20.6030    9.4660 C.3       9 GLL5        0.0000 
     32 CA         12.7690   17.9330    7.7140 C.3       6 GLP5        0.0000 
     33 N          15.7415   25.5925    5.6860 N.am      2 SEC2        0.0000 
     34 N          15.7460   24.5390    4.7420 N.am      8 SEL2        0.0000 
     35 N          15.7370   26.6460    6.6300 N.am      5 SEP2        0.0000 
     36 N          15.2205   24.7595    3.1910 N.am      2 SEC2        0.0000 
     37 N          14.6950   24.9800    1.6400 N.am      5 SEP2        0.0000 
     38 O          16.0980   25.2535    3.5920 O.2       1 ALC1        0.0000 
     39 O          15.7460   24.5390    4.7420 O.2       7 ALL1        0.0000 
     40 O          16.4500   25.9680    2.4420 O.2       4 ALP1        0.0000 
     41 O          15.2205   24.7595    3.1910 O.2       1 ALC1        0.0000 
     42 O          14.6950   24.9800    1.6400 O.2       4 ALP1        0.0000 
     43 N          14.1225   25.4100    2.8120 N.am      2 SEC2        0.0000 
     44 N          13.5500   25.8400    3.9840 N.am      8 SEL2        0.0000 
     45 O          14.7035   26.7640    4.3375 O.2       1 ALC1        0.0000 
     46 O          13.5500   25.8400    3.9840 O.2       7 ALL1        0.0000 
     47 O          15.8570   27.6880    4.6910 O.2       4 ALP1        0.0000 
     48 O          15.0000   25.9040    3.2130 O.2       1 ALC1        0.0000 
     49 CA         12.0455   22.5830    1.7900 C.3       3 GLC5        0.0000 
     50 CA         11.8320   23.4520    3.5150 C.3       9 GLL5        0.0000 
     51 CA         12.2590   21.7140    0.0650 C.3       6 GLP5        0.0000 
     52 CA          6.3165   23.0160    1.6505 C.3       3 GLC5        0.0000 
     53 CA          7.1750   24.8090    2.5880 C.3       9 GLL5        0.0000 
     54 CA          5.4580   21.2230    0.7130 C.3       6 GLP5        0.0000 
     55 CA          7.8845   22.5240    4.4620 C.3       3 GLC5        0.0000 
     56 CA          8.1710   23.8260    2.9270 C.3       9 GLL5        0.0000 
     57 CA          7.1010   22.1410    2.3390 C.3       3 GLC5        0.0000 
     58 CA          6.0310   20.4560    1.7510 C.3       6 GLP5        0.0000 
     59 CA          9.7325   22.9755    8.2105 C.3       3 GLC5        0.0000 
     60 CA          9.0960   21.6680    9.4460 C.3       6 GLP5        0.0000 
     61 CA         11.0053   27.2735   10.4240 C.3       3 GLC5        0.0000 
     62 CA         11.4550   27.4180   12.3020 C.3       6 GLP5        0.0000 
     63 CA         11.8206   27.7067    7.5190 C.3       3 GLC5        0.0000 
     64 CA         12.7500   29.1310    6.7000 C.3       6 GLP5        0.0000 
     65 CA         13.5760   19.0527    6.3200 C.3       3 GLC5        0.0000 
     66 CA         12.8355   19.3233    3.3825 C.3       3 GLC5        0.0000 
     67 CA         14.8410   19.9560    4.3600 C.3       9 GLL5        0.0000 
     68 CA         11.0510   18.6190    3.0850 C.3       6 GLP5        0.0000 
     69 CA         17.5620   20.7705    3.3712 C.3       3 GLC5        0.0000 
     70 CA         16.1120   19.3650    4.6200 C.3       9 GLL5        0.0000 
     71 CA         18.6230   22.3930    2.6630 C.3       6 GLP5        0.0000 
     72 CA         15.3558   18.2462    0.5608 C.3       3 GLC5        0.0000 
     73 CA         16.4590   19.0590    2.2170 C.3       9 GLL5        0.0000 
     74 CA         14.8710   17.1380   -0.9560 C.3       6 GLP5        0.0000 
     75 CA         13.5348   20.7942    1.2670 C.3       3 GLC5        0.0000 
     76 CA         16.3559   21.0154    2.0344 C.3       3 GLC5        0.0000 
     77 CA         14.3990   20.0990    3.0000 C.3       9 GLL5        0.0000 
     78 CA         17.5920   22.3040    1.5300 C.3       6 GLP5        0.0000 
     79 CA         16.7853   22.0343   10.4915 C.3       3 GLC5        0.0000 
     80 CA         17.8670   22.8800   11.9200 C.3       6 GLP5        0.0000 
     81 CA         14.0648   21.8377   10.0690 C.3       3 GLC5        0.0000 
     82 CA         12.4260   22.4870   11.0750 C.3       6 GLP5        0.0000 
     83 CA         15.4648   20.1615   11.2335 C.3       3 GLC5        0.0000 
     84 CA         14.7280   20.0940   12.8230 C.3       6 GLP5        0.0000 
     85 CA         17.6452   21.4712   10.7575 C.3       3 GLC5        0.0000 
     86 CA         16.7780   19.8550    9.8220 C.3       9 GLL5        0.0000 
     87 CA         18.6295   23.4712    8.4160 C.3       3 GLC5        0.0000 
     88 CA         18.2260   21.4180    8.5550 C.3       9 GLL5        0.0000 
     89 CA         19.6040   25.1500    8.4500 C.3       6 GLP5        0.0000 
     90 CA         17.7610   22.3362   10.1510 C.3       3 GLC5        0.0000 
     91 CA         17.0840   22.1670    8.2090 C.3       9 GLL5        0.0000 
     92 CA          9.3247   24.2750    0.6220 C.3       3 GLC5        0.0000 
     93 CA          9.5240   24.0830    2.7470 C.3       9 GLL5        0.0000 
     94 CA          8.9330   23.8450   -1.2450 C.3       6 GLP5        0.0000 
     95 CA         10.4305   26.4937    0.6492 C.3       3 GLC5        0.0000 
     96 CA          9.9090   25.3270    2.2310 C.3       9 GLL5        0.0000 
     97 CA         11.4340   27.1690   -0.7570 C.3       6 GLP5        0.0000 
     98 CA          8.5940   25.0150    0.3605 C.3       3 GLC5        0.0000 
     99 CA          8.9450   26.3100    1.8800 C.3       9 GLL5        0.0000 
    100 CA          8.3030   24.0812    0.7562 C.3       3 GLC5        0.0000 
@<TRIPOS>BOND
@<TRIPOS>SUBSTRUCTURE
     1 ALC1       38 GROUP        1 X    ALC  0     ROOT ALC X 1
     2 SEC2       15 GROUP        1 X    SEC  0     **** SEC X 2
     3 GLC5        1 GROUP        1 X    GLC  0     **** GLC X 6
     4 ALP1       40 GROUP        1 Y    ALP  0     ROOT ALP Y 8
     5 SEP2       17 GROUP        1 Y    SEP  0     **** SEP Y 9
     6 GLP5        3 GROUP        1 Y    GLP  0     **** GLP Y 13
     7 ALL1       39 GROUP        1 Z    ALL  0     ROOT ALL Z 15
     8 SEL2       16 GROUP        1 Z    SEL  0     **** SEL Z 16
     9 GLL5        2 GROUP        1 Z    GLL  0     **** GLL Z 20
@<TRIPOS>SET

