#    Name: 1ajx_AH1_1_ligand
#    Modification time : Mon Mar 24 18:28:53 2014

@<TRIPOS>MOLECULE
1ajx_AH1_1_ligand
   74    78     1     0     0
SMALL
NO_CHARGES


@<TRIPOS>ATOM
      1 N01        11.7410   23.3430    5.9890 N.am      1 AH1500      0.0000 
      2 C02        12.2650   22.0280    6.0510 C.2       1 AH1500      0.0000 
      3 N03        13.5070   21.7390    5.6380 N.am      1 AH1500      0.0000 
      4 C04        14.6520   22.6630    5.7600 C.3       1 AH1500      0.0000 
      5 C05        14.5740   23.8290    4.6740 C.3       1 AH1500      0.0000 
      6 C06        13.4310   24.8510    4.9420 C.3       1 AH1500      0.0000 
      7 C07        11.9940   24.2680    4.8390 C.3       1 AH1500      0.0000 
      8 C08        10.4530   23.6120    6.6690 C.3       1 AH1500      0.0000 
      9 C09        10.2850   24.9540    7.2810 C.ar      1 AH1500      0.0000 
     10 C10         9.1800   25.7370    6.9680 C.ar      1 AH1500      0.0000 
     11 C11         9.0390   27.0110    7.5220 C.ar      1 AH1500      0.0000 
     12 C12        10.0110   27.5260    8.3960 C.ar      1 AH1500      0.0000 
     13 C13        11.1000   26.7320    8.6960 C.ar      1 AH1500      0.0000 
     14 C14        11.2270   25.4360    8.1300 C.ar      1 AH1500      0.0000 
     15 O15        11.5490   21.0910    6.5030 O.2       1 AH1500      0.0000 
     16 C16        13.9250   20.3890    5.4920 C.3       1 AH1500      0.0000 
     17 C17        14.8410   19.9560    4.3600 C.ar      1 AH1500      0.0000 
     18 C18        16.1120   19.3650    4.6200 C.ar      1 AH1500      0.0000 
     19 C19        16.8900   18.9310    3.5390 C.ar      1 AH1500      0.0000 
     20 C20        16.4590   19.0590    2.2170 C.ar      1 AH1500      0.0000 
     21 C21        15.2220   19.6500    1.9380 C.ar      1 AH1500      0.0000 
     22 C22        14.3990   20.0990    3.0000 C.ar      1 AH1500      0.0000 
     23 C23        14.6030   23.2930    7.1160 C.3       1 AH1500      0.0000 
     24 O24        14.7440   22.4950    8.3370 O.3       1 AH1500      0.0000 
     25 C25        15.7820   21.7740    8.6600 C.ar      1 AH1500      0.0000 
     26 C26        15.6250   20.6030    9.4660 C.ar      1 AH1500      0.0000 
     27 C27        16.7780   19.8550    9.8220 C.ar      1 AH1500      0.0000 
     28 C28        18.0690   20.2700    9.3680 C.ar      1 AH1500      0.0000 
     29 C29        18.2260   21.4180    8.5550 C.ar      1 AH1500      0.0000 
     30 C30        17.0840   22.1670    8.2090 C.ar      1 AH1500      0.0000 
     31 O31        15.7460   24.5390    4.7420 O.3       1 AH1500      0.0000 
     32 O32        13.5500   25.8400    3.9840 O.3       1 AH1500      0.0000 
     33 C33        11.8320   23.4520    3.5150 C.3       1 AH1500      0.0000 
     34 O34        10.4610   23.1350    3.0630 O.3       1 AH1500      0.0000 
     35 C35         9.5240   24.0830    2.7470 C.ar      1 AH1500      0.0000 
     36 C36         9.9090   25.3270    2.2310 C.ar      1 AH1500      0.0000 
     37 C37         8.9450   26.3100    1.8800 C.ar      1 AH1500      0.0000 
     38 C38         7.5650   26.0600    2.0520 C.ar      1 AH1500      0.0000 
     39 C39         7.1750   24.8090    2.5880 C.ar      1 AH1500      0.0000 
     40 C40         8.1710   23.8260    2.9270 C.ar      1 AH1500      0.0000 
     41 H          15.5766   22.1605    5.6269 H         1 AH1500      0.0000 
     42 H          14.4133   23.3786    3.7231 H         1 AH1500      0.0000 
     43 H          13.5648   25.2463    5.9360 H         1 AH1500      0.0000 
     44 H          11.2909   25.0615    4.8366 H         1 AH1500      0.0000 
     45 H          10.2890   22.8301    7.4611 H         1 AH1500      0.0000 
     46 H           9.6133   23.4390    5.9404 H         1 AH1500      0.0000 
     47 H           8.4603   25.3784    6.3248 H         1 AH1500      0.0000 
     48 H           8.2141   27.5828    7.2895 H         1 AH1500      0.0000 
     49 H           9.9055   28.4547    8.7889 H         1 AH1500      0.0000 
     50 H          11.8354   27.0668    9.3336 H         1 AH1500      0.0000 
     51 H          12.0578   24.8743    8.3854 H         1 AH1500      0.0000 
     52 H          13.0073   19.6962    5.4462 H         1 AH1500      0.0000 
     53 H          14.4203   20.0236    6.4643 H         1 AH1500      0.0000 
     54 H          16.4369   19.2657    5.5741 H         1 AH1500      0.0000 
     55 H          17.8175   18.5001    3.7289 H         1 AH1500      0.0000 
     56 H          17.0489   18.7198    1.4490 H         1 AH1500      0.0000 
     57 H          14.9058   19.7611    0.9729 H         1 AH1500      0.0000 
     58 H          13.4956   20.5229    2.8099 H         1 AH1500      0.0000 
     59 H          13.6287   23.8951    7.1816 H         1 AH1500      0.0000 
     60 H          15.3840   24.1331    7.1344 H         1 AH1500      0.0000 
     61 H          14.7077   20.3171    9.7742 H         1 AH1500      0.0000 
     62 H          16.6906   19.0227   10.4002 H         1 AH1500      0.0000 
     63 H          18.8925   19.7215    9.6399 H         1 AH1500      0.0000 
     64 H          19.1445   21.6937    8.2292 H         1 AH1500      0.0000 
     65 H          17.1748   23.0057    7.6274 H         1 AH1500      0.0000 
     66 H          12.4243   22.5076    3.6418 H         1 AH1500      0.0000 
     67 H          12.3802   24.0180    2.7163 H         1 AH1500      0.0000 
     68 H          10.9084   25.5418    2.1002 H         1 AH1500      0.0000 
     69 H           9.2571   27.2080    1.4986 H         1 AH1500      0.0000 
     70 H           6.8772   26.7514    1.8008 H         1 AH1500      0.0000 
     71 H           6.1925   24.5941    2.7378 H         1 AH1500      0.0000 
     72 H           7.8527   22.9249    3.3075 H         1 AH1500      0.0000 
     73 H          15.8387   24.9718    3.8453 H         1 AH1500      0.0000 
     74 H          14.4424   26.2584    4.1535 H         1 AH1500      0.0000 
@<TRIPOS>BOND
     1    2    1 am   
     2    7    1 1    
     3    8    1 1    
     4    3    2 am   
     5   15    2 2    
     6    4    3 1    
     7   16    3 1    
     8    5    4 1    
     9   23    4 1    
    10   41    4 1    
    11    6    5 1    
    12   31    5 1    
    13   42    5 1    
    14    7    6 1    
    15   32    6 1    
    16   43    6 1    
    17   33    7 1    
    18   44    7 1    
    19    9    8 1    
    20   45    8 1    
    21   46    8 1    
    22   10    9 ar   
    23   14    9 ar   
    24   11   10 ar   
    25   47   10 1    
    26   12   11 ar   
    27   48   11 1    
    28   13   12 ar   
    29   49   12 1    
    30   14   13 ar   
    31   50   13 1    
    32   51   14 1    
    33   17   16 1    
    34   52   16 1    
    35   53   16 1    
    36   18   17 ar   
    37   22   17 ar   
    38   19   18 ar   
    39   54   18 1    
    40   20   19 ar   
    41   55   19 1    
    42   21   20 ar   
    43   56   20 1    
    44   22   21 ar   
    45   57   21 1    
    46   58   22 1    
    47   24   23 1    
    48   59   23 1    
    49   60   23 1    
    50   25   24 1    
    51   26   25 ar   
    52   30   25 ar   
    53   27   26 ar   
    54   61   26 1    
    55   28   27 ar   
    56   62   27 1    
    57   29   28 ar   
    58   63   28 1    
    59   30   29 ar   
    60   64   29 1    
    61   65   30 1    
    62   73   31 1    
    63   74   32 1    
    64   34   33 1    
    65   66   33 1    
    66   67   33 1    
    67   35   34 1    
    68   36   35 ar   
    69   40   35 ar   
    70   37   36 ar   
    71   68   36 1    
    72   38   37 ar   
    73   69   37 1    
    74   39   38 ar   
    75   70   38 1    
    76   40   39 ar   
    77   71   39 1    
    78   72   40 1    
@<TRIPOS>SUBSTRUCTURE
     1 AH1500      1 GROUP   
@<TRIPOS>SET

