#    Name: 1rz1_FAD_13_INTS_M
#    Modification time : Tue Mar 25 01:40:31 2014

@<TRIPOS>MOLECULE
1rz1_FAD_13_INTS_M
   87     0    12     0     0
SMALL
NO_CHARGES


@<TRIPOS>ATOM
      1 NZ         10.3560  -52.6675   41.3565 N.4       3 LYC4        0.0000 
      2 NZ         10.0970  -51.2640   41.3940 N.4      11 LYL4        0.0000 
      3 NZ         10.6150  -54.0710   41.3190 N.4       7 LYP4        0.0000 
      4 N          10.3560  -52.6675   41.3565 N.am      2 SEC2        0.0000 
      5 N          10.0970  -51.2640   41.3940 N.am     10 SEL2        0.0000 
      6 N          10.6150  -54.0710   41.3190 N.am      6 SEP2        0.0000 
      7 NZ         11.5515  -52.3975   41.4815 N.4       3 LYC4        0.0000 
      8 NZ         12.4880  -50.7240   41.6440 N.4      11 LYL4        0.0000 
      9 CA          7.7485  -45.2170   41.8450 C.3       4 GLC5        0.0000 
     10 CA          7.7460  -46.9500   42.8710 C.3      12 GLL5        0.0000 
     11 CA          7.7510  -43.4840   40.8190 C.3       8 GLP5        0.0000 
     12 N           5.9585  -46.2470   38.6830 N.am      2 SEC2        0.0000 
     13 N           5.3500  -46.8820   40.1320 N.am     10 SEL2        0.0000 
     14 N           6.5670  -45.6120   37.2340 N.am      6 SEP2        0.0000 
     15 O           2.4900  -46.5820   38.8225 O.2       1 ALC1        0.0000 
     16 O           2.5360  -45.9110   40.0610 O.2       9 ALL1        0.0000 
     17 O           2.4440  -47.2530   37.5840 O.2       5 ALP1        0.0000 
     18 CA          3.6810  -43.0210   43.6150 C.3       4 GLC5        0.0000 
     19 CA          3.6910  -44.9260   43.3370 C.3      12 GLL5        0.0000 
     20 CA          3.6710  -41.1160   43.8930 C.3       8 GLP5        0.0000 
     21 N           5.9420  -44.4565   43.9530 N.am      2 SEC2        0.0000 
     22 N           4.9540  -45.5000   43.3470 N.am     10 SEL2        0.0000 
     23 N           6.9300  -43.4130   44.5590 N.am      6 SEP2        0.0000 
     24 N          18.5985  -47.6910   34.0525 N.am      2 SEC2        0.0000 
     25 N          18.3990  -46.6650   35.1360 N.am     10 SEL2        0.0000 
     26 N          18.7980  -48.7170   32.9690 N.am      6 SEP2        0.0000 
     27 O          18.7005  -44.4880   33.5540 O.2       1 ALC1        0.0000 
     28 O          18.8660  -44.4770   35.0360 O.2       9 ALL1        0.0000 
     29 O          18.5350  -44.4990   32.0720 O.2       5 ALP1        0.0000 
     30 N          18.6825  -40.8690   35.7440 N.am      2 SEC2        0.0000 
     31 N          19.0950  -42.2110   35.1090 N.am     10 SEL2        0.0000 
     32 N          18.2700  -39.5270   36.3790 N.am      6 SEP2        0.0000 
     33 N          19.4495  -40.8800   34.6725 N.am      2 SEC2        0.0000 
     34 N          19.8040  -39.5490   34.2360 N.am      6 SEP2        0.0000 
     35 N          18.6575  -40.8005   37.1010 N.am      2 SEC2        0.0000 
     36 N          19.0450  -42.0740   37.8230 N.am     10 SEL2        0.0000 
     37 N          20.0805  -40.8475   37.4685 N.am      2 SEC2        0.0000 
     38 N          21.1160  -39.6210   37.1140 N.am      6 SEP2        0.0000 
     39 CA         19.3860  -39.2475   38.5360 C.3       4 GLC5        0.0000 
     40 CA         19.0310  -40.8050   39.8470 C.3      12 GLL5        0.0000 
     41 CA         19.7410  -37.6900   37.2250 C.3       8 GLP5        0.0000 
     42 CA         17.1745  -38.0545   41.2920 C.3       4 GLC5        0.0000 
     43 CA         18.7180  -39.3570   41.8520 C.3      12 GLL5        0.0000 
     44 CA         15.6310  -36.7520   40.7320 C.3       8 GLP5        0.0000 
     45 CA         20.5080  -38.4010   41.9315 C.3       4 GLC5        0.0000 
     46 CA         22.2980  -37.4450   42.0110 C.3       8 GLP5        0.0000 
     47 CA         19.8625  -43.1765   43.8730 C.3       4 GLC5        0.0000 
     48 CA         18.3090  -41.7850   43.4430 C.3      12 GLL5        0.0000 
     49 CA         21.4160  -44.5680   44.3030 C.3       8 GLP5        0.0000 
     50 CA         19.8000  -45.6600   40.4780 C.3       4 GLC5        0.0000 
     51 CA         18.0370  -45.6420   39.9320 C.3      12 GLL5        0.0000 
     52 CA         21.5630  -45.6780   41.0240 C.3       8 GLP5        0.0000 
     53 O          15.6620  -43.9410   39.1115 O.2       1 ALC1        0.0000 
     54 O          15.7810  -44.8460   40.0240 O.2       9 ALL1        0.0000 
     55 O          15.5430  -43.0360   38.1990 O.2       5 ALP1        0.0000 
     56 N          11.7525  -50.2310   35.7905 N.am      2 SEC2        0.0000 
     57 N          12.1080  -49.6810   37.0960 N.am     10 SEL2        0.0000 
     58 N          11.3970  -50.7810   34.4850 N.am      6 SEP2        0.0000 
     59 N          13.2465  -51.9330   37.1455 N.am      2 SEC2        0.0000 
     60 N          13.5600  -51.2060   38.4610 N.am     10 SEL2        0.0000 
     61 N          12.9330  -52.6600   35.8300 N.am      6 SEP2        0.0000 
     62 CA         10.5465  -45.7223   42.4913 C.3       4 GLC5        0.0000 
     63 CA         11.1330  -48.0050   42.0640 C.3      12 GLL5        0.0000 
     64 CA         10.5470  -43.6800   42.4930 C.3       8 GLP5        0.0000 
     65 CA         11.4073  -47.9004   44.2551 C.3       4 GLC5        0.0000 
     66 CA          9.9590  -47.5240   42.9150 C.3      12 GLL5        0.0000 
     67 CA         12.9160  -47.6010   45.4360 C.3       8 GLP5        0.0000 
     68 CA         16.9910  -40.9217   40.1525 C.3       4 GLC5        0.0000 
     69 CA         18.8670  -42.0200   39.1910 C.3      12 GLL5        0.0000 
     70 CA         15.0330  -40.4310   40.7860 C.3       8 GLP5        0.0000 
     71 CA         17.6360  -41.1917   38.0370 C.3       4 GLC5        0.0000 
     72 CA         16.3230  -40.9710   36.5550 C.3       8 GLP5        0.0000 
     73 CA         16.9145  -40.2345   41.1640 C.3       4 GLC5        0.0000 
     74 CA         18.8740  -40.7190   41.2320 C.3      12 GLL5        0.0000 
     75 CA         16.7212  -41.4457   41.3935 C.3       4 GLC5        0.0000 
     76 CA         18.5530  -41.8710   41.9630 C.3      12 GLL5        0.0000 
     77 CA         16.7927  -43.1043   42.8695 C.3       4 GLC5        0.0000 
     78 CA         15.1760  -43.7480   43.7380 C.3       8 GLP5        0.0000 
     79 CA         20.0140  -44.4057   40.8113 C.3       4 GLC5        0.0000 
     80 CA         18.3880  -43.0930   41.2990 C.3      12 GLL5        0.0000 
     81 CA         16.4575  -46.6908   38.3063 C.3       4 GLC5        0.0000 
     82 CA         15.6200  -47.5640   36.7600 C.3       8 GLP5        0.0000 
     83 CA         14.8547  -45.9324   41.8215 C.3       4 GLC5        0.0000 
     84 CA         14.7480  -47.6830   40.6150 C.3      12 GLL5        0.0000 
     85 CA         14.1460  -44.7270   43.2220 C.3       8 GLP5        0.0000 
     86 CA         15.3066  -47.8109   38.4115 C.3       4 GLC5        0.0000 
     87 CA         16.2050  -47.1920   40.6810 C.3      12 GLL5        0.0000 
@<TRIPOS>BOND
@<TRIPOS>SUBSTRUCTURE
     1 ALC1       15 GROUP        1 X    ALC  0     ROOT ALC X 1
     2 SEC2        4 GROUP        1 X    SEC  0     **** SEC X 2
     3 LYC4        1 GROUP        1 X    LYC  0     **** LYC X 4
     4 GLC5        9 GROUP        1 X    GLC  0     **** GLC X 6
     5 ALP1       17 GROUP        1 Y    ALP  0     ROOT ALP Y 8
     6 SEP2        6 GROUP        1 Y    SEP  0     **** SEP Y 9
     7 LYP4        3 GROUP        1 Y    LYP  0     **** LYP Y 11
     8 GLP5       11 GROUP        1 Y    GLP  0     **** GLP Y 13
     9 ALL1       16 GROUP        1 Z    ALL  0     ROOT ALL Z 15
    10 SEL2        5 GROUP        1 Z    SEL  0     **** SEL Z 16
    11 LYL4        2 GROUP        1 Z    LYL  0     **** LYL Z 18
    12 GLL5       10 GROUP        1 Z    GLL  0     **** GLL Z 20
@<TRIPOS>SET

