#    Name: 1rz1_FAD_13_ligand
#    Modification time : Tue Mar 25 01:40:31 2014

@<TRIPOS>MOLECULE
1rz1_FAD_13_ligand
   84    89     1     0     0
SMALL
NO_CHARGES


@<TRIPOS>ATOM
      1 PA         11.1730  -50.3910   40.9230 P.3       1 FAD7200     0.0000 
      2 O1A        10.0970  -51.2640   41.3940 O.co2     1 FAD7200     0.0000 
      3 O2A        12.4880  -50.7240   41.6440 O.co2     1 FAD7200     0.0000 
      4 O5B        10.6830  -48.8590   41.0560 O.3       1 FAD7200     0.0000 
      5 C5B        11.1330  -48.0050   42.0640 C.3       1 FAD7200     0.0000 
      6 C4B         9.9590  -47.5240   42.9150 C.3       1 FAD7200     0.0000 
      7 O4B         8.9740  -46.8170   42.1810 O.3       1 FAD7200     0.0000 
      8 C3B         9.2510  -48.6350   43.6590 C.3       1 FAD7200     0.0000 
      9 O3B         9.5920  -48.5150   45.0170 O.3       1 FAD7200     0.0000 
     10 C2B         7.7780  -48.3530   43.4470 C.3       1 FAD7200     0.0000 
     11 O2B         7.0560  -48.4030   44.6510 O.3       1 FAD7200     0.0000 
     12 C1B         7.7460  -46.9500   42.8710 C.3       1 FAD7200     0.0000 
     13 N9A         6.6100  -46.7850   41.9490 N.pl3     1 FAD7200     0.0000 
     14 C8A         6.5410  -47.2310   40.6570 C.2       1 FAD7200     0.0000 
     15 N7A         5.3500  -46.8820   40.1320 N.2       1 FAD7200     0.0000 
     16 C5A         4.6480  -46.2140   41.0770 C.ar      1 FAD7200     0.0000 
     17 C6A         3.3720  -45.6460   41.0680 C.ar      1 FAD7200     0.0000 
     18 N6A         2.5360  -45.9110   40.0610 N.pl3     1 FAD7200     0.0000 
     19 N1A         2.9020  -45.0010   42.1950 N.ar      1 FAD7200     0.0000 
     20 C2A         3.6910  -44.9260   43.3370 C.ar      1 FAD7200     0.0000 
     21 N3A         4.9540  -45.5000   43.3470 N.ar      1 FAD7200     0.0000 
     22 C4A         5.4250  -46.1420   42.2300 C.ar      1 FAD7200     0.0000 
     23 N1         18.3720  -45.5920   37.1200 N.2       1 FAD7200     0.0000 
     24 C2         18.5400  -45.6140   35.7440 C.2       1 FAD7200     0.0000 
     25 O2         18.3990  -46.6650   35.1360 O.2       1 FAD7200     0.0000 
     26 N3         18.8660  -44.4770   35.0360 N.am      1 FAD7200     0.0000 
     27 C4         19.0230  -43.2710   35.7250 C.2       1 FAD7200     0.0000 
     28 O4         19.0950  -42.2110   35.1090 O.2       1 FAD7200     0.0000 
     29 C4X        18.8740  -43.2520   37.1210 C.2       1 FAD7200     0.0000 
     30 N5         19.0450  -42.0740   37.8230 N.2       1 FAD7200     0.0000 
     31 C5X        18.8670  -42.0200   39.1910 C.ar      1 FAD7200     0.0000 
     32 C6         19.0310  -40.8050   39.8470 C.ar      1 FAD7200     0.0000 
     33 C7         18.8740  -40.7190   41.2320 C.ar      1 FAD7200     0.0000 
     34 C7M        18.7180  -39.3570   41.8520 C.3       1 FAD7200     0.0000 
     35 C8         18.5530  -41.8710   41.9630 C.ar      1 FAD7200     0.0000 
     36 C8M        18.3090  -41.7850   43.4430 C.3       1 FAD7200     0.0000 
     37 C9         18.3880  -43.0930   41.2990 C.ar      1 FAD7200     0.0000 
     38 C9A        18.5420  -43.1740   39.8980 C.ar      1 FAD7200     0.0000 
     39 N10        18.3890  -44.3800   39.1970 N.pl3     1 FAD7200     0.0000 
     40 C10        18.5460  -44.4200   37.8180 C.2       1 FAD7200     0.0000 
     41 C1'        18.0370  -45.6420   39.9320 C.3       1 FAD7200     0.0000 
     42 C2'        16.5530  -45.9930   39.7730 C.3       1 FAD7200     0.0000 
     43 O2'        15.7810  -44.8460   40.0240 O.3       1 FAD7200     0.0000 
     44 C3'        16.2050  -47.1920   40.6810 C.3       1 FAD7200     0.0000 
     45 O3'        17.0920  -48.2410   40.3530 O.3       1 FAD7200     0.0000 
     46 C4'        14.7480  -47.6830   40.6150 C.3       1 FAD7200     0.0000 
     47 O4'        14.3680  -48.3100   41.8260 O.3       1 FAD7200     0.0000 
     48 C5'        14.5100  -48.6780   39.4780 C.3       1 FAD7200     0.0000 
     49 O5'        13.1220  -48.7650   39.1960 O.3       1 FAD7200     0.0000 
     50 P          12.5350  -50.0610   38.4530 P.3       1 FAD7200     0.0000 
     51 O1P        12.1080  -49.6810   37.0960 O.co2     1 FAD7200     0.0000 
     52 O2P        13.5600  -51.2060   38.4610 O.co2     1 FAD7200     0.0000 
     53 O3P        11.2500  -50.5030   39.3190 O.3       1 FAD7200     0.0000 
     54 H          11.6343  -47.1078   41.6641 H         1 FAD7200     0.0000 
     55 H          11.8486  -48.4959   42.7444 H         1 FAD7200     0.0000 
     56 H          10.3761  -46.8477   43.6984 H         1 FAD7200     0.0000 
     57 H           9.5037  -49.5517   43.2242 H         1 FAD7200     0.0000 
     58 H           7.4138  -49.0215   42.6981 H         1 FAD7200     0.0000 
     59 H           7.6831  -46.2607   43.6848 H         1 FAD7200     0.0000 
     60 H           7.2424  -47.7184   40.2035 H         1 FAD7200     0.0000 
     61 H           1.8548  -45.2076   39.8580 H         1 FAD7200     0.0000 
     62 H           2.6662  -46.7890   39.6004 H         1 FAD7200     0.0000 
     63 H           3.3371  -44.4443   44.1746 H         1 FAD7200     0.0000 
     64 H          18.9929  -44.5062   34.0221 H         1 FAD7200     0.0000 
     65 H          19.2706  -39.9587   39.3086 H         1 FAD7200     0.0000 
     66 H          18.1532  -43.9393   41.8308 H         1 FAD7200     0.0000 
     67 H          18.2567  -45.5255   40.9978 H         1 FAD7200     0.0000 
     68 H          18.6362  -46.4744   39.5502 H         1 FAD7200     0.0000 
     69 H          16.4311  -46.3331   38.7333 H         1 FAD7200     0.0000 
     70 H          16.3994  -46.8677   41.7200 H         1 FAD7200     0.0000 
     71 H          14.1122  -46.8144   40.4231 H         1 FAD7200     0.0000 
     72 H          14.9276  -49.6438   39.7904 H         1 FAD7200     0.0000 
     73 H          15.0853  -48.3321   38.6095 H         1 FAD7200     0.0000 
     74 H          19.5114  -38.7748   41.6740 H         1 FAD7200     0.0000 
     75 H          17.9163  -38.8767   41.4963 H         1 FAD7200     0.0000 
     76 H          18.6109  -39.4109   42.8448 H         1 FAD7200     0.0000 
     77 H          19.1095  -41.4384   43.9319 H         1 FAD7200     0.0000 
     78 H          17.5468  -41.1747   43.6589 H         1 FAD7200     0.0000 
     79 H          18.0897  -42.6781   43.8358 H         1 FAD7200     0.0000 
     80 H           8.7270  -48.3367   45.4862 H         1 FAD7200     0.0000 
     81 H           6.3532  -47.6974   44.5606 H         1 FAD7200     0.0000 
     82 H          15.8320  -44.3103   39.1811 H         1 FAD7200     0.0000 
     83 H          17.0444  -48.3181   39.3571 H         1 FAD7200     0.0000 
     84 H          13.7861  -49.0749   41.5498 H         1 FAD7200     0.0000 
@<TRIPOS>BOND
     1    2    1 ar   
     2    3    1 ar   
     3    4    1 1    
     4   53    1 1    
     5    5    4 1    
     6    6    5 1    
     7   54    5 1    
     8   55    5 1    
     9    7    6 1    
    10    8    6 1    
    11   56    6 1    
    12   12    7 1    
    13    9    8 1    
    14   10    8 1    
    15   57    8 1    
    16   80    9 1    
    17   11   10 1    
    18   12   10 1    
    19   58   10 1    
    20   81   11 1    
    21   13   12 1    
    22   59   12 1    
    23   14   13 1    
    24   22   13 1    
    25   15   14 2    
    26   60   14 1    
    27   16   15 1    
    28   17   16 ar   
    29   22   16 ar   
    30   18   17 1    
    31   19   17 ar   
    32   61   18 1    
    33   62   18 1    
    34   20   19 ar   
    35   21   20 ar   
    36   63   20 1    
    37   22   21 ar   
    38   24   23 1    
    39   40   23 2    
    40   25   24 2    
    41   26   24 am   
    42   27   26 am   
    43   64   26 1    
    44   28   27 2    
    45   29   27 1    
    46   30   29 2    
    47   40   29 1    
    48   31   30 1    
    49   32   31 ar   
    50   38   31 ar   
    51   33   32 ar   
    52   65   32 1    
    53   34   33 1    
    54   35   33 ar   
    55   74   34 1    
    56   75   34 1    
    57   76   34 1    
    58   36   35 1    
    59   37   35 ar   
    60   77   36 1    
    61   78   36 1    
    62   79   36 1    
    63   38   37 ar   
    64   66   37 1    
    65   39   38 1    
    66   40   39 1    
    67   41   39 1    
    68   42   41 1    
    69   67   41 1    
    70   68   41 1    
    71   43   42 1    
    72   44   42 1    
    73   69   42 1    
    74   82   43 1    
    75   45   44 1    
    76   46   44 1    
    77   70   44 1    
    78   83   45 1    
    79   47   46 1    
    80   48   46 1    
    81   71   46 1    
    82   84   47 1    
    83   49   48 1    
    84   72   48 1    
    85   73   48 1    
    86   50   49 1    
    87   51   50 ar   
    88   52   50 ar   
    89   53   50 1    
@<TRIPOS>SUBSTRUCTURE
     1 FAD7200     1 GROUP   
@<TRIPOS>SET

