#    Name: 3hv6_R39_1_INTS_M
#    Modification time : Tue Mar 25 15:07:20 2014

@<TRIPOS>MOLECULE
3hv6_R39_1_INTS_M
   97     0     9     0     0
SMALL
NO_CHARGES


@<TRIPOS>ATOM
      1 CA         -4.2685    3.6255  -24.2045 C.3       3 GLC5        0.0000 
      2 CA         -2.5000    2.9230  -23.8370 C.3       9 GLL5        0.0000 
      3 CA         -6.0370    4.3280  -24.5720 C.3       6 GLP5        0.0000 
      4 CA         -1.8340    4.8425  -23.7515 C.3       3 GLC5        0.0000 
      5 CA         -1.1680    6.7620  -23.6660 C.3       6 GLP5        0.0000 
      6 N          -2.1070    4.9125  -22.9195 N.am      2 SEC2        0.0000 
      7 N          -1.8250    3.6180  -22.7580 N.am      8 SEL2        0.0000 
      8 N          -2.3890    6.2070  -23.0810 N.am      5 SEP2        0.0000 
      9 CA         -1.5510    3.0945  -19.2785 C.3       3 GLC5        0.0000 
     10 CA         -1.9950    3.0320  -21.4490 C.3       9 GLL5        0.0000 
     11 CA         -1.1070    3.1570  -17.1080 C.3       6 GLP5        0.0000 
     12 CA         -3.3585    4.6415  -21.8920 C.3       3 GLC5        0.0000 
     13 CA         -4.7220    6.2510  -22.3350 C.3       6 GLP5        0.0000 
     14 CA         -0.9480    4.5935  -21.4785 C.3       3 GLC5        0.0000 
     15 CA          0.0990    6.1550  -21.5080 C.3       6 GLP5        0.0000 
     16 CA          0.1675    3.2350  -21.7435 C.3       3 GLC5        0.0000 
     17 CA          2.3300    3.4380  -22.0380 C.3       6 GLP5        0.0000 
     18 CA         -4.7290    2.0340  -21.3730 C.3       3 GLC5        0.0000 
     19 CA         -2.8370    1.7390  -21.4820 C.3       9 GLL5        0.0000 
     20 CA         -6.6210    2.3290  -21.2640 C.3       6 GLP5        0.0000 
     21 CA         -5.2985   -0.7505  -22.8700 C.3       3 GLC5        0.0000 
     22 CA         -3.3900   -0.1850  -22.8440 C.3       9 GLL5        0.0000 
     23 CA         -7.2070   -1.3160  -22.8960 C.3       6 GLP5        0.0000 
     24 CA         -5.0055    1.0720  -22.0540 C.3       3 GLC5        0.0000 
     25 CA         -4.8730   -2.4795  -22.0040 C.3       3 GLC5        0.0000 
     26 CA         -3.1890   -1.3750  -21.9200 C.3       9 GLL5        0.0000 
     27 CA         -6.5570   -3.5840  -22.0880 C.3       6 GLP5        0.0000 
     28 CA         -0.8570   -1.0515  -19.7395 C.3       3 GLC5        0.0000 
     29 CA         -2.4360   -2.6340  -19.6090 C.3       9 GLL5        0.0000 
     30 CA          0.7220    0.5310  -19.8700 C.3       6 GLP5        0.0000 
     31 O          -2.5950   -4.5150  -15.2535 O.2       1 ALC1        0.0000 
     32 O          -2.1420   -3.3900  -16.0330 O.2       7 ALL1        0.0000 
     33 O          -3.0480   -5.6400  -14.4740 O.2       4 ALP1        0.0000 
     34 N           1.1610   -2.8280  -16.5755 N.am      2 SEC2        0.0000 
     35 N          -0.1320   -2.4430  -16.0430 N.am      8 SEL2        0.0000 
     36 N           2.4540   -3.2130  -17.1080 N.am      5 SEP2        0.0000 
     37 O          -1.8425   -4.7840  -14.4425 O.2       1 ALC1        0.0000 
     38 O          -0.6370   -3.9280  -14.4110 O.2       7 ALL1        0.0000 
     39 CA          0.9950   -1.0115  -14.0340 C.3       3 GLC5        0.0000 
     40 CA          1.3860   -2.8170  -13.5950 C.3       9 GLL5        0.0000 
     41 CA          0.6040    0.7940  -14.4730 C.3       6 GLP5        0.0000 
     42 CA          2.2220   -1.8255  -15.3135 C.3       3 GLC5        0.0000 
     43 CA          3.0580   -0.8340  -17.0320 C.3       6 GLP5        0.0000 
     44 CA          5.6350   -3.7740   -9.7255 C.3       3 GLC5        0.0000 
     45 CA          4.6380   -3.5080  -11.6490 C.3       9 GLL5        0.0000 
     46 CA          6.6320   -4.0400   -7.8020 C.3       6 GLP5        0.0000 
     47 CA          4.1235    0.1960  -12.7200 C.3       3 GLC5        0.0000 
     48 CA          4.3450   -1.8880  -13.4730 C.3       9 GLL5        0.0000 
     49 CA          3.9020    2.2800  -11.9670 C.3       6 GLP5        0.0000 
     50 CA          5.9280   -0.7765  -12.4860 C.3       3 GLC5        0.0000 
     51 CA          7.5110    0.3350  -11.4990 C.3       6 GLP5        0.0000 
     52 CA          5.7000   -0.9765  -14.5085 C.3       3 GLC5        0.0000 
     53 CA          7.0550   -0.0650  -15.5440 C.3       6 GLP5        0.0000 
     54 CA          3.7015   -1.3610  -15.2525 C.3       3 GLC5        0.0000 
     55 CA          3.7250   -3.6160  -14.7410 C.3       3 GLC5        0.0000 
     56 CA          3.1050   -5.3440  -16.0090 C.3       6 GLP5        0.0000 
     57 CA          2.4730   -2.9020   -9.6510 C.3       3 GLC5        0.0000 
     58 CA          3.2070   -1.5190  -11.2450 C.3       9 GLL5        0.0000 
     59 CA          1.7390   -4.2850   -8.0570 C.3       6 GLP5        0.0000 
     60 CA          2.5425   -0.2295  -10.1130 C.3       3 GLC5        0.0000 
     61 CA          1.8780    1.0600   -8.9810 C.3       6 GLP5        0.0000 
     62 CA          3.5545    0.3805  -11.6060 C.3       3 GLC5        0.0000 
     63 CA         -2.1650  -11.4825  -12.3335 C.3       3 GLC5        0.0000 
     64 CA         -1.1240  -10.1370  -12.4780 C.3       9 GLL5        0.0000 
     65 CA         -3.2060  -12.8280  -12.1890 C.3       6 GLP5        0.0000 
     66 CA         -0.1900  -10.4645  -10.4865 C.3       3 GLC5        0.0000 
     67 CA          0.7440  -10.7920   -8.4950 C.3       6 GLP5        0.0000 
     68 CA         -0.0550   -8.8670   -9.6320 C.3       3 GLC5        0.0000 
     69 CA         -0.0720   -8.0510  -11.5060 C.3       9 GLL5        0.0000 
     70 CA         -0.0380   -9.6830   -7.7580 C.3       6 GLP5        0.0000 
     71 CA         -1.4545   -6.3850  -11.9220 C.3       3 GLC5        0.0000 
     72 CA          0.4600   -6.7570  -11.6530 C.3       9 GLL5        0.0000 
     73 CA         -3.3690   -6.0130  -12.1910 C.3       6 GLP5        0.0000 
     74 CA         -0.8470    1.4583  -20.6678 C.3       3 GLC5        0.0000 
     75 CA         -2.3558   -1.9935  -23.0370 C.3       3 GLC5        0.0000 
     76 CA         -1.4220   -3.2070  -23.6920 C.3       6 GLP5        0.0000 
     77 CA         -4.3108    0.1895  -16.7347 C.3       3 GLC5        0.0000 
     78 CA         -3.8830   -1.1840  -18.3690 C.3       9 GLL5        0.0000 
     79 CA         -4.9440    1.8530  -15.6990 C.3       6 GLP5        0.0000 
     80 CA         -4.5870   -3.7305  -17.4020 C.3       3 GLC5        0.0000 
     81 CA         -3.4720   -1.7640  -17.1720 C.3       9 GLL5        0.0000 
     82 CA         -6.1600   -5.1870  -17.6300 C.3       6 GLP5        0.0000 
     83 CA         -0.9018   -4.4812  -19.4835 C.3       3 GLC5        0.0000 
     84 CA         -2.0430   -3.2130  -18.4010 C.3       9 GLL5        0.0000 
     85 CA          0.4360   -6.0390  -19.9620 C.3       6 GLP5        0.0000 
     86 CA         -0.3790   -2.1355  -12.9863 C.3       3 GLC5        0.0000 
     87 CA          0.5380   -3.8750  -13.7500 C.3       9 GLL5        0.0000 
     88 CA         -1.7200   -0.9250  -12.3000 C.3       6 GLP5        0.0000 
     89 CA          2.0335   -4.3450  -14.8407 C.3       3 GLC5        0.0000 
     90 CA          1.6822   -5.9175  -14.7512 C.3       3 GLC5        0.0000 
     91 CA          0.4970   -6.1460  -12.9340 C.3       9 GLL5        0.0000 
     92 CA         -1.7461   -6.6638  -12.9476 C.3       3 GLC5        0.0000 
     93 CA         -2.0075   -7.9726  -11.6144 C.3       3 GLC5        0.0000 
     94 CA         -0.5560   -8.7220  -12.6410 C.3       9 GLL5        0.0000 
     95 CA         -3.5590   -7.2050  -11.1960 C.3       6 GLP5        0.0000 
     96 CA          1.1140   -6.5650  -10.0612 C.3       3 GLC5        0.0000 
     97 CA          2.0340   -5.7260   -8.5430 C.3       6 GLP5        0.0000 
@<TRIPOS>BOND
@<TRIPOS>SUBSTRUCTURE
     1 ALC1       31 GROUP        1 X    ALC  0     ROOT ALC X 1
     2 SEC2        6 GROUP        1 X    SEC  0     **** SEC X 2
     3 GLC5        1 GROUP        1 X    GLC  0     **** GLC X 6
     4 ALP1       33 GROUP        1 Y    ALP  0     ROOT ALP Y 8
     5 SEP2        8 GROUP        1 Y    SEP  0     **** SEP Y 9
     6 GLP5        3 GROUP        1 Y    GLP  0     **** GLP Y 13
     7 ALL1       32 GROUP        1 Z    ALL  0     ROOT ALL Z 15
     8 SEL2        7 GROUP        1 Z    SEL  0     **** SEL Z 16
     9 GLL5        2 GROUP        1 Z    GLL  0     **** GLL Z 20
@<TRIPOS>SET

