#    Name: 3hv6_R39_1_ligand
#    Modification time : Tue Mar 25 15:07:20 2014

@<TRIPOS>MOLECULE
3hv6_R39_1_ligand
   71    74     1     0     0
SMALL
NO_CHARGES


@<TRIPOS>ATOM
      1 CAR        -2.0120    1.4640  -23.8270 C.3       1 R39361      0.0000 
      2 CAO        -2.5000    2.9230  -23.8370 C.3       1 R39361      0.0000 
      3 OAX        -1.8250    3.6180  -22.7580 O.3       1 R39361      0.0000 
      4 CAP        -1.9950    3.0320  -21.4490 C.3       1 R39361      0.0000 
      5 CAS        -2.8370    1.7390  -21.4820 C.3       1 R39361      0.0000 
      6 NBG        -2.3710    0.8140  -22.5430 N.4       1 R39361      0.0000 
      7 CAT        -3.3900   -0.1850  -22.8440 C.3       1 R39361      0.0000 
      8 CAQ        -3.1890   -1.3750  -21.9200 C.3       1 R39361      0.0000 
      9 OAY        -3.8340   -0.9690  -20.6960 O.3       1 R39361      0.0000 
     10 CBC        -3.3700   -1.6020  -19.5830 C.ar      1 R39361      0.0000 
     11 CAK        -3.8830   -1.1840  -18.3690 C.ar      1 R39361      0.0000 
     12 CAI        -3.4720   -1.7640  -17.1720 C.ar      1 R39361      0.0000 
     13 CAJ        -2.4360   -2.6340  -19.6090 C.ar      1 R39361      0.0000 
     14 CAH        -2.0430   -3.2130  -18.4010 C.ar      1 R39361      0.0000 
     15 CBB        -2.5560   -2.7840  -17.1760 C.ar      1 R39361      0.0000 
     16 NAV        -2.1420   -3.3900  -16.0330 N.am      1 R39361      0.0000 
     17 CAZ        -0.9300   -3.2360  -15.5310 C.2       1 R39361      0.0000 
     18 OAE        -0.1320   -2.4430  -16.0430 O.2       1 R39361      0.0000 
     19 NAW        -0.6370   -3.9280  -14.4110 N.am      1 R39361      0.0000 
     20 CBE         0.5380   -3.8750  -13.7500 C.2       1 R39361      0.0000 
     21 CAN         1.3860   -2.8170  -13.5950 C.2       1 R39361      0.0000 
     22 CBF         2.3730   -3.2910  -12.8130 C.2       1 R39361      0.0000 
     23 CBI         3.6330   -2.5570  -12.3120 C.3       1 R39361      0.0000 
     24 CAC         4.6380   -3.5080  -11.6490 C.3       1 R39361      0.0000 
     25 CAD         4.3450   -1.8880  -13.4730 C.3       1 R39361      0.0000 
     26 CAB         3.2070   -1.5190  -11.2450 C.3       1 R39361      0.0000 
     27 NAU         2.1160   -4.5740  -12.5110 N.2       1 R39361      0.0000 
     28 NBH         1.0390   -4.9030  -13.0540 N.pl3     1 R39361      0.0000 
     29 CBD         0.4970   -6.1460  -12.9340 C.ar      1 R39361      0.0000 
     30 CAL         0.0220   -6.8360  -14.0530 C.ar      1 R39361      0.0000 
     31 CAF        -0.5060   -8.1380  -13.9150 C.ar      1 R39361      0.0000 
     32 CBA        -0.5560   -8.7220  -12.6410 C.ar      1 R39361      0.0000 
     33 CAA        -1.1240  -10.1370  -12.4780 C.3       1 R39361      0.0000 
     34 CAG        -0.0720   -8.0510  -11.5060 C.ar      1 R39361      0.0000 
     35 CAM         0.4600   -6.7570  -11.6530 C.ar      1 R39361      0.0000 
     36 H          -0.9313    1.4626  -23.9680 H         1 R39361      0.0000 
     37 H          -2.4754    0.9413  -24.6636 H         1 R39361      0.0000 
     38 H          -3.5746    2.9186  -23.6988 H         1 R39361      0.0000 
     39 H          -2.2572    3.3517  -24.8019 H         1 R39361      0.0000 
     40 H          -2.4954    3.7333  -20.7575 H         1 R39361      0.0000 
     41 H          -1.0210    2.7792  -20.9932 H         1 R39361      0.0000 
     42 H          -3.8828    2.0182  -21.6484 H         1 R39361      0.0000 
     43 H          -2.7665    1.2619  -20.4988 H         1 R39361      0.0000 
     44 H          -1.4779    0.2752  -22.1777 H         1 R39361      0.0000 
     45 H          -3.3086   -0.5283  -23.8735 H         1 R39361      0.0000 
     46 H          -4.3891    0.2146  -22.6816 H         1 R39361      0.0000 
     47 H          -2.1379   -1.5308  -21.7849 H         1 R39361      0.0000 
     48 H          -3.6622   -2.2314  -22.3557 H         1 R39361      0.0000 
     49 H          -4.5889   -0.4228  -18.3452 H         1 R39361      0.0000 
     50 H          -3.8648   -1.4173  -16.2811 H         1 R39361      0.0000 
     51 H          -2.0462   -2.9613  -20.4906 H         1 R39361      0.0000 
     52 H          -1.3478   -3.9864  -18.4145 H         1 R39361      0.0000 
     53 H          -2.8415   -4.0178  -15.5277 H         1 R39361      0.0000 
     54 H          -1.4017   -4.5744  -14.0124 H         1 R39361      0.0000 
     55 H           1.2912   -1.9569  -13.9574 H         1 R39361      0.0000 
     56 H           0.0545   -6.4000  -14.9806 H         1 R39361      0.0000 
     57 H          -0.8442   -8.6417  -14.7304 H         1 R39361      0.0000 
     58 H          -0.1052   -8.4930  -10.5913 H         1 R39361      0.0000 
     59 H           0.8208   -6.2527  -10.8422 H         1 R39361      0.0000 
     60 H           4.9513   -4.2167  -12.2811 H         1 R39361      0.0000 
     61 H           5.4508   -3.0231  -11.3261 H         1 R39361      0.0000 
     62 H           4.2417   -3.9748  -10.8584 H         1 R39361      0.0000 
     63 H           5.1666   -1.4022  -13.1746 H         1 R39361      0.0000 
     64 H           4.6314   -2.5509  -14.1647 H         1 R39361      0.0000 
     65 H           3.7598   -1.2196  -13.9321 H         1 R39361      0.0000 
     66 H           3.9911   -1.0140  -10.8843 H         1 R39361      0.0000 
     67 H           2.5697   -0.8441  -11.6170 H         1 R39361      0.0000 
     68 H           2.7536   -1.9519  -10.4659 H         1 R39361      0.0000 
     69 H          -0.6080  -10.8080  -13.0105 H         1 R39361      0.0000 
     70 H          -1.1011  -10.4389  -11.5249 H         1 R39361      0.0000 
     71 H          -2.0757  -10.1923  -12.7801 H         1 R39361      0.0000 
@<TRIPOS>BOND
     1    2    1 1    
     2    6    1 1    
     3   36    1 1    
     4   37    1 1    
     5    3    2 1    
     6   38    2 1    
     7   39    2 1    
     8    4    3 1    
     9    5    4 1    
    10   40    4 1    
    11   41    4 1    
    12    6    5 1    
    13   42    5 1    
    14   43    5 1    
    15    7    6 1    
    16   44    6 1    
    17    8    7 1    
    18   45    7 1    
    19   46    7 1    
    20    9    8 1    
    21   47    8 1    
    22   48    8 1    
    23   10    9 1    
    24   11   10 ar   
    25   13   10 ar   
    26   12   11 ar   
    27   49   11 1    
    28   15   12 ar   
    29   50   12 1    
    30   14   13 ar   
    31   51   13 1    
    32   15   14 ar   
    33   52   14 1    
    34   16   15 1    
    35   17   16 am   
    36   53   16 1    
    37   18   17 2    
    38   19   17 am   
    39   20   19 1    
    40   54   19 1    
    41   21   20 2    
    42   28   20 1    
    43   22   21 1    
    44   55   21 1    
    45   23   22 1    
    46   27   22 2    
    47   24   23 1    
    48   25   23 1    
    49   26   23 1    
    50   60   24 1    
    51   61   24 1    
    52   62   24 1    
    53   63   25 1    
    54   64   25 1    
    55   65   25 1    
    56   66   26 1    
    57   67   26 1    
    58   68   26 1    
    59   28   27 1    
    60   29   28 1    
    61   30   29 ar   
    62   35   29 ar   
    63   31   30 ar   
    64   56   30 1    
    65   32   31 ar   
    66   57   31 1    
    67   33   32 1    
    68   34   32 ar   
    69   69   33 1    
    70   70   33 1    
    71   71   33 1    
    72   35   34 ar   
    73   58   34 1    
    74   59   35 1    
@<TRIPOS>SUBSTRUCTURE
     1 R39361      1 GROUP   
@<TRIPOS>SET

