#    Name: 1t09_NAP_1_INTS_M
#    Modification time : Tue Mar 25 04:03:03 2014

@<TRIPOS>MOLECULE
1t09_NAP_1_INTS_M
   83     0    12     0     0
SMALL
NO_CHARGES


@<TRIPOS>ATOM
      1 N          52.6770   15.8305  -15.5610 N.am      2 SEC2        0.0000 
      2 N          52.8770   16.7800  -14.3150 N.am     10 SEL2        0.0000 
      3 N          52.4770   14.8810  -16.8070 N.am      6 SEP2        0.0000 
      4 N          53.2255   16.0865  -16.6550 N.am      2 SEC2        0.0000 
      5 N          53.9740   17.2920  -16.5030 N.am     10 SEL2        0.0000 
      6 N          54.1500   18.0085  -17.7980 N.am      2 SEC2        0.0000 
      7 N          54.3260   18.7250  -19.0930 N.am      6 SEP2        0.0000 
      8 CA         57.7690   19.4505  -16.1965 C.3       4 GLC5        0.0000 
      9 CA         57.5440   19.7810  -14.1470 C.3      12 GLL5        0.0000 
     10 CA         57.9940   19.1200  -18.2460 C.3       8 GLP5        0.0000 
     11 CA         57.0960   16.2600  -12.4920 C.3       4 GLC5        0.0000 
     12 CA         58.5290   17.6850  -13.4650 C.3      12 GLL5        0.0000 
     13 CA         55.6630   14.8350  -11.5190 C.3       8 GLP5        0.0000 
     14 CA         57.1990   14.3240  -16.7600 C.3       4 GLC5        0.0000 
     15 CA         59.0270   15.5330  -16.3180 C.3      12 GLL5        0.0000 
     16 CA         55.3710   13.1150  -17.2020 C.3       8 GLP5        0.0000 
     17 CA         60.2440   15.8330  -18.8845 C.3       4 GLC5        0.0000 
     18 CA         59.9150   14.9570  -17.2940 C.3      12 GLL5        0.0000 
     19 CA         60.5730   16.7090  -20.4750 C.3       8 GLP5        0.0000 
     20 CA         61.4195   13.7210  -17.6005 C.3       4 GLC5        0.0000 
     21 CA         62.9240   12.4850  -17.9070 C.3       8 GLP5        0.0000 
     22 O          60.1400   13.3445  -19.1805 O.2       1 ALC1        0.0000 
     23 O          59.4240   14.1160  -18.2050 O.2       9 ALL1        0.0000 
     24 O          60.8560   12.5730  -20.1560 O.2       5 ALP1        0.0000 
     25 N          62.0540   14.8790  -18.2885 N.am      2 SEC2        0.0000 
     26 N          61.2170   15.3290  -17.1950 N.am     10 SEL2        0.0000 
     27 N          62.8910   14.4290  -19.3820 N.am      6 SEP2        0.0000 
     28 CA         62.3400   16.4310  -18.2655 C.3       4 GLC5        0.0000 
     29 CA         61.6290   16.2050  -16.2160 C.3      12 GLL5        0.0000 
     30 CA         63.0510   16.6570  -20.3150 C.3       8 GLP5        0.0000 
     31 CA         62.2765   14.3450  -17.0615 C.3       4 GLC5        0.0000 
     32 CA         63.0830   15.7135  -15.0025 C.3       4 GLC5        0.0000 
     33 CA         64.5370   15.2220  -13.7890 C.3       8 GLP5        0.0000 
     34 CA         58.7830   17.7540  -16.8250 C.3       4 GLC5        0.0000 
     35 CA         59.5720   16.3880  -15.4040 C.3      12 GLL5        0.0000 
     36 N          45.9795   20.2315  -19.3825 N.am      2 SEC2        0.0000 
     37 N          47.3410   21.1480  -18.8840 N.am     10 SEL2        0.0000 
     38 N          44.6180   19.3150  -19.8810 N.am      6 SEP2        0.0000 
     39 N          47.2745   22.7945  -19.4520 N.am      2 SEC2        0.0000 
     40 N          47.2080   24.4410  -20.0200 N.am      6 SEP2        0.0000 
     41 N          48.3440   22.3640  -19.4230 N.am      2 SEC2        0.0000 
     42 N          49.3470   23.5800  -19.9620 N.am      6 SEP2        0.0000 
     43 CA         45.2420   18.8155  -17.6945 C.3       4 GLC5        0.0000 
     44 CA         47.3490   19.2130  -17.2840 C.3      12 GLL5        0.0000 
     45 CA         43.1350   18.4180  -18.1050 C.3       8 GLP5        0.0000 
     46 N          45.3135   19.1530  -18.8025 N.am      2 SEC2        0.0000 
     47 N          46.0090   18.9910  -17.7240 N.am     10 SEL2        0.0000 
     48 CA         50.0375   16.9905  -17.8865 C.3       4 GLC5        0.0000 
     49 CA         48.3900   18.3690  -17.9990 C.3      12 GLL5        0.0000 
     50 CA         51.6850   15.6120  -17.7740 C.3       8 GLP5        0.0000 
     51 CA         49.4395   18.2275  -19.8395 C.3       4 GLC5        0.0000 
     52 CA         50.4890   18.0860  -21.6800 C.3       8 GLP5        0.0000 
     53 O          47.1850   15.2940  -20.5490 O.2       1 ALC1        0.0000 
     54 O          47.6190   13.8120  -20.2310 O.2       9 ALL1        0.0000 
     55 O          46.7510   16.7760  -20.8670 O.2       5 ALP1        0.0000 
     56 NZ         61.0995   22.5985  -13.9340 N.4       3 LYC4        0.0000 
     57 NZ         61.6210   20.3540  -13.7840 N.4      11 LYL4        0.0000 
     58 NZ         61.5780   24.2320  -14.7090 N.4       7 LYP4        0.0000 
     59 N          62.0065   21.7780  -14.1405 N.am      2 SEC2        0.0000 
     60 N          61.6210   20.3540  -13.7840 N.am     10 SEL2        0.0000 
     61 N          62.3920   23.2020  -14.4970 N.am      6 SEP2        0.0000 
     62 NZ         59.8070   21.9950  -13.3710 N.4      11 LYL4        0.0000 
     63 N          60.0650   23.0990  -13.8120 N.am      2 SEC2        0.0000 
     64 N          59.8070   21.9950  -13.3710 N.am     10 SEL2        0.0000 
     65 N          60.3230   24.2030  -14.2530 N.am      6 SEP2        0.0000 
     66 N          61.0995   22.5985  -13.9340 N.am      2 SEC2        0.0000 
     67 CA         59.6740   13.2915  -16.2190 C.3       4 GLC5        0.0000 
     68 CA         59.8770   11.3380  -15.6320 C.3       8 GLP5        0.0000 
     69 CA         58.0340   16.2215  -17.9110 C.3       4 GLC5        0.0000 
     70 CA         56.5970   17.1980  -19.0160 C.3       8 GLP5        0.0000 
     71 CA         47.1607   19.2934  -19.6538 C.3       4 GLC5        0.0000 
     72 CA         46.3450   19.4370  -21.5880 C.3       8 GLP5        0.0000 
     73 CA         49.9770   15.4465  -17.9585 C.3       4 GLC5        0.0000 
     74 CA         48.2200   15.9440  -18.3750 C.3      12 GLL5        0.0000 
     75 CA         46.8760   14.3573  -16.3313 C.3       4 GLC5        0.0000 
     76 CA         48.3180   14.6180  -17.9110 C.3      12 GLL5        0.0000 
     77 CA         45.2440   14.2920  -15.4250 C.3       8 GLP5        0.0000 
     78 CA         48.5573   14.3425  -14.2332 C.3       4 GLC5        0.0000 
     79 CA         48.6980   14.2270  -16.5640 C.3      12 GLL5        0.0000 
     80 CA         48.2740   13.8840  -12.3440 C.3       8 GLP5        0.0000 
     81 CA         47.0940   15.1602  -15.6508 C.3       4 GLC5        0.0000 
     82 CA         48.9830   15.3750  -15.6810 C.3      12 GLL5        0.0000 
     83 CA         50.2789   15.6767  -16.9356 C.3       4 GLC5        0.0000 
@<TRIPOS>BOND
@<TRIPOS>SUBSTRUCTURE
     1 ALC1       22 GROUP        1 X    ALC  0     ROOT ALC X 1
     2 SEC2        1 GROUP        1 X    SEC  0     **** SEC X 2
     3 LYC4       56 GROUP        1 X    LYC  0     **** LYC X 4
     4 GLC5        8 GROUP        1 X    GLC  0     **** GLC X 6
     5 ALP1       24 GROUP        1 Y    ALP  0     ROOT ALP Y 8
     6 SEP2        3 GROUP        1 Y    SEP  0     **** SEP Y 9
     7 LYP4       58 GROUP        1 Y    LYP  0     **** LYP Y 11
     8 GLP5       10 GROUP        1 Y    GLP  0     **** GLP Y 13
     9 ALL1       23 GROUP        1 Z    ALL  0     ROOT ALL Z 15
    10 SEL2        2 GROUP        1 Z    SEL  0     **** SEL Z 16
    11 LYL4       57 GROUP        1 Z    LYL  0     **** LYL Z 18
    12 GLL5        9 GROUP        1 Z    GLL  0     **** GLL Z 20
@<TRIPOS>SET

