#    Name: 1t09_NAP_1_ligand
#    Modification time : Tue Mar 25 04:03:03 2014

@<TRIPOS>MOLECULE
1t09_NAP_1_ligand
   73    77     1     0     0
SMALL
NO_CHARGES


@<TRIPOS>ATOM
      1 PA         53.7050   17.7010  -15.1370 P.3       1 NAP415      0.0000 
      2 O1A        52.8770   16.7800  -14.3150 O.co2     1 NAP415      0.0000 
      3 O2A        53.9740   17.2920  -16.5030 O.co2     1 NAP415      0.0000 
      4 O5B        55.0650   17.9040  -14.2310 O.3       1 NAP415      0.0000 
      5 C5B        55.1880   19.0910  -13.3750 C.3       1 NAP415      0.0000 
      6 C4B        56.7130   19.1060  -13.0390 C.3       1 NAP415      0.0000 
      7 O4B        57.1960   17.7570  -12.9790 O.3       1 NAP415      0.0000 
      8 C3B        57.5440   19.7810  -14.1470 C.3       1 NAP415      0.0000 
      9 O3B        57.4340   21.2010  -13.9520 O.3       1 NAP415      0.0000 
     10 C2B        58.9280   19.0990  -13.8090 C.3       1 NAP415      0.0000 
     11 O2B        59.5900   19.6460  -12.6320 O.3       1 NAP415      0.0000 
     12 C1B        58.5290   17.6850  -13.4650 C.3       1 NAP415      0.0000 
     13 N9A        58.5200   16.7720  -14.6170 N.pl3     1 NAP415      0.0000 
     14 C8A        57.4100   16.1180  -15.1160 C.2       1 NAP415      0.0000 
     15 N7A        57.6750   15.3460  -16.1650 N.2       1 NAP415      0.0000 
     16 C5A        59.0270   15.5330  -16.3180 C.ar      1 NAP415      0.0000 
     17 C6A        59.9150   14.9570  -17.2940 C.ar      1 NAP415      0.0000 
     18 N6A        59.4240   14.1160  -18.2050 N.pl3     1 NAP415      0.0000 
     19 N1A        61.2170   15.3290  -17.1950 N.ar      1 NAP415      0.0000 
     20 C2A        61.6290   16.2050  -16.2160 C.ar      1 NAP415      0.0000 
     21 N3A        60.8910   16.7910  -15.2740 N.ar      1 NAP415      0.0000 
     22 C4A        59.5720   16.3880  -15.4040 C.ar      1 NAP415      0.0000 
     23 O3         53.0860   19.0740  -15.1920 O.3       1 NAP415      0.0000 
     24 PN         51.8890   19.9670  -14.7300 P.3       1 NAP415      0.0000 
     25 O1N        50.9110   19.2680  -13.8970 O.co2     1 NAP415      0.0000 
     26 O2N        52.3270   21.2050  -14.0870 O.co2     1 NAP415      0.0000 
     27 O5D        51.2330   20.3050  -16.2110 O.3       1 NAP415      0.0000 
     28 C5D        49.9420   20.9260  -16.2290 C.3       1 NAP415      0.0000 
     29 C4D        49.2930   20.5320  -17.5660 C.3       1 NAP415      0.0000 
     30 O4D        49.6000   19.1020  -17.8260 O.3       1 NAP415      0.0000 
     31 C3D        47.7770   20.6480  -17.5960 C.3       1 NAP415      0.0000 
     32 O3D        47.3410   21.1480  -18.8840 O.3       1 NAP415      0.0000 
     33 C2D        47.3490   19.2130  -17.2840 C.3       1 NAP415      0.0000 
     34 O2D        46.0090   18.9910  -17.7240 O.3       1 NAP415      0.0000 
     35 C1D        48.3900   18.3690  -17.9990 C.3       1 NAP415      0.0000 
     36 N1N        48.5300   16.9890  -17.4040 N.pl3     1 NAP415      0.0000 
     37 C2N        48.2200   15.9440  -18.3750 C.ar      1 NAP415      0.0000 
     38 C3N        48.3180   14.6180  -17.9110 C.ar      1 NAP415      0.0000 
     39 C7N        47.9790   13.4660  -18.9720 C.2       1 NAP415      0.0000 
     40 O7N        48.0620   12.3160  -18.5930 O.2       1 NAP415      0.0000 
     41 N7N        47.6190   13.8120  -20.2310 N.am      1 NAP415      0.0000 
     42 C4N        48.6980   14.2270  -16.5640 C.ar      1 NAP415      0.0000 
     43 C5N        48.9830   15.3750  -15.6810 C.ar      1 NAP415      0.0000 
     44 C6N        48.9050   16.6820  -16.0720 C.ar      1 NAP415      0.0000 
     45 P2B        60.6770   20.9420  -12.8360 P.3       1 NAP415      0.0000 
     46 O1X        61.0960   21.1190  -11.3820 O.co2     1 NAP415      0.0000 
     47 O2X        61.6210   20.3540  -13.7840 O.co2     1 NAP415      0.0000 
     48 O3X        59.8070   21.9950  -13.3710 O.co2     1 NAP415      0.0000 
     49 H          54.6525   18.9817  -12.4683 H         1 NAP415      0.0000 
     50 H          54.9579   19.9817  -13.8989 H         1 NAP415      0.0000 
     51 H          56.8692   19.6191  -12.1285 H         1 NAP415      0.0000 
     52 H          57.2035   19.4038  -15.0536 H         1 NAP415      0.0000 
     53 H          59.5171   19.0881  -14.6687 H         1 NAP415      0.0000 
     54 H          59.1807   17.3154  -12.6969 H         1 NAP415      0.0000 
     55 H          56.5072   16.2324  -14.7084 H         1 NAP415      0.0000 
     56 H          58.4458   13.9186  -18.1397 H         1 NAP415      0.0000 
     57 H          60.0781   13.7584  -18.8715 H         1 NAP415      0.0000 
     58 H          62.7003   16.4392  -16.2265 H         1 NAP415      0.0000 
     59 H          50.0075   22.0041  -16.1965 H         1 NAP415      0.0000 
     60 H          49.3058   20.5675  -15.4326 H         1 NAP415      0.0000 
     61 H          49.7121   21.1232  -18.3555 H         1 NAP415      0.0000 
     62 H          47.4896   21.2679  -16.7789 H         1 NAP415      0.0000 
     63 H          47.4754   19.0746  -16.2260 H         1 NAP415      0.0000 
     64 H          48.1273   18.3078  -19.0298 H         1 NAP415      0.0000 
     65 H          47.9594   16.1786  -19.2968 H         1 NAP415      0.0000 
     66 H          47.4084   13.0568  -20.8517 H         1 NAP415      0.0000 
     67 H          47.5957   14.7921  -20.4284 H         1 NAP415      0.0000 
     68 H          48.7605   13.3210  -16.2682 H         1 NAP415      0.0000 
     69 H          49.2592   15.1260  -14.6998 H         1 NAP415      0.0000 
     70 H          49.1110   17.4493  -15.4260 H         1 NAP415      0.0000 
     71 H          58.1543   21.4287  -13.2968 H         1 NAP415      0.0000 
     72 H          46.6176   20.5211  -19.1735 H         1 NAP415      0.0000 
     73 H          45.9498   18.0061  -17.8862 H         1 NAP415      0.0000 
@<TRIPOS>BOND
     1    2    1 ar   
     2    3    1 ar   
     3    4    1 1    
     4   23    1 1    
     5    5    4 1    
     6    6    5 1    
     7   49    5 1    
     8   50    5 1    
     9    7    6 1    
    10    8    6 1    
    11   51    6 1    
    12   12    7 1    
    13    9    8 1    
    14   10    8 1    
    15   52    8 1    
    16   71    9 1    
    17   11   10 1    
    18   12   10 1    
    19   53   10 1    
    20   45   11 1    
    21   13   12 1    
    22   54   12 1    
    23   14   13 1    
    24   22   13 1    
    25   15   14 2    
    26   55   14 1    
    27   16   15 1    
    28   17   16 ar   
    29   22   16 ar   
    30   18   17 1    
    31   19   17 ar   
    32   56   18 1    
    33   57   18 1    
    34   20   19 ar   
    35   21   20 ar   
    36   58   20 1    
    37   22   21 ar   
    38   24   23 1    
    39   25   24 ar   
    40   26   24 ar   
    41   27   24 1    
    42   28   27 1    
    43   29   28 1    
    44   59   28 1    
    45   60   28 1    
    46   30   29 1    
    47   31   29 1    
    48   61   29 1    
    49   35   30 1    
    50   32   31 1    
    51   33   31 1    
    52   62   31 1    
    53   72   32 1    
    54   34   33 1    
    55   35   33 1    
    56   63   33 1    
    57   73   34 1    
    58   36   35 1    
    59   64   35 1    
    60   37   36 ar   
    61   44   36 ar   
    62   38   37 ar   
    63   65   37 1    
    64   39   38 1    
    65   42   38 ar   
    66   40   39 2    
    67   41   39 am   
    68   66   41 1    
    69   67   41 1    
    70   43   42 ar   
    71   68   42 1    
    72   44   43 ar   
    73   69   43 1    
    74   70   44 1    
    75   46   45 ar   
    76   47   45 ar   
    77   48   45 ar   
@<TRIPOS>SUBSTRUCTURE
     1 NAP415      1 GROUP   
@<TRIPOS>SET

