#    Name: 3ivx_FG6_1_INTS_M
#    Modification time : Tue Mar 25 17:33:25 2014

@<TRIPOS>MOLECULE
3ivx_FG6_1_INTS_M
   80     0     9     0     0
SMALL
NO_CHARGES


@<TRIPOS>ATOM
      1 N          17.6260   13.0115   -1.4460 N.am      1 SEC2        0.0000 
      2 N          18.3150   12.1710   -0.5580 N.am      7 SEL2        0.0000 
      3 N          16.9370   13.8520   -2.3340 N.am      4 SEP2        0.0000 
      4 N          19.4805   13.1345   -1.1340 N.am      1 SEC2        0.0000 
      5 N          20.6460   14.0980   -1.7100 N.am      4 SEP2        0.0000 
      6 CA         18.3080    8.9745   -2.7920 C.3       3 GLC5        0.0000 
      7 CA         17.6490   10.1280   -1.5980 C.3       9 GLL5        0.0000 
      8 CA         18.9670    7.8210   -3.9860 C.3       6 GLP5        0.0000 
      9 CA         18.9710   11.3850   -2.5920 C.3       3 GLC5        0.0000 
     10 CA         20.2930   12.6420   -3.5860 C.3       6 GLP5        0.0000 
     11 CA         11.9175   11.5255   -5.0225 C.3       3 GLC5        0.0000 
     12 CA         11.0750    9.7570   -5.0100 C.3       9 GLL5        0.0000 
     13 CA         12.7600   13.2940   -5.0350 C.3       6 GLP5        0.0000 
     14 CA          9.8145   11.1285   -5.7035 C.3       3 GLC5        0.0000 
     15 CA          8.5540   12.5000   -6.3970 C.3       6 GLP5        0.0000 
     16 CA         10.0610    9.7370   -3.4515 C.3       3 GLC5        0.0000 
     17 CA          9.0470    9.7170   -1.8930 C.3       6 GLP5        0.0000 
     18 CA         11.3570    8.2270   -3.4145 C.3       3 GLC5        0.0000 
     19 CA         11.6390    6.6970   -1.8190 C.3       6 GLP5        0.0000 
     20 CA          9.3285    9.0225   -5.1040 C.3       3 GLC5        0.0000 
     21 CA          7.5820    8.2880   -5.1980 C.3       6 GLP5        0.0000 
     22 CA         12.2475    8.3955   -6.2670 C.3       3 GLC5        0.0000 
     23 CA         13.4200    7.0340   -7.5240 C.3       6 GLP5        0.0000 
     24 CA         11.2715   10.7215   -6.5610 C.3       3 GLC5        0.0000 
     25 CA         11.4680   11.6860   -8.1120 C.3       6 GLP5        0.0000 
     26 N          15.0835   13.5900    5.0015 N.am      1 SEC2        0.0000 
     27 N          15.1490   13.0720    3.7420 N.am      7 SEL2        0.0000 
     28 N          15.0180   14.1080    6.2610 N.am      4 SEP2        0.0000 
     29 N          14.8790   13.4815    2.4215 N.am      1 SEC2        0.0000 
     30 N          14.6090   13.8910    1.1010 N.am      4 SEP2        0.0000 
     31 CA         12.4785    5.6165    6.9585 C.3       3 GLC5        0.0000 
     32 CA         12.9810    7.7440    7.3010 C.3       9 GLL5        0.0000 
     33 CA         11.9760    3.4890    6.6160 C.3       6 GLP5        0.0000 
     34 CA         15.3340    8.5785   -6.1220 C.3       3 GLC5        0.0000 
     35 CA         14.7120    9.8780   -4.7050 C.3       9 GLL5        0.0000 
     36 CA         15.9560    7.2790   -7.5390 C.3       6 GLP5        0.0000 
     37 CA         11.0790   10.0285   -2.4310 C.3       3 GLC5        0.0000 
     38 CA         13.1110   10.3400   -2.9690 C.3       9 GLL5        0.0000 
     39 CA         12.0185   10.7470   -0.2730 C.3       3 GLC5        0.0000 
     40 CA         14.1290   10.6380   -0.7250 C.3       9 GLL5        0.0000 
     41 CA          9.9080   10.8560    0.1790 C.3       6 GLP5        0.0000 
     42 N          12.8875    9.6450   -6.7935 N.am      1 SEC2        0.0000 
     43 N          12.4620    9.9520   -5.3340 N.am      7 SEL2        0.0000 
     44 N          13.3130    9.3380   -8.2530 N.am      4 SEP2        0.0000 
     45 CA         13.4055    8.5475   -5.9265 C.3       3 GLC5        0.0000 
     46 CA         13.3910   10.0610   -4.3290 C.3       9 GLL5        0.0000 
     47 NZ         20.1260    8.7725   -1.6185 N.4       2 LYC4        0.0000 
     48 NZ         19.8340   10.6020   -0.9190 N.4       8 LYL4        0.0000 
     49 NZ         20.4180    6.9430   -2.3180 N.4       5 LYP4        0.0000 
     50 N          20.9485   11.0355   -1.6295 N.am      1 SEC2        0.0000 
     51 N          19.8340   10.6020   -0.9190 N.am      7 SEL2        0.0000 
     52 N          22.0630   11.4690   -2.3400 N.am      4 SEP2        0.0000 
     53 CA         12.5305    7.1028    8.9055 C.3       3 GLC5        0.0000 
     54 CA         13.2690    8.7830    8.1850 C.3       9 GLL5        0.0000 
     55 CA         11.9360    5.9420   10.0680 C.3       6 GLP5        0.0000 
     56 CA         13.4058   11.6318   -4.7760 C.3       3 GLC5        0.0000 
     57 CA         16.0680   11.3712   -5.4362 C.3       3 GLC5        0.0000 
     58 CA         15.7120    9.9650   -3.7420 C.3       9 GLL5        0.0000 
     59 CA         16.9240   12.8210   -6.6490 C.3       6 GLP5        0.0000 
     60 CA         11.6175    9.7676    7.6822 C.3       3 GLC5        0.0000 
     61 CA         13.8850    9.9210    7.6900 C.3       9 GLL5        0.0000 
     62 CA          9.7300   10.4430    7.6480 C.3       6 GLP5        0.0000 
     63 CA         13.3708   11.7360    6.3705 C.3       3 GLC5        0.0000 
     64 CA         12.7050   13.5120    5.6970 C.3       6 GLP5        0.0000 
     65 CA         15.5058   11.2200    7.5025 C.3       3 GLC5        0.0000 
     66 CA         14.1880    9.9990    6.3980 C.3       9 GLL5        0.0000 
     67 CA         16.9750   12.4800    7.9610 C.3       6 GLP5        0.0000 
     68 CA         13.1848   11.8358   -3.7737 C.3       3 GLC5        0.0000 
     69 CA         14.1080   10.4150   -2.0560 C.3       9 GLL5        0.0000 
     70 CA         12.6242    8.5373   -2.1658 C.3       3 GLC5        0.0000 
     71 CA         13.7603   12.1625    5.3908 C.3       3 GLC5        0.0000 
     72 CA         14.8640   10.6520    4.4470 C.3       9 GLL5        0.0000 
     73 CA         15.8953   11.6465    6.5228 C.3       3 GLC5        0.0000 
     74 CA         14.7670   10.9740    5.7220 C.3       9 GLL5        0.0000 
     75 CA         14.0120   12.3005    0.1850 C.3       3 GLC5        0.0000 
     76 CA         15.4110   10.5900   -0.3130 C.3       9 GLL5        0.0000 
     77 CA         13.2540   13.9870    0.8890 C.3       6 GLP5        0.0000 
     78 CA         16.0915    8.2559   -3.5311 C.3       3 GLC5        0.0000 
     79 CA         15.3880   10.2200   -2.4470 C.3       9 GLL5        0.0000 
     80 CA         16.8830    6.4410   -3.7270 C.3       6 GLP5        0.0000 
@<TRIPOS>BOND
@<TRIPOS>SUBSTRUCTURE
     1 SEC2        1 GROUP        1 X    SEC  0     ROOT SEC X 2
     2 LYC4       47 GROUP        1 X    LYC  0     **** LYC X 4
     3 GLC5        6 GROUP        1 X    GLC  0     **** GLC X 6
     4 SEP2        3 GROUP        1 Y    SEP  0     ROOT SEP Y 9
     5 LYP4       49 GROUP        1 Y    LYP  0     **** LYP Y 11
     6 GLP5        8 GROUP        1 Y    GLP  0     **** GLP Y 13
     7 SEL2        2 GROUP        1 Z    SEL  0     ROOT SEL Z 16
     8 LYL4       48 GROUP        1 Z    LYL  0     **** LYL Z 18
     9 GLL5        7 GROUP        1 Z    GLL  0     **** GLL Z 20
@<TRIPOS>SET

