#    Name: 3ivx_FG6_1_ligand
#    Modification time : Tue Mar 25 17:33:25 2014

@<TRIPOS>MOLECULE
3ivx_FG6_1_ligand
   45    48     1     0     0
SMALL
NO_CHARGES


@<TRIPOS>ATOM
      1 C          18.6710   11.0570   -0.9580 C.2       1 FG6302      0.0000 
      2 N          16.1740   10.3380   -1.3780 N.pl3     1 FG6302      0.0000 
      3 O          18.3150   12.1710   -0.5580 O.co2     1 FG6302      0.0000 
      4 CA         17.6490   10.1280   -1.5980 C.3       1 FG6302      0.0000 
      5 CAA        11.0750    9.7570   -5.0100 C.3       1 FG6302      0.0000 
      6 OAC        17.0190   10.3670    1.2910 O.2       1 FG6302      0.0000 
      7 OAD        15.1490   13.0720    3.7420 O.2       1 FG6302      0.0000 
      8 OAE        17.0670   11.6710    3.5830 O.2       1 FG6302      0.0000 
      9 CAG        13.2690    8.7830    8.1850 C.ar      1 FG6302      0.0000 
     10 CAH        12.9810    7.7440    7.3010 C.ar      1 FG6302      0.0000 
     11 CAI        14.7120    9.8780   -4.7050 C.ar      1 FG6302      0.0000 
     12 CAJ        13.8850    9.9210    7.6900 C.ar      1 FG6302      0.0000 
     13 CAK        13.3160    7.8940    5.9520 C.ar      1 FG6302      0.0000 
     14 CAL        15.7120    9.9650   -3.7420 C.ar      1 FG6302      0.0000 
     15 CAM        13.1110   10.3400   -2.9690 C.ar      1 FG6302      0.0000 
     16 CAN        14.7670   10.9740    5.7220 C.2       1 FG6302      0.0000 
     17 CAO        14.1290   10.6380   -0.7250 C.2       1 FG6302      0.0000 
     18 NAQ        15.0740   11.3750    1.8160 N.pl3     1 FG6302      0.0000 
     19 OAR        12.4620    9.9520   -5.3340 O.3       1 FG6302      0.0000 
     20 OAS        14.3660    9.4720    4.2000 O.3       1 FG6302      0.0000 
     21 CAU        15.8920   10.7650    0.9530 C.2       1 FG6302      0.0000 
     22 CAV        13.3910   10.0610   -4.3290 C.ar      1 FG6302      0.0000 
     23 CAW        14.8640   10.6520    4.4470 C.2       1 FG6302      0.0000 
     24 CAX        15.4110   10.5900   -0.3130 C.2       1 FG6302      0.0000 
     25 CAY        14.1880    9.9990    6.3980 C.ar      1 FG6302      0.0000 
     26 CAZ        14.1080   10.4150   -2.0560 C.ar      1 FG6302      0.0000 
     27 CBA        13.9070    9.0160    5.5280 C.ar      1 FG6302      0.0000 
     28 CBB        15.3880   10.2200   -2.4470 C.ar      1 FG6302      0.0000 
     29 SBD        15.5540   11.6840    3.4010 S.o2      1 FG6302      0.0000 
     30 OXT        19.8340   10.6020   -0.9190 O.co2     1 FG6302      0.0000 
     31 H          17.9085    9.0646   -1.2921 H         1 FG6302      0.0000 
     32 H          17.8456   10.1157   -2.7173 H         1 FG6302      0.0000 
     33 H          13.0303    8.7033    9.1716 H         1 FG6302      0.0000 
     34 H          12.5345    6.8902    7.6304 H         1 FG6302      0.0000 
     35 H          14.9521    9.6807   -5.6808 H         1 FG6302      0.0000 
     36 H          14.0987   10.6963    8.3465 H         1 FG6302      0.0000 
     37 H          13.0944    7.1180    5.3005 H         1 FG6302      0.0000 
     38 H          16.6971    9.8335   -4.0257 H         1 FG6302      0.0000 
     39 H          12.1215   10.4844   -2.6965 H         1 FG6302      0.0000 
     40 H          15.0827   11.8244    6.1165 H         1 FG6302      0.0000 
     41 H          13.3601   10.8028   -0.1675 H         1 FG6302      0.0000 
     42 H          14.1355   11.7099    1.6617 H         1 FG6302      0.0000 
     43 H          10.9297    8.9148   -4.4908 H         1 FG6302      0.0000 
     44 H          10.7136   10.5080   -4.4574 H         1 FG6302      0.0000 
     45 H          10.5068    9.6971   -5.8307 H         1 FG6302      0.0000 
@<TRIPOS>BOND
     1    3    1 ar   
     2    4    1 1    
     3   30    1 ar   
     4    4    2 1    
     5   24    2 1    
     6   28    2 1    
     7   31    4 1    
     8   32    4 1    
     9   19    5 1    
    10   43    5 1    
    11   44    5 1    
    12   45    5 1    
    13   21    6 2    
    14   29    7 2    
    15   29    8 2    
    16   10    9 ar   
    17   12    9 ar   
    18   33    9 1    
    19   13   10 ar   
    20   34   10 1    
    21   14   11 ar   
    22   22   11 ar   
    23   35   11 1    
    24   25   12 ar   
    25   36   12 1    
    26   27   13 ar   
    27   37   13 1    
    28   28   14 ar   
    29   38   14 1    
    30   22   15 ar   
    31   26   15 ar   
    32   39   15 1    
    33   23   16 2    
    34   25   16 1    
    35   40   16 1    
    36   24   17 2    
    37   26   17 1    
    38   41   17 1    
    39   21   18 1    
    40   29   18 1    
    41   42   18 1    
    42   22   19 1    
    43   23   20 1    
    44   27   20 1    
    45   24   21 1    
    46   29   23 1    
    47   27   25 ar   
    48   28   26 ar   
@<TRIPOS>SUBSTRUCTURE
     1 FG6302      1 GROUP   
@<TRIPOS>SET

