#    Name: 2YDO_1_CAVITY_N1_6.mol2
#    Modification time : Tue Mar 11 03:27:52 2014

@<TRIPOS>MOLECULE
2YDO_1_CAVITY_N1_6.mol2
   56     0     5     0     0
SMALL
NO_CHARGES


@<TRIPOS>ATOM
      1 CA        -29.8383    5.6544  -20.5211 C.3       4 GLY6        0.0000 
      2 CZ        -29.5809    5.2545  -21.9437 C.ar      3 PHE5        0.0000 
      3 CA        -28.2545    4.6803  -21.5423 C.3       4 GLY6        0.0000 
      4 N         -29.3234    4.8545  -23.3663 N.2       2 ALA2        0.0000 
      5 CZ        -32.0968    8.5296  -20.1566 C.ar      3 PHE5        0.0000 
      6 CZ        -30.7705    7.9554  -19.7551 C.ar      3 PHE5        0.0000 
      7 CZ        -30.5130    7.5554  -21.1777 C.ar      3 PHE5        0.0000 
      8 CA        -29.1867    6.9812  -20.7763 C.3       4 GLY6        0.0000 
      9 CZ        -30.2556    7.1554  -22.6003 C.ar      3 PHE5        0.0000 
     10 CA        -28.9293    6.5813  -22.1988 C.3       4 GLY6        0.0000 
     11 CZ        -29.9982    6.7555  -24.0229 C.ar      3 PHE5        0.0000 
     12 CA        -28.6718    6.1813  -23.6214 C.3       4 GLY6        0.0000 
     13 CA        -31.7026   10.2563  -18.9891 C.3       4 GLY6        0.0000 
     14 CZ        -31.4452    9.8563  -20.4117 C.ar      3 PHE5        0.0000 
     15 CA        -30.1189    9.2822  -20.0102 C.3       4 GLY6        0.0000 
     16 CZ        -31.1878    9.4564  -21.8343 C.ar      3 PHE5        0.0000 
     17 DU        -29.8614    8.8822  -21.4328 H         5 CUB7        0.0000 
     18 CA        -28.5351    8.3080  -21.0314 C.3       4 GLY6        0.0000 
     19 CZ        -30.9303    9.0564  -23.2569 C.ar      3 PHE5        0.0000 
     20 CA        -29.6040    8.4822  -22.8554 C.3       4 GLY6        0.0000 
     21 CA        -28.2777    7.9080  -22.4540 C.3       4 GLY6        0.0000 
     22 CZ        -30.6729    8.6564  -24.6795 C.ar      3 PHE5        0.0000 
     23 CA        -29.3466    8.0822  -24.2780 C.3       4 GLY6        0.0000 
     24 CA        -29.0891    7.6823  -25.7006 C.3       4 GLY6        0.0000 
     25 CA        -27.7628    7.1081  -25.2991 C.3       4 GLY6        0.0000 
     26 CA        -30.7936   11.1831  -20.6668 C.3       4 GLY6        0.0000 
     27 N         -29.4673   10.6089  -20.2654 N.2       2 ALA2        0.0000 
     28 CA        -30.5362   10.7831  -22.0894 C.3       4 GLY6        0.0000 
     29 DU        -29.2098   10.2090  -21.6880 H         5 CUB7        0.0000 
     30 CA        -27.8835    9.6348  -21.2865 C.3       4 GLY6        0.0000 
     31 DU        -30.2787   10.3832  -23.5120 H         5 CUB7        0.0000 
     32 CA        -28.9524    9.8090  -23.1105 C.3       4 GLY6        0.0000 
     33 CA        -30.0213    9.9832  -24.9346 C.3       4 GLY6        0.0000 
     34 CA        -28.6950    9.4090  -24.5331 C.3       4 GLY6        0.0000 
     35 CA        -29.7639    9.5832  -26.3572 C.3       4 GLY6        0.0000 
     36 CA        -28.4375    9.0090  -25.9557 C.3       4 GLY6        0.0000 
     37 CA        -27.1112    8.4349  -25.5543 C.3       4 GLY6        0.0000 
     38 CA        -29.8846   12.1099  -22.3445 C.3       4 GLY6        0.0000 
     39 N         -28.5582   11.5357  -21.9431 N.2       2 ALA2        0.0000 
     40 CA        -30.9535   12.2841  -24.1686 C.3       4 GLY6        0.0000 
     41 CA        -29.6271   11.7099  -23.7671 C.3       4 GLY6        0.0000 
     42 OG        -28.3008   11.1358  -23.3657 O.2       1 SER1        0.0000 
     43 OG        -26.9745   10.5616  -22.9642 O.2       1 SER1        0.0000 
     44 CA        -30.6960   11.8842  -25.5912 C.3       4 GLY6        0.0000 
     45 CZ        -29.3697   11.3100  -25.1897 C.ar      3 PHE5        0.0000 
     46 CZ        -28.0434   10.7358  -24.7882 C.ar      3 PHE5        0.0000 
     47 CA        -30.4386   11.4842  -27.0137 C.3       4 GLY6        0.0000 
     48 N         -29.1123   10.9100  -26.6123 N.2       2 ALA2        0.0000 
     49 CZ        -27.7859   10.3358  -26.2108 C.ar      3 PHE5        0.0000 
     50 CA        -29.2330   13.4367  -22.5996 C.3       4 GLY6        0.0000 
     51 N         -27.9067   12.8625  -22.1982 N.2       2 ALA2        0.0000 
     52 CA        -28.9756   13.0367  -24.0222 C.3       4 GLY6        0.0000 
     53 CZ        -27.6492   12.4625  -23.6208 C.ar      3 PHE5        0.0000 
     54 CZ        -28.7181   12.6368  -25.4448 C.ar      3 PHE5        0.0000 
     55 OG        -29.7870   12.8110  -27.2689 O.2       1 SER1        0.0000 
     56 CZ        -28.4607   12.2368  -26.8674 C.ar      3 PHE5        0.0000 
@<TRIPOS>BOND
@<TRIPOS>SUBSTRUCTURE
     1 SER1       42 GROUP   
     2 ALA2        4 GROUP   
     3 PHE5        2 GROUP   
     4 GLY6        1 GROUP   
     5 CUB7       17 GROUP   
@<TRIPOS>SET

