#    Name: 2ydo_ADN_1_INTS_M
#    Modification time : Tue Mar 25 08:44:14 2014

@<TRIPOS>MOLECULE
2ydo_ADN_1_INTS_M
   53     0     6     0     0
SMALL
NO_CHARGES


@<TRIPOS>ATOM
      1 O         -28.6945   11.0450  -27.1835 O.2       1 ALC1        0.0000 
      2 O         -29.2330   10.5700  -26.0220 O.2       5 ALL1        0.0000 
      3 O         -28.1560   11.5200  -28.3450 O.2       3 ALP1        0.0000 
      4 CA        -31.3105   11.2665  -26.0450 C.3       2 GLC5        0.0000 
      5 CA        -29.4640   11.8130  -25.3530 C.3       6 GLL5        0.0000 
      6 CA        -33.1570   10.7200  -26.7370 C.3       4 GLP5        0.0000 
      7 CA        -29.4105   13.8815  -25.2540 C.3       2 GLC5        0.0000 
      8 CA        -29.3570   15.9500  -25.1550 C.3       4 GLP5        0.0000 
      9 CA        -30.9975   12.5060  -22.7250 C.3       2 GLC5        0.0000 
     10 CA        -29.7040   11.5740  -23.8670 C.3       6 GLL5        0.0000 
     11 CA        -32.2910   13.4380  -21.5830 C.3       4 GLP5        0.0000 
     12 CA        -29.5280   13.6520  -23.7595 C.3       2 GLC5        0.0000 
     13 CA        -29.3520   15.7300  -23.6520 C.3       4 GLP5        0.0000 
     14 CA        -26.2360   11.4090  -23.0260 C.3       2 GLC5        0.0000 
     15 CA        -28.4670   11.1510  -23.0840 C.3       6 GLL5        0.0000 
     16 CA        -24.0050   11.6670  -22.9680 C.3       4 GLP5        0.0000 
     17 O         -26.3760   12.0215  -22.2615 O.2       1 ALC1        0.0000 
     18 O         -27.7250   12.2450  -22.5260 O.2       5 ALL1        0.0000 
     19 O         -25.0270   11.7980  -21.9970 O.2       3 ALP1        0.0000 
     20 CA        -27.9790    9.8530  -20.2230 C.3       2 GLC5        0.0000 
     21 CA        -29.0500   10.2980  -21.9850 C.3       6 GLL5        0.0000 
     22 CA        -26.9080    9.4080  -18.4610 C.3       4 GLP5        0.0000 
     23 O         -28.6280   12.2665  -20.2215 O.2       1 ALC1        0.0000 
     24 O         -29.3760   11.1150  -20.8570 O.2       5 ALL1        0.0000 
     25 O         -27.8800   13.4180  -19.5860 O.2       3 ALP1        0.0000 
     26 CA        -31.3015   11.5690  -22.0835 C.3       2 GLC5        0.0000 
     27 CA        -30.3120    9.7000  -22.5840 C.3       6 GLL5        0.0000 
     28 CA        -32.0165    9.0050  -22.9005 C.3       2 GLC5        0.0000 
     29 CA        -33.7210    8.3100  -23.2170 C.3       4 GLP5        0.0000 
     30 CA        -30.8565    3.0615  -22.1360 C.3       2 GLC5        0.0000 
     31 CA        -29.6570    4.7730  -22.3340 C.3       6 GLL5        0.0000 
     32 CA        -32.0560    1.3500  -21.9380 C.3       4 GLP5        0.0000 
     33 CA        -28.2355    3.4875  -21.6570 C.3       2 GLC5        0.0000 
     34 CA        -26.8140    2.2020  -20.9800 C.3       4 GLP5        0.0000 
     35 O         -29.6060    2.1470  -22.8140 O.2       1 ALC1        0.0000 
     36 O         -29.3340    3.6420  -23.0080 O.2       5 ALL1        0.0000 
     37 O         -29.8780    0.6520  -22.6200 O.2       3 ALP1        0.0000 
     38 O         -28.6250    3.3970  -24.3705 O.2       1 ALC1        0.0000 
     39 O         -27.9160    3.1520  -25.7330 O.2       3 ALP1        0.0000 
     40 CA        -32.0560    5.7350  -20.4290 C.3       2 GLC5        0.0000 
     41 CA        -30.2950    5.8540  -20.3270 C.3       6 GLL5        0.0000 
     42 CA        -33.8170    5.6160  -20.5310 C.3       4 GLP5        0.0000 
     43 CA        -28.8595    6.0715  -19.3580 C.3       2 GLC5        0.0000 
     44 CA        -27.4240    6.2890  -18.3890 C.3       4 GLP5        0.0000 
     45 CA        -31.9350    6.4350  -21.3625 C.3       2 GLC5        0.0000 
     46 CA        -30.0530    7.2540  -22.1940 C.3       6 GLL5        0.0000 
     47 CA        -27.4587   12.1051  -24.8370 C.3       2 GLC5        0.0000 
     48 CA        -25.8920   12.7880  -25.8270 C.3       4 GLP5        0.0000 
     49 CA        -27.2882    9.5303  -22.9378 C.3       2 GLC5        0.0000 
     50 CA        -25.8180    8.3360  -23.3410 C.3       4 GLP5        0.0000 
     51 CA        -27.6813    5.6325  -22.9333 C.3       2 GLC5        0.0000 
     52 CA        -29.6840    6.0870  -23.0110 C.3       6 GLL5        0.0000 
     53 CA        -25.6920    5.8350  -23.1940 C.3       4 GLP5        0.0000 
@<TRIPOS>BOND
@<TRIPOS>SUBSTRUCTURE
     1 ALC1        1 GROUP        1 X    ALC  0     ROOT ALC X 1
     2 GLC5        4 GROUP        1 X    GLC  0     **** GLC X 6
     3 ALP1        3 GROUP        1 Y    ALP  0     ROOT ALP Y 8
     4 GLP5        6 GROUP        1 Y    GLP  0     **** GLP Y 13
     5 ALL1        2 GROUP        1 Z    ALL  0     ROOT ALL Z 15
     6 GLL5        5 GROUP        1 Z    GLL  0     **** GLL Z 20
@<TRIPOS>SET

