#    Name: 2ydo_ADN_1_ligand
#    Modification time : Tue Mar 25 08:44:14 2014

@<TRIPOS>MOLECULE
2ydo_ADN_1_ligand
   32    34     1     0     0
SMALL
NO_CHARGES


@<TRIPOS>ATOM
      1 O5'       -29.2330   10.5700  -26.0220 O.3       1 ADN400      0.0000 
      2 C5'       -29.4640   11.8130  -25.3530 C.3       1 ADN400      0.0000 
      3 C4'       -29.7040   11.5740  -23.8670 C.3       1 ADN400      0.0000 
      4 O4'       -30.6650   10.5270  -23.6910 O.3       1 ADN400      0.0000 
      5 C3'       -28.4670   11.1510  -23.0840 C.3       1 ADN400      0.0000 
      6 O3'       -27.7250   12.2450  -22.5260 O.3       1 ADN400      0.0000 
      7 C2'       -29.0500   10.2980  -21.9850 C.3       1 ADN400      0.0000 
      8 O2'       -29.3760   11.1150  -20.8570 O.3       1 ADN400      0.0000 
      9 C1'       -30.3120    9.7000  -22.5840 C.3       1 ADN400      0.0000 
     10 N9        -30.0220    8.3070  -23.0090 N.pl3     1 ADN400      0.0000 
     11 C8        -29.6630    7.8860  -24.2420 C.2       1 ADN400      0.0000 
     12 N7        -29.4630    6.5420  -24.2560 N.2       1 ADN400      0.0000 
     13 C5        -29.6840    6.0870  -23.0110 C.ar      1 ADN400      0.0000 
     14 C6        -29.6570    4.7730  -22.3340 C.ar      1 ADN400      0.0000 
     15 N6        -29.3340    3.6420  -23.0080 N.pl3     1 ADN400      0.0000 
     16 N1        -29.9680    4.7450  -21.0190 N.ar      1 ADN400      0.0000 
     17 C2        -30.2950    5.8540  -20.3270 C.ar      1 ADN400      0.0000 
     18 N3        -30.3410    7.0790  -20.8840 N.ar      1 ADN400      0.0000 
     19 C4        -30.0530    7.2540  -22.1940 C.ar      1 ADN400      0.0000 
     20 H         -30.3434   12.3321  -25.7565 H         1 ADN400      0.0000 
     21 H         -28.6053   12.4904  -25.4503 H         1 ADN400      0.0000 
     22 H         -30.0833   12.4910  -23.4210 H         1 ADN400      0.0000 
     23 H         -27.8791   10.5148  -23.7102 H         1 ADN400      0.0000 
     24 H         -28.3761    9.5175  -21.7577 H         1 ADN400      0.0000 
     25 H         -31.0679    9.7077  -21.8284 H         1 ADN400      0.0000 
     26 H         -29.5598    8.4679  -25.0230 H         1 ADN400      0.0000 
     27 H         -28.7139    3.7544  -23.7845 H         1 ADN400      0.0000 
     28 H         -29.7444    2.7954  -22.6691 H         1 ADN400      0.0000 
     29 H         -30.5273    5.7569  -19.2939 H         1 ADN400      0.0000 
     30 H         -28.8200   10.8204  -26.8976 H         1 ADN400      0.0000 
     31 H         -26.7946   11.8961  -22.4139 H         1 ADN400      0.0000 
     32 H         -28.6943   11.8466  -20.8618 H         1 ADN400      0.0000 
@<TRIPOS>BOND
     1    2    1 1    
     2   30    1 1    
     3    3    2 1    
     4   20    2 1    
     5   21    2 1    
     6    4    3 1    
     7    5    3 1    
     8   22    3 1    
     9    9    4 1    
    10    6    5 1    
    11    7    5 1    
    12   23    5 1    
    13   31    6 1    
    14    8    7 1    
    15    9    7 1    
    16   24    7 1    
    17   32    8 1    
    18   10    9 1    
    19   25    9 1    
    20   11   10 1    
    21   19   10 1    
    22   12   11 2    
    23   26   11 1    
    24   13   12 1    
    25   14   13 ar   
    26   19   13 ar   
    27   15   14 1    
    28   16   14 ar   
    29   27   15 1    
    30   28   15 1    
    31   17   16 ar   
    32   18   17 ar   
    33   29   17 1    
    34   19   18 ar   
@<TRIPOS>SUBSTRUCTURE
     1 ADN400      1 GROUP   
@<TRIPOS>SET

