#    Name: 1add_1DA_1_INTS_M
#    Modification time : Mon Mar 24 18:15:59 2014

@<TRIPOS>MOLECULE
1add_1DA_1_INTS_M
   57     0     9     0     0
SMALL
NO_CHARGES


@<TRIPOS>ATOM
      1 N           7.4865   21.3850   35.5150 N.am      2 SEC2        0.0000 
      2 N           8.6220   20.5190   35.3750 N.am      8 SEL2        0.0000 
      3 N           6.3510   22.2510   35.6550 N.am      5 SEP2        0.0000 
      4 O           9.4110   19.1275   34.7670 O.2       1 ALC1        0.0000 
      5 O           8.6220   20.5190   35.3750 O.2       7 ALL1        0.0000 
      6 O          10.2000   17.7360   34.1590 O.2       4 ALP1        0.0000 
      7 O           8.7720   19.8130   34.2355 O.2       1 ALC1        0.0000 
      8 O           8.9220   19.1070   33.0960 O.2       4 ALP1        0.0000 
      9 CA         10.6435   21.1825   35.7595 C.3       3 GLC5        0.0000 
     10 CA          9.2760   20.0150   36.5430 C.3       9 GLL5        0.0000 
     11 CA         12.0110   22.3500   34.9760 C.3       6 GLP5        0.0000 
     12 CA         11.1580   19.5560   37.4410 C.3       3 GLC5        0.0000 
     13 CA         13.0400   19.0970   38.3390 C.3       6 GLP5        0.0000 
     14 CA          9.6335   21.8425   37.5270 C.3       3 GLC5        0.0000 
     15 CA          9.9910   23.6700   38.5110 C.3       6 GLP5        0.0000 
     16 CA          7.1235   17.0075   34.9690 C.3       3 GLC5        0.0000 
     17 CA          7.8630   17.8880   36.4540 C.3       9 GLL5        0.0000 
     18 CA          6.3840   16.1270   33.4840 C.3       6 GLP5        0.0000 
     19 CA          9.5745   16.7730   37.3225 C.3       3 GLC5        0.0000 
     20 CA         11.2860   15.6580   38.1910 C.3       6 GLP5        0.0000 
     21 O           9.4780   17.2535   35.2655 O.2       1 ALC1        0.0000 
     22 O           8.7560   16.7710   36.3720 O.2       7 ALL1        0.0000 
     23 CA          5.8555   17.0055   35.5625 C.3       3 GLC5        0.0000 
     24 CA          6.5540   17.5230   37.1310 C.3       9 GLL5        0.0000 
     25 CA          5.1570   16.4880   33.9940 C.3       6 GLP5        0.0000 
     26 CA          6.4030   20.3610   39.2575 C.3       3 GLC5        0.0000 
     27 CA          6.1420   18.7850   37.8890 C.3       9 GLL5        0.0000 
     28 CA          6.6640   21.9370   40.6260 C.3       6 GLP5        0.0000 
     29 N           2.5930   20.0885   34.8975 N.am      2 SEC2        0.0000 
     30 N           3.2800   19.8290   36.0060 N.am      8 SEL2        0.0000 
     31 N           1.9060   20.3480   33.7890 N.am      5 SEP2        0.0000 
     32 CA          3.6920   21.3440   35.9110 C.3       3 GLC5        0.0000 
     33 CA          2.8340   19.9040   37.2880 C.3       9 GLL5        0.0000 
     34 CA          4.5500   22.7840   34.5340 C.3       6 GLP5        0.0000 
     35 O           0.1400   21.7870   36.1595 O.2       1 ALC1        0.0000 
     36 O           0.5680   20.5230   37.0410 O.2       7 ALL1        0.0000 
     37 O          -0.2880   23.0510   35.2780 O.2       4 ALP1        0.0000 
     38 CA          2.9055   17.9615   39.2795 C.3       3 GLC5        0.0000 
     39 CA          2.5860   20.0040   40.0050 C.3       9 GLL5        0.0000 
     40 CA          3.2250   15.9190   38.5540 C.3       6 GLP5        0.0000 
     41 CA          4.0100   19.1740   41.2410 C.3       3 GLC5        0.0000 
     42 CA          5.4340   18.3440   42.4770 C.3       6 GLP5        0.0000 
     43 N           4.6355   19.6925   40.7390 N.am      2 SEC2        0.0000 
     44 N           3.7490   19.6750   39.4650 N.am      8 SEL2        0.0000 
     45 N           5.5220   19.7100   42.0130 N.am      5 SEP2        0.0000 
     46 CA          5.2605   20.7815   39.3775 C.3       3 GLC5        0.0000 
     47 CA          3.8570   19.6260   38.1290 C.3       9 GLL5        0.0000 
     48 CA          9.6908   19.5605   38.3995 C.3       3 GLC5        0.0000 
     49 CA          8.3930   19.0390   37.3130 C.3       9 GLL5        0.0000 
     50 CA         10.5470   19.5940   39.8710 C.3       6 GLP5        0.0000 
     51 CA          4.7865   17.0365   38.0320 C.3       3 GLC5        0.0000 
     52 CA          3.2853   17.8420   38.1312 C.3       3 GLC5        0.0000 
     53 CA          2.4170   22.1623   39.7210 C.3       3 GLC5        0.0000 
     54 CA          1.5020   20.2950   39.1870 C.3       9 GLL5        0.0000 
     55 CA          2.7900   24.1750   39.8460 C.3       6 GLP5        0.0000 
     56 CA          0.4882   19.0426   39.7311 C.3       3 GLC5        0.0000 
     57 CA         -1.0970   17.9480   40.2090 C.3       6 GLP5        0.0000 
@<TRIPOS>BOND
@<TRIPOS>SUBSTRUCTURE
     1 ALC1        4 GROUP        1 X    ALC  0     ROOT ALC X 1
     2 SEC2        1 GROUP        1 X    SEC  0     **** SEC X 2
     3 GLC5        9 GROUP        1 X    GLC  0     **** GLC X 6
     4 ALP1        6 GROUP        1 Y    ALP  0     ROOT ALP Y 8
     5 SEP2        3 GROUP        1 Y    SEP  0     **** SEP Y 9
     6 GLP5       11 GROUP        1 Y    GLP  0     **** GLP Y 13
     7 ALL1        5 GROUP        1 Z    ALL  0     ROOT ALL Z 15
     8 SEL2        2 GROUP        1 Z    SEL  0     **** SEL Z 16
     9 GLL5       10 GROUP        1 Z    GLL  0     **** GLL Z 20
@<TRIPOS>SET

