#    Name: 1add_1DA_1_ligand
#    Modification time : Mon Mar 24 18:15:59 2014

@<TRIPOS>MOLECULE
1add_1DA_1_ligand
   33    35     1     0     0
SMALL
NO_CHARGES


@<TRIPOS>ATOM
      1 O5'         8.6220   20.5190   35.3750 O.3       1 1DA353      0.0000 
      2 C5'         9.2760   20.0150   36.5430 C.3       1 1DA353      0.0000 
      3 C4'         8.3930   19.0390   37.3130 C.3       1 1DA353      0.0000 
      4 O4'         7.2280   19.7130   37.8090 O.3       1 1DA353      0.0000 
      5 C3'         7.8630   17.8880   36.4540 C.3       1 1DA353      0.0000 
      6 O3'         8.7560   16.7710   36.3720 O.3       1 1DA353      0.0000 
      7 C2'         6.5540   17.5230   37.1310 C.3       1 1DA353      0.0000 
      8 O2'         6.9290   16.6110   38.1510 O.3       1 1DA353      0.0000 
      9 C1'         6.1420   18.7850   37.8890 C.3       1 1DA353      0.0000 
     10 N9          4.9200   19.2740   37.3940 N.pl3     1 1DA353      0.0000 
     11 C8          4.5430   19.3890   36.1080 C.2       1 1DA353      0.0000 
     12 N7          3.2800   19.8290   36.0060 N.2       1 1DA353      0.0000 
     13 C5          2.8340   19.9040   37.2880 C.ar      1 1DA353      0.0000 
     14 C6          1.6200   20.2460   37.8160 C.ar      1 1DA353      0.0000 
     15 N6          0.5680   20.5230   37.0410 N.pl3     1 1DA353      0.0000 
     16 C1          1.5020   20.2950   39.1870 C.ar      1 1DA353      0.0000 
     17 C2          2.5860   20.0040   40.0050 C.ar      1 1DA353      0.0000 
     18 N3          3.7490   19.6750   39.4650 N.ar      1 1DA353      0.0000 
     19 C4          3.8570   19.6260   38.1290 C.ar      1 1DA353      0.0000 
     20 H           9.5539   20.8316   37.2338 H         1 1DA353      0.0000 
     21 H          10.2123   19.4876   36.2852 H         1 1DA353      0.0000 
     22 H           8.9526   18.6155   38.1297 H         1 1DA353      0.0000 
     23 H           7.6158   18.3005   35.4868 H         1 1DA353      0.0000 
     24 H           5.8597   17.2187   36.4930 H         1 1DA353      0.0000 
     25 H           6.0273   18.4597   38.9435 H         1 1DA353      0.0000 
     26 H           5.1235   19.1761   35.3385 H         1 1DA353      0.0000 
     27 H          -0.0088   19.7463   36.7880 H         1 1DA353      0.0000 
     28 H           0.4517   21.4822   36.7834 H         1 1DA353      0.0000 
     29 H           0.5954   20.5516   39.6189 H         1 1DA353      0.0000 
     30 H           2.4545   20.0527   41.0345 H         1 1DA353      0.0000 
     31 H           8.4334   19.7119   34.8156 H         1 1DA353      0.0000 
     32 H           9.5755   17.1274   35.9233 H         1 1DA353      0.0000 
     33 H           7.9219   16.5248   38.0687 H         1 1DA353      0.0000 
@<TRIPOS>BOND
     1    2    1 1    
     2   31    1 1    
     3    3    2 1    
     4   20    2 1    
     5   21    2 1    
     6    4    3 1    
     7    5    3 1    
     8   22    3 1    
     9    9    4 1    
    10    6    5 1    
    11    7    5 1    
    12   23    5 1    
    13   32    6 1    
    14    8    7 1    
    15    9    7 1    
    16   24    7 1    
    17   33    8 1    
    18   10    9 1    
    19   25    9 1    
    20   11   10 1    
    21   19   10 1    
    22   12   11 2    
    23   26   11 1    
    24   13   12 1    
    25   14   13 ar   
    26   19   13 ar   
    27   15   14 1    
    28   16   14 ar   
    29   27   15 1    
    30   28   15 1    
    31   17   16 ar   
    32   29   16 1    
    33   18   17 ar   
    34   30   17 1    
    35   19   18 ar   
@<TRIPOS>SUBSTRUCTURE
     1 1DA353      1 GROUP   
@<TRIPOS>SET

