#    Name: 3akd_CDP_1_INTS_M
#    Modification time : Tue Mar 25 12:01:35 2014

@<TRIPOS>MOLECULE
3akd_CDP_1_INTS_M
   72     0    12     0     0
SMALL
NO_CHARGES


@<TRIPOS>ATOM
      1 N          32.7430   19.6935    0.4625 N.am      2 SEC2        0.0000 
      2 N          33.8900   20.5590    1.2030 N.am     10 SEL2        0.0000 
      3 N          31.5960   18.8280   -0.2780 N.am      6 SEP2        0.0000 
      4 N          32.0540   21.8280    3.7640 N.am      2 SEC2        0.0000 
      5 N          33.3760   21.0740    3.4810 N.am     10 SEL2        0.0000 
      6 N          30.7320   22.5820    4.0470 N.am      6 SEP2        0.0000 
      7 NZ         32.8840   23.3970    0.5600 N.4       3 LYC4        0.0000 
      8 NZ         32.8460   22.6880    1.9030 N.4      11 LYL4        0.0000 
      9 NZ         32.9220   24.1060   -0.7830 N.4       7 LYP4        0.0000 
     10 NZ         31.8875   23.3435    2.0740 N.4       3 LYC4        0.0000 
     11 NZ         30.2210   23.5640    3.2910 N.4       7 LYP4        0.0000 
     12 N          32.8840   23.3970    0.5600 N.am      2 SEC2        0.0000 
     13 N          32.8460   22.6880    1.9030 N.am     10 SEL2        0.0000 
     14 N          32.9220   24.1060   -0.7830 N.am      6 SEP2        0.0000 
     15 N          31.8875   23.3435    2.0740 N.am      2 SEC2        0.0000 
     16 N          30.9290   23.9990    2.2450 N.am      6 SEP2        0.0000 
     17 N          31.7890   22.6350    2.9750 N.am      2 SEC2        0.0000 
     18 N          36.1985   21.3450    3.2205 N.am      2 SEC2        0.0000 
     19 N          35.2310   22.2810    2.3480 N.am     10 SEL2        0.0000 
     20 N          37.1660   20.4090    4.0930 N.am      6 SEP2        0.0000 
     21 NZ         33.8635   24.2950    0.2305 N.4       3 LYC4        0.0000 
     22 NZ         34.8050   24.4840    1.2440 N.4      11 LYL4        0.0000 
     23 N          33.8635   24.2950    0.2305 N.am      2 SEC2        0.0000 
     24 N          34.8050   24.4840    1.2440 N.am     10 SEL2        0.0000 
     25 N          34.6690   25.7450    0.8180 N.am      2 SEC2        0.0000 
     26 N          34.5330   27.0060    0.3920 N.am      6 SEP2        0.0000 
     27 NZ         37.7360   23.0475    2.9960 N.4       3 LYC4        0.0000 
     28 NZ         36.8820   23.9200    2.2180 N.4      11 LYL4        0.0000 
     29 NZ         38.3620   20.9810    4.3210 N.4       7 LYP4        0.0000 
     30 N          37.7360   23.0475    2.9960 N.am      2 SEC2        0.0000 
     31 N          36.8820   23.9200    2.2180 N.am     10 SEL2        0.0000 
     32 N          38.5900   22.1750    3.7740 N.am      6 SEP2        0.0000 
     33 CA         36.0325   25.6680    3.8910 C.3       4 GLC5        0.0000 
     34 CA         35.4430   23.9260    4.8940 C.3      12 GLL5        0.0000 
     35 CA         36.6220   27.4100    2.8880 C.3       8 GLP5        0.0000 
     36 CA         37.4760   23.8305    5.1285 C.3       4 GLC5        0.0000 
     37 CA         39.5090   23.7350    5.3630 C.3       8 GLP5        0.0000 
     38 CA         35.6820   23.0530    6.8825 C.3       4 GLC5        0.0000 
     39 CA         35.9210   22.1800    8.8710 C.3       8 GLP5        0.0000 
     40 CA         35.7245   26.2295    6.6395 C.3       4 GLC5        0.0000 
     41 CA         34.6790   24.3770    6.0390 C.3      12 GLL5        0.0000 
     42 CA         36.7700   28.0820    7.2400 C.3       8 GLP5        0.0000 
     43 CA         35.8010   24.4710    7.5595 C.3       4 GLC5        0.0000 
     44 CA         36.9230   24.5650    9.0800 C.3       8 GLP5        0.0000 
     45 CA         34.6125   23.1390    7.3435 C.3       4 GLC5        0.0000 
     46 CA         33.3040   24.0980    5.8160 C.3      12 GLL5        0.0000 
     47 CA         35.1200   27.1185    6.9095 C.3       4 GLC5        0.0000 
     48 CA         33.4700   26.1550    6.5790 C.3      12 GLL5        0.0000 
     49 N          31.1275   29.0905    7.8950 N.am      2 SEC2        0.0000 
     50 N          31.4240   27.9360    7.1220 N.am     10 SEL2        0.0000 
     51 N          30.8310   30.2450    8.6680 N.am      6 SEP2        0.0000 
     52 N          30.8355   30.0875    5.9300 N.am      2 SEC2        0.0000 
     53 N          31.5270   28.9710    5.2070 N.am     10 SEL2        0.0000 
     54 N          30.1440   31.2040    6.6530 N.am      6 SEP2        0.0000 
     55 O          32.8670   30.2245    2.1220 O.2       1 ALC1        0.0000 
     56 O          31.6530   30.1280    3.0950 O.2       9 ALL1        0.0000 
     57 O          34.0810   30.3210    1.1490 O.2       5 ALP1        0.0000 
     58 O          30.6735   31.2295    3.2600 O.2       1 ALC1        0.0000 
     59 O          29.6940   32.3310    3.4250 O.2       5 ALP1        0.0000 
     60 CA         34.0305   29.7645    2.4655 C.3       4 GLC5        0.0000 
     61 CA         32.9790   28.1570    3.5770 C.3      12 GLL5        0.0000 
     62 CA         35.0820   31.3720    1.3540 C.3       8 GLP5        0.0000 
     63 CA         32.3605   28.4055    1.6485 C.3       4 GLC5        0.0000 
     64 CA         31.7420   28.6540   -0.2800 C.3       8 GLP5        0.0000 
     65 CA         35.0785   27.6280    5.8455 C.3       4 GLC5        0.0000 
     66 CA         33.3870   27.1740    4.4510 C.3      12 GLL5        0.0000 
     67 CA         33.2060   26.5560    8.3260 C.3       4 GLC5        0.0000 
     68 CA         32.6540   25.1510    6.4170 C.3      12 GLL5        0.0000 
     69 CA         33.3500   27.4590   10.1540 C.3       8 GLP5        0.0000 
     70 CA         34.9025   27.5378    3.4510 C.3       4 GLC5        0.0000 
     71 CA         31.2310   27.1382    3.8070 C.3       4 GLC5        0.0000 
     72 CA         29.2790   26.6110    3.6000 C.3       8 GLP5        0.0000 
@<TRIPOS>BOND
@<TRIPOS>SUBSTRUCTURE
     1 ALC1       55 GROUP        1 X    ALC  0     ROOT ALC X 1
     2 SEC2        1 GROUP        1 X    SEC  0     **** SEC X 2
     3 LYC4        7 GROUP        1 X    LYC  0     **** LYC X 4
     4 GLC5       33 GROUP        1 X    GLC  0     **** GLC X 6
     5 ALP1       57 GROUP        1 Y    ALP  0     ROOT ALP Y 8
     6 SEP2        3 GROUP        1 Y    SEP  0     **** SEP Y 9
     7 LYP4        9 GROUP        1 Y    LYP  0     **** LYP Y 11
     8 GLP5       35 GROUP        1 Y    GLP  0     **** GLP Y 13
     9 ALL1       56 GROUP        1 Z    ALL  0     ROOT ALL Z 15
    10 SEL2        2 GROUP        1 Z    SEL  0     **** SEL Z 16
    11 LYL4        8 GROUP        1 Z    LYL  0     **** LYL Z 18
    12 GLL5       34 GROUP        1 Z    GLL  0     **** GLL Z 20
@<TRIPOS>SET

