#    Name: 3akd_CDP_1_ligand
#    Modification time : Tue Mar 25 12:01:35 2014

@<TRIPOS>MOLECULE
3akd_CDP_1_ligand
   37    38     1     0     0
SMALL
NO_CHARGES


@<TRIPOS>ATOM
      1 O3B        33.8900   20.5590    1.2030 O.co2     1 CDP209      0.0000 
      2 PB         33.8320   21.6320    2.2310 P.3       1 CDP209      0.0000 
      3 O1B        33.3760   21.0740    3.4810 O.co2     1 CDP209      0.0000 
      4 O2B        32.8460   22.6880    1.9030 O.co2     1 CDP209      0.0000 
      5 O3A        35.2310   22.2810    2.3480 O.3       1 CDP209      0.0000 
      6 PA         35.4520   23.7630    2.3440 P.3       1 CDP209      0.0000 
      7 O1A        34.8050   24.4840    1.2440 O.co2     1 CDP209      0.0000 
      8 O2A        36.8820   23.9200    2.2180 O.co2     1 CDP209      0.0000 
      9 O5'        34.9260   24.3560    3.6690 O.3       1 CDP209      0.0000 
     10 C5'        35.4430   23.9260    4.8940 C.3       1 CDP209      0.0000 
     11 C4'        34.6790   24.3770    6.0390 C.3       1 CDP209      0.0000 
     12 O4'        34.6920   25.7650    6.1580 O.3       1 CDP209      0.0000 
     13 C3'        33.3040   24.0980    5.8160 C.3       1 CDP209      0.0000 
     14 O3'        32.9530   22.7810    6.0290 O.3       1 CDP209      0.0000 
     15 C2'        32.6540   25.1510    6.4170 C.3       1 CDP209      0.0000 
     16 O2'        32.4600   24.3920    7.7580 O.3       1 CDP209      0.0000 
     17 C1'        33.4700   26.1550    6.5790 C.3       1 CDP209      0.0000 
     18 N1         32.8620   27.1240    5.6590 N.am      1 CDP209      0.0000 
     19 C2         31.9540   28.0220    6.0440 C.2       1 CDP209      0.0000 
     20 O2         31.4240   27.9360    7.1220 O.2       1 CDP209      0.0000 
     21 N3         31.5270   28.9710    5.2070 N.2       1 CDP209      0.0000 
     22 C4         32.0490   29.0670    3.9860 C.2       1 CDP209      0.0000 
     23 N4         31.6530   30.1280    3.0950 N.pl3     1 CDP209      0.0000 
     24 C5         32.9790   28.1570    3.5770 C.2       1 CDP209      0.0000 
     25 C6         33.3870   27.1740    4.4510 C.2       1 CDP209      0.0000 
     26 H          36.5083   24.2646    5.0165 H         1 CDP209      0.0000 
     27 H          35.5094   22.8039    4.9253 H         1 CDP209      0.0000 
     28 H          35.0049   23.9033    6.9346 H         1 CDP209      0.0000 
     29 H          33.1990   24.3022    4.6566 H         1 CDP209      0.0000 
     30 H          31.7095   25.2980    6.0290 H         1 CDP209      0.0000 
     31 H          33.4452   26.5589    7.5564 H         1 CDP209      0.0000 
     32 H          32.3255   30.3977    2.4057 H         1 CDP209      0.0000 
     33 H          30.7387   30.5062    3.2400 H         1 CDP209      0.0000 
     34 H          33.3749   28.1993    2.6276 H         1 CDP209      0.0000 
     35 H          34.1033   26.4911    4.1354 H         1 CDP209      0.0000 
     36 H          33.1632   22.3150    5.1696 H         1 CDP209      0.0000 
     37 H          31.5924   24.7295    8.1231 H         1 CDP209      0.0000 
@<TRIPOS>BOND
     1    2    1 ar   
     2    3    2 ar   
     3    4    2 ar   
     4    5    2 1    
     5    6    5 1    
     6    7    6 ar   
     7    8    6 ar   
     8    9    6 1    
     9   10    9 1    
    10   11   10 1    
    11   26   10 1    
    12   27   10 1    
    13   12   11 1    
    14   13   11 1    
    15   28   11 1    
    16   17   12 1    
    17   14   13 1    
    18   15   13 1    
    19   29   13 1    
    20   36   14 1    
    21   16   15 1    
    22   17   15 1    
    23   30   15 1    
    24   37   16 1    
    25   18   17 1    
    26   31   17 1    
    27   19   18 am   
    28   25   18 1    
    29   20   19 2    
    30   21   19 1    
    31   22   21 2    
    32   23   22 1    
    33   24   22 1    
    34   32   23 1    
    35   33   23 1    
    36   25   24 2    
    37   34   24 1    
    38   35   25 1    
@<TRIPOS>SUBSTRUCTURE
     1 CDP209      1 GROUP   
@<TRIPOS>SET

