#    Name: 1xoi_288_2_INTS_M
#    Modification time : Mon Apr  7 15:23:28 2014

@<TRIPOS>MOLECULE
1xoi_288_2_INTS_M
   78     0     9     0     0
SMALL
NO_CHARGES


@<TRIPOS>ATOM
      1 CA          7.0400   38.1515   81.9355 C.3       3 GLC5        0.0000 
      2 CA          7.4230   36.4970   82.4600 C.3       9 GLL5        0.0000 
      3 CA          6.6570   39.8060   81.4110 C.3       6 GLP5        0.0000 
      4 CA          9.5665   36.3945   82.6260 C.3       3 GLC5        0.0000 
      5 CA         11.7100   36.2920   82.7920 C.3       6 GLP5        0.0000 
      6 O           2.7220   36.3375   81.7395 O.2       1 ALC1        0.0000 
      7 O           4.0160   36.1870   81.3900 O.2       7 ALL1        0.0000 
      8 O           1.4280   36.4880   82.0890 O.2       4 ALP1        0.0000 
      9 CA          3.6975   38.9520   83.7305 C.3       3 GLC5        0.0000 
     10 CA          4.8920   37.1840   83.5510 C.3       9 GLL5        0.0000 
     11 CA          2.5030   40.7200   83.9100 C.3       6 GLP5        0.0000 
     12 CA          2.7410   37.3015   83.8435 C.3       3 GLC5        0.0000 
     13 CA          0.5900   37.4190   84.1360 C.3       6 GLP5        0.0000 
     14 CA          9.7730   38.5550   85.6785 C.3       3 GLC5        0.0000 
     15 CA          8.7570   37.4800   84.6080 C.3       9 GLL5        0.0000 
     16 CA         10.7890   39.6300   86.7490 C.3       6 GLP5        0.0000 
     17 CA         10.2335   36.8860   83.7000 C.3       3 GLC5        0.0000 
     18 CA          8.2595   36.2030   85.8060 C.3       3 GLC5        0.0000 
     19 CA          7.7620   34.9260   87.0040 C.3       6 GLP5        0.0000 
     20 CA          7.3900   38.2370   86.2000 C.3       3 GLC5        0.0000 
     21 CA          6.0230   38.9940   87.7920 C.3       6 GLP5        0.0000 
     22 O           5.7285   33.7670   78.1620 O.2       1 ALC1        0.0000 
     23 O           4.4650   34.5320   78.0390 O.2       7 ALL1        0.0000 
     24 O           6.9920   33.0020   78.2850 O.2       4 ALP1        0.0000 
     25 CA          5.5025   33.8300   76.0685 C.3       3 GLC5        0.0000 
     26 CA          3.5930   34.0730   76.9330 C.3       9 GLL5        0.0000 
     27 CA          7.4120   33.5870   75.2040 C.3       6 GLP5        0.0000 
     28 CA          3.8645   32.0050   79.0660 C.3       3 GLC5        0.0000 
     29 CA          2.9900   32.6860   77.1950 C.3       9 GLL5        0.0000 
     30 CA          4.7390   31.3240   80.9370 C.3       6 GLP5        0.0000 
     31 N           3.4715   31.2450   79.3515 N.am      2 SEC2        0.0000 
     32 N           3.2800   32.0930   78.2240 N.am      8 SEL2        0.0000 
     33 N           3.6630   30.3970   80.4790 N.am      5 SEP2        0.0000 
     34 CA          1.7080   29.0075   75.7400 C.3       3 GLC5        0.0000 
     35 CA          1.5060   30.7700   76.5000 C.3       9 GLL5        0.0000 
     36 CA          1.9100   27.2450   74.9800 C.3       6 GLP5        0.0000 
     37 CA          2.7250   30.2950   73.2115 C.3       3 GLC5        0.0000 
     38 CA          2.3710   32.2890   73.7350 C.3       9 GLL5        0.0000 
     39 CA          3.0790   28.3010   72.6880 C.3       6 GLP5        0.0000 
     40 CA          2.4475   32.0000   71.5400 C.3       3 GLC5        0.0000 
     41 CA          2.5240   31.7110   69.3450 C.3       6 GLP5        0.0000 
     42 CA         -0.3685   30.8940   79.3390 C.3       3 GLC5        0.0000 
     43 CA          0.5450   30.7830   77.7130 C.3       9 GLL5        0.0000 
     44 CA         -1.2820   31.0050   80.9650 C.3       6 GLP5        0.0000 
     45 CA          1.4460   30.1740   72.7735 C.3       3 GLC5        0.0000 
     46 CA          1.1930   32.1160   72.7590 C.3       9 GLL5        0.0000 
     47 CA          1.6990   28.2320   72.7880 C.3       6 GLP5        0.0000 
     48 CA          0.8945   31.2515   71.1675 C.3       3 GLC5        0.0000 
     49 CA          0.5960   30.3870   69.5760 C.3       6 GLP5        0.0000 
     50 CA          0.7445   32.9000   71.1755 C.3       3 GLC5        0.0000 
     51 CA          0.1490   33.1580   73.2440 C.3       9 GLL5        0.0000 
     52 CA          1.3400   32.6420   69.1070 C.3       6 GLP5        0.0000 
     53 O          -0.7450   29.4875   76.6885 O.2       1 ALC1        0.0000 
     54 O          -0.0050   29.4830   77.9110 O.2       7 ALL1        0.0000 
     55 O          -1.4850   29.4920   75.4660 O.2       4 ALP1        0.0000 
     56 CA          7.0672   34.4248   81.7338 C.3       3 GLC5        0.0000 
     57 CA          5.9630   35.6080   80.4650 C.3       9 GLL5        0.0000 
     58 CA          8.0390   32.9420   82.3730 C.3       6 GLP5        0.0000 
     59 CA          4.0742   35.2398   83.3037 C.3       3 GLC5        0.0000 
     60 CA          4.9590   36.5610   82.2800 C.3       9 GLL5        0.0000 
     61 CA          3.2230   33.6070   83.6920 C.3       6 GLP5        0.0000 
     62 CA          6.2176   37.9010   81.3222 C.3       3 GLC5        0.0000 
     63 CA          7.7082   34.8745   82.7300 C.3       3 GLC5        0.0000 
     64 CA          6.0695   38.5637   82.6570 C.3       3 GLC5        0.0000 
     65 CA          6.0720   37.4590   84.2550 C.3       9 GLL5        0.0000 
     66 CA          5.1015   37.7718   85.7615 C.3       3 GLC5        0.0000 
     67 CA          4.7210   38.2220   87.6200 C.3       6 GLP5        0.0000 
     68 CA          4.7754   34.1686   81.1574 C.3       3 GLC5        0.0000 
     69 CA          6.2280   36.2070   81.7240 C.3       9 GLL5        0.0000 
     70 CA          4.1950   32.5770   81.6220 C.3       6 GLP5        0.0000 
     71 CA          7.9152   38.7752   83.2505 C.3       3 GLC5        0.0000 
     72 CA          7.3320   37.1170   83.7140 C.3       9 GLL5        0.0000 
     73 CA          7.7860   40.2520   82.3400 C.3       6 GLP5        0.0000 
     74 CA         -1.0434   31.8122   73.4916 C.3       3 GLC5        0.0000 
     75 CA          0.2580   33.0520   74.7870 C.3       9 GLL5        0.0000 
     76 CA         -2.7850   31.0140   73.5960 C.3       6 GLP5        0.0000 
     77 CA         -0.7545   31.9930   71.4427 C.3       3 GLC5        0.0000 
     78 CA         -2.1800   31.3490   69.8840 C.3       6 GLP5        0.0000 
@<TRIPOS>BOND
@<TRIPOS>SUBSTRUCTURE
     1 ALC1        6 GROUP        1 X    ALC  0     ROOT ALC X 1
     2 SEC2       31 GROUP        1 X    SEC  0     **** SEC X 2
     3 GLC5        1 GROUP        1 X    GLC  0     **** GLC X 6
     4 ALP1        8 GROUP        1 Y    ALP  0     ROOT ALP Y 8
     5 SEP2       33 GROUP        1 Y    SEP  0     **** SEP Y 9
     6 GLP5        3 GROUP        1 Y    GLP  0     **** GLP Y 13
     7 ALL1        7 GROUP        1 Z    ALL  0     ROOT ALL Z 15
     8 SEL2       32 GROUP        1 Z    SEL  0     **** SEL Z 16
     9 GLL5        2 GROUP        1 Z    GLL  0     **** GLL Z 20
@<TRIPOS>SET

