#    Name: 1xoi_288_2_ligand
#    Modification time : Mon Apr  7 15:23:28 2014

@<TRIPOS>MOLECULE
1xoi_288_2_ligand
   50    52     1     0     0
SMALL
NO_CHARGES


@<TRIPOS>ATOM
      1 C1          6.2280   36.2070   81.7240 C.ar      1 288862      0.0000 
      2 C2          4.9590   36.5610   82.2800 C.ar      1 288862      0.0000 
      3 C3          5.9630   35.6080   80.4650 C.2       1 288862      0.0000 
      4 C4          7.4230   36.4970   82.4600 C.ar      1 288862      0.0000 
      5 N5          4.0160   36.1870   81.3900 N.pl3     1 288862      0.0000 
      6 C6          4.8920   37.1840   83.5510 C.ar      1 288862      0.0000 
      7 C7          4.6160   35.6130   80.2910 C.2       1 288862      0.0000 
      8 C8          7.3320   37.1170   83.7140 C.ar      1 288862      0.0000 
      9 C9          6.0720   37.4590   84.2550 C.ar      1 288862      0.0000 
     10 C10         3.8580   35.1020   79.1280 C.2       1 288862      0.0000 
     11 CL11        8.7570   37.4800   84.6080 Cl        1 288862      0.0000 
     12 N12         4.4650   34.5320   78.0390 N.am      1 288862      0.0000 
     13 O13         2.6380   35.2020   79.1510 O.2       1 288862      0.0000 
     14 C14         3.5930   34.0730   76.9330 C.3       1 288862      0.0000 
     15 C15         2.9900   32.6860   77.1950 C.3       1 288862      0.0000 
     16 N16         2.1080   32.1210   76.2640 N.4       1 288862      0.0000 
     17 O17         3.2800   32.0930   78.2240 O.3       1 288862      0.0000 
     18 C18         1.7770   32.8970   75.0220 C.3       1 288862      0.0000 
     19 C19         1.5060   30.7700   76.5000 C.3       1 288862      0.0000 
     20 C20         2.3710   32.2890   73.7350 C.3       1 288862      0.0000 
     21 C21         0.2580   33.0520   74.7870 C.3       1 288862      0.0000 
     22 C22         0.5450   30.7830   77.7130 C.3       1 288862      0.0000 
     23 C23         1.1930   32.1160   72.7590 C.3       1 288862      0.0000 
     24 C24         0.1490   33.1580   73.2440 C.3       1 288862      0.0000 
     25 O25        -0.0050   29.4830   77.9110 O.3       1 288862      0.0000 
     26 H           6.6267   35.2777   79.8814 H         1 288862      0.0000 
     27 H           8.3256   36.2488   82.0626 H         1 288862      0.0000 
     28 H           3.0593   36.2983   81.4935 H         1 288862      0.0000 
     29 H           3.9835   37.4290   83.9465 H         1 288862      0.0000 
     30 H           6.0262   37.9143   85.1754 H         1 288862      0.0000 
     31 H           5.4524   34.4076   77.9454 H         1 288862      0.0000 
     32 H           4.1622   34.0274   75.9919 H         1 288862      0.0000 
     33 H           2.7660   34.7830   76.7791 H         1 288862      0.0000 
     34 H           4.1104   32.1127   76.4866 H         1 288862      0.0000 
     35 H           0.9820   32.7358   76.9321 H         1 288862      0.0000 
     36 H           2.1841   33.9164   75.1046 H         1 288862      0.0000 
     37 H           2.2911   30.0350   76.6934 H         1 288862      0.0000 
     38 H           0.9426   30.4485   75.6207 H         1 288862      0.0000 
     39 H           2.7960   31.3358   73.9552 H         1 288862      0.0000 
     40 H           3.0841   32.9643   73.3188 H         1 288862      0.0000 
     41 H          -0.0807   33.9475   75.2262 H         1 288862      0.0000 
     42 H          -0.2434   32.1864   75.1167 H         1 288862      0.0000 
     43 H          -0.2280   31.5310   77.5062 H         1 288862      0.0000 
     44 H           1.1216   31.1236   78.5798 H         1 288862      0.0000 
     45 H           0.7879   31.1445   72.8532 H         1 288862      0.0000 
     46 H           1.5005   32.3592   71.7777 H         1 288862      0.0000 
     47 H           0.4402   34.1184   72.9342 H         1 288862      0.0000 
     48 H          -0.8111   32.8637   72.9364 H         1 288862      0.0000 
     49 H           2.9461   32.6784   78.9628 H         1 288862      0.0000 
     50 H          -0.2769   29.1755   76.9991 H         1 288862      0.0000 
@<TRIPOS>BOND
     1    2    1 ar   
     2    3    1 1    
     3    4    1 ar   
     4    5    2 1    
     5    6    2 ar   
     6    7    3 2    
     7   26    3 1    
     8    8    4 ar   
     9   27    4 1    
    10    7    5 1    
    11   28    5 1    
    12    9    6 ar   
    13   29    6 1    
    14   10    7 1    
    15    9    8 ar   
    16   11    8 1    
    17   30    9 1    
    18   12   10 am   
    19   13   10 2    
    20   14   12 1    
    21   31   12 1    
    22   15   14 1    
    23   32   14 1    
    24   33   14 1    
    25   16   15 1    
    26   17   15 1    
    27   34   15 1    
    28   18   16 1    
    29   19   16 1    
    30   35   16 1    
    31   49   17 1    
    32   20   18 1    
    33   21   18 1    
    34   36   18 1    
    35   22   19 1    
    36   37   19 1    
    37   38   19 1    
    38   23   20 1    
    39   39   20 1    
    40   40   20 1    
    41   24   21 1    
    42   41   21 1    
    43   42   21 1    
    44   25   22 1    
    45   43   22 1    
    46   44   22 1    
    47   24   23 1    
    48   45   23 1    
    49   46   23 1    
    50   47   24 1    
    51   48   24 1    
    52   50   25 1    
@<TRIPOS>SUBSTRUCTURE
     1 288862      1 GROUP   
@<TRIPOS>SET

