#    Name: 3OCU_1_CAVITY_N1_ALL.mol2
#    Modification time : Tue Mar 11 19:38:19 2014

@<TRIPOS>MOLECULE
3OCU_1_CAVITY_N1_ALL.mol2
  185     0     7     0     0
SMALL
NO_CHARGES


@<TRIPOS>ATOM
      1 O          56.5243  -10.1815   -9.6223 O.2       2 ALA2        0.0000 
      2 N          56.5269   -9.4085  -10.9078 N.2       2 ALA2        0.0000 
      3 N          55.7296  -10.4966  -11.5637 N.2       2 ALA2        0.0000 
      4 O          55.7322   -9.7236  -12.8492 O.2       2 ALA2        0.0000 
      5 N          54.9323  -11.5847  -12.2197 N.2       2 ALA2        0.0000 
      6 N          54.9349  -10.8117  -13.5052 N.2       2 ALA2        0.0000 
      7 CA         56.0510   -8.4089   -8.5574 C.3       6 GLY6        0.0000 
      8 N          56.0537   -7.6359   -9.8429 N.2       2 ALA2        0.0000 
      9 O          55.2537   -9.4970   -9.2133 O.2       2 ALA2        0.0000 
     10 N          55.2563   -8.7240  -10.4988 N.2       2 ALA2        0.0000 
     11 CA         54.4590   -9.8122  -11.1548 C.3       6 GLY6        0.0000 
     12 CZ         54.4617   -9.0392  -12.4402 C.ar      5 PHE5        0.0000 
     13 CZ         53.6617  -10.9003  -11.8107 C.ar      5 PHE5        0.0000 
     14 CZ         53.6644  -10.1273  -13.0962 C.ar      5 PHE5        0.0000 
     15 CZ         52.8644  -11.9884  -12.4667 C.ar      5 PHE5        0.0000 
     16 N          54.7778   -8.4975   -6.8629 N.2       2 ALA2        0.0000 
     17 NZ         54.7805   -7.7245   -8.1484 N.2       4 LYS4        0.0000 
     18 CA         53.9805   -9.5856   -7.5189 C.3       6 GLY6        0.0000 
     19 CA         53.9832   -8.8126   -8.8044 C.3       6 GLY6        0.0000 
     20 NZ         53.9858   -8.0396  -10.0898 N.2       4 LYS4        0.0000 
     21 CA         53.1859   -9.9007   -9.4603 C.3       6 GLY6        0.0000 
     22 CZ         53.1885   -9.1277  -10.7458 C.ar      5 PHE5        0.0000 
     23 CA         52.3886  -10.9889  -10.1163 C.3       6 GLY6        0.0000 
     24 CZ         52.3912  -10.2159  -11.4018 C.ar      5 PHE5        0.0000 
     25 CZ         51.5939  -11.3040  -12.0577 C.ar      5 PHE5        0.0000 
     26 N          58.2707  -11.8655  -12.3816 N.2       2 ALA2        0.0000 
     27 N          57.7975  -10.0929  -11.3167 N.2       2 ALA2        0.0000 
     28 O          57.8001   -9.3199  -12.6022 O.2       2 ALA2        0.0000 
     29 N          57.0002  -11.1810  -11.9727 N.2       2 ALA2        0.0000 
     30 O          57.0028  -10.4080  -13.2582 O.2       2 ALA2        0.0000 
     31 CZ         49.1967  -16.1144  -11.4546 C.ar      5 PHE5        0.0000 
     32 O          54.3019   -7.4979   -4.5125 O.2       2 ALA2        0.0000 
     33 O          54.3046   -6.7249   -5.7980 O.2       2 ALA2        0.0000 
     34 O          53.5046   -8.5860   -5.1685 O.2       2 ALA2        0.0000 
     35 O          53.5073   -7.8130   -6.4540 O.2       2 ALA2        0.0000 
     36 O          52.7073   -9.6741   -5.8244 O.2       2 ALA2        0.0000 
     37 NZ         52.7100   -8.9012   -7.1099 N.2       4 LYS4        0.0000 
     38 N          51.9074  -11.5353   -5.1949 N.2       2 ALA2        0.0000 
     39 CA         51.9100  -10.7623   -6.4804 C.3       6 GLY6        0.0000 
     40 CA         51.9127   -9.9893   -7.7659 C.3       6 GLY6        0.0000 
     41 NZ         51.9153   -9.2163   -9.0514 N.2       4 LYS4        0.0000 
     42 NZ         51.9179   -8.4433  -10.3368 N.2       4 LYS4        0.0000 
     43 CZ         51.1154  -11.0774   -8.4218 C.ar      5 PHE5        0.0000 
     44 CZ         51.1180  -10.3044   -9.7073 C.ar      5 PHE5        0.0000 
     45 CZ         51.1206   -9.5314  -10.9928 C.ar      5 PHE5        0.0000 
     46 CZ         50.3181  -12.1656   -9.0778 C.ar      5 PHE5        0.0000 
     47 CZ         50.3207  -11.3926  -10.3633 C.ar      5 PHE5        0.0000 
     48 CZ         50.3233  -10.6196  -11.6487 C.ar      5 PHE5        0.0000 
     49 CZ         49.5208  -13.2537   -9.7337 C.ar      5 PHE5        0.0000 
     50 CZ         49.5234  -12.4807  -11.0192 C.ar      5 PHE5        0.0000 
     51 DU         49.5260  -11.7077  -12.3047 H         7 CUB7        0.0000 
     52 CZ         48.7235  -14.3418  -10.3897 C.ar      5 PHE5        0.0000 
     53 CZ         48.7261  -13.5688  -11.6752 C.ar      5 PHE5        0.0000 
     54 DU         48.7287  -12.7958  -12.9607 H         7 CUB7        0.0000 
     55 CZ         47.9235  -16.2030   -9.7601 C.ar      5 PHE5        0.0000 
     56 CZ         47.9262  -15.4300  -11.0456 C.ar      5 PHE5        0.0000 
     57 DU         47.9288  -14.6570  -12.3311 H         7 CUB7        0.0000 
     58 DU         47.9314  -13.8840  -13.6166 H         7 CUB7        0.0000 
     59 N          47.1262  -17.2911  -10.4161 N.2       2 ALA2        0.0000 
     60 OD1        47.1289  -16.5181  -11.7016 O.3       3 ASP3        0.0000 
     61 OD1        47.1315  -15.7451  -12.9871 O.3       3 ASP3        0.0000 
     62 N          52.2341   -7.9016   -4.7595 N.2       2 ALA2        0.0000 
     63 N          52.2367   -7.1286   -6.0450 N.2       2 ALA2        0.0000 
     64 N          51.4342   -9.7627   -4.1300 N.2       2 ALA2        0.0000 
     65 CA         51.4368   -8.9897   -5.4155 C.3       6 GLY6        0.0000 
     66 CA         51.4394   -8.2167   -6.7010 C.3       6 GLY6        0.0000 
     67 N          50.6368  -10.8508   -4.7859 N.2       2 ALA2        0.0000 
     68 CA         50.6395  -10.0779   -6.0714 C.3       6 GLY6        0.0000 
     69 CZ         49.8369  -12.7120   -4.1564 C.ar      5 PHE5        0.0000 
     70 CZ         49.8395  -11.9390   -5.4419 C.ar      5 PHE5        0.0000 
     71 CZ         49.8422  -11.1660   -6.7274 C.ar      5 PHE5        0.0000 
     72 CA         49.8448  -10.3930   -8.0129 C.3       6 GLY6        0.0000 
     73 CA         49.8475   -9.6200   -9.2983 C.3       6 GLY6        0.0000 
     74 CZ         49.8501   -8.8470  -10.5838 C.ar      5 PHE5        0.0000 
     75 CZ         49.0422  -13.0271   -6.0978 C.ar      5 PHE5        0.0000 
     76 CZ         49.0449  -12.2541   -7.3833 C.ar      5 PHE5        0.0000 
     77 CZ         49.0475  -11.4811   -8.6688 C.ar      5 PHE5        0.0000 
     78 CZ         49.0502  -10.7081   -9.9543 C.ar      5 PHE5        0.0000 
     79 CZ         49.0528   -9.9351  -11.2398 C.ar      5 PHE5        0.0000 
     80 CZ         48.2449  -14.1152   -6.7538 C.ar      5 PHE5        0.0000 
     81 CZ         48.2476  -13.3423   -8.0393 C.ar      5 PHE5        0.0000 
     82 CZ         48.2502  -12.5693   -9.3248 C.ar      5 PHE5        0.0000 
     83 DU         48.2529  -11.7963  -10.6103 H         7 CUB7        0.0000 
     84 DU         48.2555  -11.0233  -11.8957 H         7 CUB7        0.0000 
     85 CZ         48.2581  -10.2503  -13.1812 C.ar      5 PHE5        0.0000 
     86 CZ         47.4476  -15.2034   -7.4097 C.ar      5 PHE5        0.0000 
     87 CZ         47.4503  -14.4304   -8.6952 C.ar      5 PHE5        0.0000 
     88 CZ         47.4529  -13.6574   -9.9807 C.ar      5 PHE5        0.0000 
     89 DU         47.4555  -12.8844  -11.2662 H         7 CUB7        0.0000 
     90 DU         47.4608  -11.3384  -13.8372 H         7 CUB7        0.0000 
     91 CZ         47.4635  -10.5654  -15.1227 C.ar      5 PHE5        0.0000 
     92 CZ         47.4661   -9.7924  -16.4082 C.ar      5 PHE5        0.0000 
     93 CZ         47.4687   -9.0194  -17.6936 C.ar      5 PHE5        0.0000 
     94 O          46.6503  -16.2915   -8.0657 O.2       2 ALA2        0.0000 
     95 O          46.6530  -15.5185   -9.3512 O.2       2 ALA2        0.0000 
     96 DU         46.6556  -14.7455  -10.6367 H         7 CUB7        0.0000 
     97 DU         46.6582  -13.9725  -11.9222 H         7 CUB7        0.0000 
     98 DU         46.6609  -13.1995  -13.2076 H         7 CUB7        0.0000 
     99 DU         46.6635  -12.4266  -14.4931 H         7 CUB7        0.0000 
    100 DU         46.6662  -11.6536  -15.7786 H         7 CUB7        0.0000 
    101 OG         46.6688  -10.8806  -17.0641 O.2       1 SER1        0.0000 
    102 N          45.8557  -16.6067  -10.0071 N.2       2 ALA2        0.0000 
    103 N          45.8583  -15.8337  -11.2926 N.2       2 ALA2        0.0000 
    104 CA         45.8609  -15.0607  -12.5781 C.3       6 GLY6        0.0000 
    105 OG         45.8636  -14.2877  -13.8636 O.2       1 SER1        0.0000 
    106 OG         45.8662  -13.5147  -15.1491 O.2       1 SER1        0.0000 
    107 OD1        45.0636  -16.1488  -13.2341 O.3       3 ASP3        0.0000 
    108 CA         47.7822   -9.2507  -10.8308 C.3       6 GLY6        0.0000 
    109 N          47.7849   -8.4777  -12.1163 N.2       2 ALA2        0.0000 
    110 CZ         46.9744  -13.4308   -6.3448 C.ar      5 PHE5        0.0000 
    111 CZ         46.9797  -11.8848   -8.9158 C.ar      5 PHE5        0.0000 
    112 CZ         46.9823  -11.1118  -10.2013 C.ar      5 PHE5        0.0000 
    113 DU         46.9849  -10.3388  -11.4868 H         7 CUB7        0.0000 
    114 CZ         46.9876   -9.5659  -12.7723 C.ar      5 PHE5        0.0000 
    115 CZ         46.9902   -8.7929  -14.0578 C.ar      5 PHE5        0.0000 
    116 CZ         46.9928   -8.0199  -15.3432 C.ar      5 PHE5        0.0000 
    117 CZ         46.9955   -7.2469  -16.6287 C.ar      5 PHE5        0.0000 
    118 CZ         46.1771  -14.5189   -7.0008 C.ar      5 PHE5        0.0000 
    119 CZ         46.1797  -13.7460   -8.2863 C.ar      5 PHE5        0.0000 
    120 CZ         46.1824  -12.9730   -9.5718 C.ar      5 PHE5        0.0000 
    121 DU         46.1850  -12.2000  -10.8572 H         7 CUB7        0.0000 
    122 DU         46.1903  -10.6540  -13.4282 H         7 CUB7        0.0000 
    123 DU         46.1929   -9.8810  -14.7137 H         7 CUB7        0.0000 
    124 CZ         46.1955   -9.1080  -15.9992 C.ar      5 PHE5        0.0000 
    125 DU         46.1982   -8.3350  -17.2847 H         7 CUB7        0.0000 
    126 O          45.3798  -15.6071   -7.6567 O.2       2 ALA2        0.0000 
    127 O          45.3824  -14.8341   -8.9422 O.2       2 ALA2        0.0000 
    128 DU         45.3851  -14.0611  -10.2277 H         7 CUB7        0.0000 
    129 DU         45.3877  -13.2881  -11.5132 H         7 CUB7        0.0000 
    130 DU         45.3903  -12.5151  -12.7987 H         7 CUB7        0.0000 
    131 DU         45.3930  -11.7421  -14.0842 H         7 CUB7        0.0000 
    132 DU         45.3956  -10.9691  -15.3697 H         7 CUB7        0.0000 
    133 CZ         45.3982  -10.1961  -16.6551 C.ar      5 PHE5        0.0000 
    134 CZ         45.4009   -9.4231  -17.9406 C.ar      5 PHE5        0.0000 
    135 N          44.5851  -15.9222   -9.5982 N.2       2 ALA2        0.0000 
    136 CA         44.5878  -15.1492  -10.8837 C.3       6 GLY6        0.0000 
    137 CA         44.5904  -14.3762  -12.1692 C.3       6 GLY6        0.0000 
    138 O          44.5930  -13.6032  -13.4546 O.2       2 ALA2        0.0000 
    139 CA         44.5957  -12.8303  -14.7401 C.3       6 GLY6        0.0000 
    140 CA         44.5983  -12.0573  -16.0256 C.3       6 GLY6        0.0000 
    141 CZ         45.7117  -10.4274   -9.7923 C.ar      5 PHE5        0.0000 
    142 CA         45.7144   -9.6544  -11.0778 C.3       6 GLY6        0.0000 
    143 O          45.7170   -8.8814  -12.3633 O.2       2 ALA2        0.0000 
    144 CA         45.7197   -8.1084  -13.6488 C.3       6 GLY6        0.0000 
    145 CA         45.7223   -7.3354  -14.9343 C.3       6 GLY6        0.0000 
    146 CZ         44.9092  -13.0615   -7.8773 C.ar      5 PHE5        0.0000 
    147 CZ         44.9118  -12.2885   -9.1628 C.ar      5 PHE5        0.0000 
    148 CZ         44.9144  -11.5155  -10.4483 C.ar      5 PHE5        0.0000 
    149 O          44.9171  -10.7425  -11.7338 O.2       2 ALA2        0.0000 
    150 O          44.9197   -9.9696  -13.0193 O.2       2 ALA2        0.0000 
    151 CA         44.9223   -9.1966  -14.3047 C.3       6 GLY6        0.0000 
    152 NZ         44.9250   -8.4236  -15.5902 N.2       4 LYS4        0.0000 
    153 NZ         44.9276   -7.6506  -16.8757 N.2       4 LYS4        0.0000 
    154 O          44.1119  -14.1497   -8.5333 O.2       2 ALA2        0.0000 
    155 DU         44.1145  -13.3767   -9.8188 H         7 CUB7        0.0000 
    156 DU         44.1171  -12.6037  -11.1042 H         7 CUB7        0.0000 
    157 O          44.1198  -11.8307  -12.3897 O.2       2 ALA2        0.0000 
    158 DU         44.1224  -11.0577  -13.6752 H         7 CUB7        0.0000 
    159 CZ         44.1250  -10.2847  -14.9607 C.ar      5 PHE5        0.0000 
    160 CZ         44.1277   -9.5117  -16.2462 C.ar      5 PHE5        0.0000 
    161 O          43.3146  -15.2378   -9.1892 O.2       2 ALA2        0.0000 
    162 CA         43.3172  -14.4648  -10.4747 C.3       6 GLY6        0.0000 
    163 CA         43.3198  -13.6918  -11.7602 C.3       6 GLY6        0.0000 
    164 O          43.3251  -12.1458  -14.3312 O.2       2 ALA2        0.0000 
    165 CZ         43.3277  -11.3728  -15.6167 C.ar      5 PHE5        0.0000 
    166 CZ         44.4412   -9.7430   -9.3834 C.ar      5 PHE5        0.0000 
    167 CZ         43.6413  -11.6041   -8.7538 C.ar      5 PHE5        0.0000 
    168 O          43.6439  -10.8311  -10.0393 O.2       2 ALA2        0.0000 
    169 O          43.6518   -8.5121  -13.8958 O.2       2 ALA2        0.0000 
    170 CA         42.8413  -13.4652   -8.1243 C.3       6 GLY6        0.0000 
    171 OD1        42.8440  -12.6922   -9.4098 O.3       3 ASP3        0.0000 
    172 O          42.8466  -11.9192  -10.6953 O.2       2 ALA2        0.0000 
    173 O          42.8492  -11.1462  -11.9808 O.2       2 ALA2        0.0000 
    174 O          42.8519  -10.3733  -13.2663 O.2       2 ALA2        0.0000 
    175 NZ         42.8545   -9.6003  -14.5517 N.2       4 LYS4        0.0000 
    176 O          42.0440  -14.5534   -8.7803 O.2       2 ALA2        0.0000 
    177 CA         42.0467  -13.7804  -10.0657 C.3       6 GLY6        0.0000 
    178 O          42.0493  -13.0074  -11.3512 O.2       2 ALA2        0.0000 
    179 O          42.0519  -12.2344  -12.6367 O.2       2 ALA2        0.0000 
    180 O          42.0546  -11.4614  -13.9222 O.2       2 ALA2        0.0000 
    181 CZ         42.0572  -10.6884  -15.2077 C.ar      5 PHE5        0.0000 
    182 O          41.5760  -11.2348  -10.2863 O.2       2 ALA2        0.0000 
    183 NZ         40.7761  -13.0959   -9.6568 N.2       4 LYS4        0.0000 
    184 NZ         40.7814  -11.5499  -12.2278 N.2       4 LYS4        0.0000 
    185 CA         40.7840  -10.7770  -13.5132 C.3       6 GLY6        0.0000 
@<TRIPOS>BOND
@<TRIPOS>SUBSTRUCTURE
     1 SER1      101 GROUP   
     2 ALA2        1 GROUP   
     3 ASP3       60 GROUP   
     4 LYS4       17 GROUP   
     5 PHE5       12 GROUP   
     6 GLY6        7 GROUP   
     7 CUB7       51 GROUP   
@<TRIPOS>SET

