#    Name: 3ocu_NMN_1_INTS_M
#    Modification time : Tue Mar 25 03:40:13 2014

@<TRIPOS>MOLECULE
3ocu_NMN_1_INTS_M
   47     0    15     0     0
SMALL
NO_CHARGES


@<TRIPOS>ATOM
      1 Zn         40.8860  -12.1570   -7.3680 Zn        4 ZIC7        0.0000 
      2 Zn         41.2880  -12.9480   -7.7650 Zn       14 ZIL7        0.0000 
      3 Zn         40.4840  -11.3660   -6.9710 Zn        9 ZIP7        0.0000 
      4 NZ         39.4150  -13.8195  -10.5100 N.4       3 LYC4        0.0000 
      5 NZ         40.6480  -14.2300   -9.9350 N.4      13 LYL4        0.0000 
      6 NZ         38.1820  -13.4090  -11.0850 N.4       8 LYP4        0.0000 
      7 N          40.6260  -15.5675  -10.4380 N.am      2 SEC2        0.0000 
      8 N          40.6480  -14.2300   -9.9350 N.am     12 SEL2        0.0000 
      9 N          40.6040  -16.9050  -10.9410 N.am      7 SEP2        0.0000 
     10 N          39.4150  -13.8195  -10.5100 N.am      2 SEC2        0.0000 
     11 N          38.1820  -13.4090  -11.0850 N.am      7 SEP2        0.0000 
     12 N          40.1915  -15.0920   -6.3425 N.am      2 SEC2        0.0000 
     13 N          40.3700  -15.4570   -7.6600 N.am     12 SEL2        0.0000 
     14 N          40.0130  -14.7270   -5.0250 N.am      7 SEP2        0.0000 
     15 N          40.0590  -16.6595   -7.9935 N.am      2 SEC2        0.0000 
     16 N          39.7480  -17.8620   -8.3270 N.am      7 SEP2        0.0000 
     17 N          42.8965  -15.6560   -7.5140 N.am      2 SEC2        0.0000 
     18 N          42.6620  -14.9090   -8.6490 N.am     12 SEL2        0.0000 
     19 N          43.1310  -16.4030   -6.3790 N.am      7 SEP2        0.0000 
     20 CA         43.0810  -14.2175   -6.9675 C.3       5 GLC5        0.0000 
     21 CA         43.7020  -13.9790   -8.8160 C.3      15 GLL5        0.0000 
     22 CA         42.4600  -14.4560   -5.1190 C.3      10 GLP5        0.0000 
     23 CA         44.7460  -12.2860   -7.8840 C.3       5 GLC5        0.0000 
     24 CA         45.7900  -10.5930   -6.9520 C.3      10 GLP5        0.0000 
     25 O          45.7055  -18.2130   -9.5635 O.2       1 ALC1        0.0000 
     26 O          44.9320  -17.0770   -8.5990 O.2      11 ALL1        0.0000 
     27 O          46.4790  -19.3490  -10.5280 O.2       6 ALP1        0.0000 
     28 O          46.8120  -17.9430  -10.3560 O.2       1 ALC1        0.0000 
     29 O          47.1450  -16.5370  -10.1840 O.2      11 ALL1        0.0000 
     30 N          49.8825   -9.2235   -9.5660 N.am      2 SEC2        0.0000 
     31 N          50.4180  -10.4700   -9.1040 N.am     12 SEL2        0.0000 
     32 N          49.3470   -7.9770  -10.0280 N.am      7 SEP2        0.0000 
     33 O          52.0205   -9.0520   -7.2085 O.2       1 ALC1        0.0000 
     34 O          51.2500  -10.1480   -6.9800 O.2      11 ALL1        0.0000 
     35 O          52.7910   -7.9560   -7.4370 O.2       6 ALP1        0.0000 
     36 CA         43.4015  -15.2347  -10.7248 C.3       5 GLC5        0.0000 
     37 CA         44.9380  -14.6720   -9.3830 C.3      15 GLL5        0.0000 
     38 CA         42.4830  -16.1440  -12.3500 C.3      10 GLP5        0.0000 
     39 CA         46.7800  -16.7238   -7.2737 C.3       5 GLC5        0.0000 
     40 CA         45.5570  -15.8200   -8.4990 C.3      15 GLL5        0.0000 
     41 CA         47.2720  -17.6370   -5.8000 C.3      10 GLP5        0.0000 
     42 CA         49.0247  -15.1650   -9.0278 C.3       5 GLC5        0.0000 
     43 CA         47.0190  -15.8010   -8.9960 C.3      15 GLL5        0.0000 
     44 CA         50.9090  -15.2460   -8.9580 C.3      10 GLP5        0.0000 
     45 CA         48.9808  -10.0250   -6.7127 C.3       5 GLC5        0.0000 
     46 CA         49.4330  -11.8430   -7.4820 C.3      15 GLL5        0.0000 
     47 CA         48.6550   -8.0800   -6.6580 C.3      10 GLP5        0.0000 
@<TRIPOS>BOND
@<TRIPOS>SUBSTRUCTURE
     1 ALC1       25 GROUP        1 X    ALC  0     ROOT ALC X 1
     2 SEC2        7 GROUP        1 X    SEC  0     **** SEC X 2
     3 LYC4        4 GROUP        1 X    LYC  0     **** LYC X 4
     4 ZIC7        1 GROUP        1 X    ZIC  0     **** ZIC X 5
     5 GLC5       20 GROUP        1 X    GLC  0     **** GLC X 6
     6 ALP1       27 GROUP        1 Y    ALP  0     ROOT ALP Y 8
     7 SEP2        9 GROUP        1 Y    SEP  0     **** SEP Y 9
     8 LYP4        6 GROUP        1 Y    LYP  0     **** LYP Y 11
     9 ZIP7        3 GROUP        1 Y    ZIP  0     **** ZIP Y 12
    10 GLP5       22 GROUP        1 Y    GLP  0     **** GLP Y 13
    11 ALL1       26 GROUP        1 Z    ALL  0     ROOT ALL Z 15
    12 SEL2        8 GROUP        1 Z    SEL  0     **** SEL Z 16
    13 LYL4        5 GROUP        1 Z    LYL  0     **** LYL Z 18
    14 ZIL7        2 GROUP        1 Z    ZIL  0     **** ZIL Z 19
    15 GLL5       21 GROUP        1 Z    GLL  0     **** GLL Z 20
@<TRIPOS>SET

