#    Name: 3ocu_NMN_1_ligand
#    Modification time : Tue Mar 25 03:40:13 2014

@<TRIPOS>MOLECULE
3ocu_NMN_1_ligand
   36    37     1     0     0
SMALL
NO_CHARGES


@<TRIPOS>ATOM
      1 O3P        41.2880  -12.9480   -7.7650 O.co2     1 NMN2003     0.0000 
      2 P          41.1270  -14.3320   -8.5530 P.3       1 NMN2003     0.0000 
      3 O1P        40.6480  -14.2300   -9.9350 O.co2     1 NMN2003     0.0000 
      4 O2P        40.3700  -15.4570   -7.6600 O.co2     1 NMN2003     0.0000 
      5 O5R        42.6620  -14.9090   -8.6490 O.3       1 NMN2003     0.0000 
      6 C5R        43.7020  -13.9790   -8.8160 C.3       1 NMN2003     0.0000 
      7 C4R        44.9380  -14.6720   -9.3830 C.3       1 NMN2003     0.0000 
      8 O4R        46.0460  -13.7260   -9.4900 O.3       1 NMN2003     0.0000 
      9 C3R        45.5570  -15.8200   -8.4990 C.3       1 NMN2003     0.0000 
     10 O3R        44.9320  -17.0770   -8.5990 O.3       1 NMN2003     0.0000 
     11 C2R        47.0190  -15.8010   -8.9960 C.3       1 NMN2003     0.0000 
     12 O2R        47.1450  -16.5370  -10.1840 O.3       1 NMN2003     0.0000 
     13 C1R        47.2620  -14.3670   -9.1990 C.3       1 NMN2003     0.0000 
     14 N1         47.9060  -13.6310   -8.1140 N.pl3     1 NMN2003     0.0000 
     15 C2         48.7740  -12.6170   -8.5040 C.ar      1 NMN2003     0.0000 
     16 C3         49.4330  -11.8430   -7.4820 C.ar      1 NMN2003     0.0000 
     17 C7         50.3970  -10.7640   -7.9550 C.2       1 NMN2003     0.0000 
     18 O7         50.4180  -10.4700   -9.1040 O.2       1 NMN2003     0.0000 
     19 N7         51.2500  -10.1480   -6.9800 N.am      1 NMN2003     0.0000 
     20 C4         49.1800  -12.0970   -6.0530 C.ar      1 NMN2003     0.0000 
     21 C5         48.2860  -13.0940   -5.6690 C.ar      1 NMN2003     0.0000 
     22 C6         47.6140  -13.8920   -6.7090 C.ar      1 NMN2003     0.0000 
     23 H          43.9962  -13.5073   -7.8661 H         1 NMN2003     0.0000 
     24 H          43.4305  -13.1701   -9.5112 H         1 NMN2003     0.0000 
     25 H          44.7368  -15.0888  -10.3493 H         1 NMN2003     0.0000 
     26 H          45.5886  -15.4117   -7.4887 H         1 NMN2003     0.0000 
     27 H          47.6208  -16.1550   -8.1938 H         1 NMN2003     0.0000 
     28 H          47.9144  -14.2606  -10.1093 H         1 NMN2003     0.0000 
     29 H          48.9543  -12.4092   -9.4756 H         1 NMN2003     0.0000 
     30 H          51.1447  -10.4679   -6.0384 H         1 NMN2003     0.0000 
     31 H          51.8786   -9.4502   -7.3234 H         1 NMN2003     0.0000 
     32 H          49.6749  -11.5261   -5.3750 H         1 NMN2003     0.0000 
     33 H          48.0776  -13.2944   -4.7033 H         1 NMN2003     0.0000 
     34 H          46.9645  -14.6048   -6.4474 H         1 NMN2003     0.0000 
     35 H          45.5281  -17.6157   -9.1944 H         1 NMN2003     0.0000 
     36 H          46.8572  -17.4645   -9.9455 H         1 NMN2003     0.0000 
@<TRIPOS>BOND
     1    2    1 ar   
     2    3    2 ar   
     3    4    2 ar   
     4    5    2 1    
     5    6    5 1    
     6    7    6 1    
     7   23    6 1    
     8   24    6 1    
     9    8    7 1    
    10    9    7 1    
    11   25    7 1    
    12   13    8 1    
    13   10    9 1    
    14   11    9 1    
    15   26    9 1    
    16   35   10 1    
    17   12   11 1    
    18   13   11 1    
    19   27   11 1    
    20   36   12 1    
    21   14   13 1    
    22   28   13 1    
    23   15   14 ar   
    24   22   14 ar   
    25   16   15 ar   
    26   29   15 1    
    27   17   16 1    
    28   20   16 ar   
    29   18   17 2    
    30   19   17 am   
    31   30   19 1    
    32   31   19 1    
    33   21   20 ar   
    34   32   20 1    
    35   22   21 ar   
    36   33   21 1    
    37   34   22 1    
@<TRIPOS>SUBSTRUCTURE
     1 NMN2003     1 GROUP   
@<TRIPOS>SET

