#    Name: 3o9d_K19_1_INTS_M
#    Modification time : Tue Mar 25 03:24:47 2014

@<TRIPOS>MOLECULE
3o9d_K19_1_INTS_M
   97     0     9     0     0
SMALL
NO_CHARGES


@<TRIPOS>ATOM
      1 N          14.4555   34.6825   19.9560 N.am      2 SEC2        0.0000 
      2 N          14.9650   35.3250   18.5930 N.am      8 SEL2        0.0000 
      3 N          13.9460   34.0400   21.3190 N.am      5 SEP2        0.0000 
      4 CA         16.3430   32.9020   18.9200 C.3       3 GLC5        0.0000 
      5 CA         15.5860   34.4770   17.7090 C.3       9 GLL5        0.0000 
      6 CA         17.1000   31.3270   20.1310 C.3       6 GLP5        0.0000 
      7 CA         14.2810   35.0800   15.9940 C.3       3 GLC5        0.0000 
      8 CA         12.9760   35.6830   14.2790 C.3       6 GLP5        0.0000 
      9 CA         15.8560   32.8885   14.0025 C.3       3 GLC5        0.0000 
     10 CA         17.1400   33.0660   15.7560 C.3       9 GLL5        0.0000 
     11 CA         14.5720   32.7110   12.2490 C.3       6 GLP5        0.0000 
     12 CA         15.3215   30.7415   15.4640 C.3       3 GLC5        0.0000 
     13 CA         16.1580   32.4210   16.5200 C.3       9 GLL5        0.0000 
     14 CA         14.4850   29.0620   14.4080 C.3       6 GLP5        0.0000 
     15 CA         23.9100   30.8690   14.8955 C.3       3 GLC5        0.0000 
     16 CA         22.2520   32.2240   14.9210 C.3       9 GLL5        0.0000 
     17 CA         25.5680   29.5140   14.8700 C.3       6 GLP5        0.0000 
     18 CA         21.3545   33.8210   13.6490 C.3       3 GLC5        0.0000 
     19 CA         20.4570   35.4180   12.3770 C.3       6 GLP5        0.0000 
     20 CA         22.8895   32.6690   19.0105 C.3       3 GLC5        0.0000 
     21 CA         22.2790   33.3600   17.1790 C.3       9 GLL5        0.0000 
     22 CA         23.5000   31.9780   20.8420 C.3       6 GLP5        0.0000 
     23 CA         24.0240   32.2090   17.2990 C.3       3 GLC5        0.0000 
     24 CA         25.7690   31.0580   17.4190 C.3       6 GLP5        0.0000 
     25 CA         18.0740   30.8400   18.1905 C.3       3 GLC5        0.0000 
     26 CA         19.0480   30.3530   16.2500 C.3       9 GLL5        0.0000 
     27 CA         22.9705   35.5480   15.2120 C.3       3 GLC5        0.0000 
     28 CA         22.1480   34.7680   16.6620 C.3       9 GLL5        0.0000 
     29 CA         23.7930   36.3280   13.7620 C.3       6 GLP5        0.0000 
     30 N          19.3745   27.6270   17.8785 N.am      2 SEC2        0.0000 
     31 N          19.8890   28.0940   16.5910 N.am      8 SEL2        0.0000 
     32 N          18.8600   27.1600   19.1660 N.am      5 SEP2        0.0000 
     33 O          20.7275   27.7700   17.5025 O.2       1 ALC1        0.0000 
     34 O          19.8890   28.0940   16.5910 O.2       7 ALL1        0.0000 
     35 O          21.5660   27.4460   18.4140 O.2       4 ALP1        0.0000 
     36 O          21.4180   28.5075   17.0295 O.2       1 ALC1        0.0000 
     37 O          22.9470   28.9210   17.4680 O.2       4 ALP1        0.0000 
     38 O          20.3740   26.4555   14.2870 O.2       1 ALC1        0.0000 
     39 O          20.6410   27.9570   13.8350 O.2       7 ALL1        0.0000 
     40 O          20.1070   24.9540   14.7390 O.2       4 ALP1        0.0000 
     41 CA         26.2035   25.3590   11.7305 C.3       3 GLC5        0.0000 
     42 CA         24.6060   26.7870   11.9600 C.3       9 GLL5        0.0000 
     43 CA         27.8010   23.9310   11.5010 C.3       6 GLP5        0.0000 
     44 CA         26.4415   27.6005   11.9575 C.3       3 GLC5        0.0000 
     45 CA         28.2770   28.4140   11.9550 C.3       6 GLP5        0.0000 
     46 CA         25.0870   28.1505   13.4150 C.3       3 GLC5        0.0000 
     47 N          25.2575   24.2825   12.4490 N.am      2 SEC2        0.0000 
     48 N          24.3880   25.3850   11.8250 N.am      8 SEL2        0.0000 
     49 N          26.1270   23.1800   13.0730 N.am      5 SEP2        0.0000 
     50 CA         23.1890   25.0465   12.9485 C.3       3 GLC5        0.0000 
     51 CA         23.5020   25.1410   10.7440 C.3       9 GLL5        0.0000 
     52 CA         22.8760   24.9520   15.1530 C.3       6 GLP5        0.0000 
     53 CA         23.6980   23.2990   11.3055 C.3       3 GLC5        0.0000 
     54 CA         23.8940   21.4570   11.8670 C.3       6 GLP5        0.0000 
     55 N          22.9860   23.6485   12.4450 N.am      2 SEC2        0.0000 
     56 N          22.5060   24.2330   11.1720 N.am      8 SEL2        0.0000 
     57 N          23.4660   23.0640   13.7180 N.am      5 SEP2        0.0000 
     58 CA         22.0485   24.9080   13.1865 C.3       3 GLC5        0.0000 
     59 CA         21.2210   24.8640   11.2200 C.3       9 GLL5        0.0000 
     60 CA         22.5575   23.1605   11.5435 C.3       3 GLC5        0.0000 
     61 CA         18.9165   26.3505   15.6270 C.3       3 GLC5        0.0000 
     62 CA         18.2540   27.9490   14.1900 C.3       9 GLL5        0.0000 
     63 CA         19.5790   24.7520   17.0640 C.3       6 GLP5        0.0000 
     64 CA         17.1775   30.5310   11.2840 C.3       3 GLC5        0.0000 
     65 CA         17.6740   28.5440   11.8030 C.3       9 GLL5        0.0000 
     66 CA         16.6810   32.5180   10.7650 C.3       6 GLP5        0.0000 
     67 CA         18.9310   29.2120    9.5535 C.3       3 GLC5        0.0000 
     68 CA         17.4470   28.1940   10.4720 C.3       9 GLL5        0.0000 
     69 CA         20.4150   30.2300    8.6350 C.3       6 GLP5        0.0000 
     70 CA         17.3080   30.0980    9.9300 C.3       3 GLC5        0.0000 
     71 CA         17.1690   32.0020    9.3880 C.3       6 GLP5        0.0000 
     72 CA         15.3805   36.9905   15.9240 C.3       3 GLC5        0.0000 
     73 CA         16.5510   35.1650   16.9660 C.3       9 GLL5        0.0000 
     74 CA         14.1520   37.9760   14.7060 C.3       6 GLP5        0.0000 
     75 CA         15.8880   31.6370   18.2510 C.3       3 GLC5        0.0000 
     76 CA         15.4000   33.1190   17.4800 C.3       9 GLL5        0.0000 
     77 CA         15.9970   30.5040   19.5020 C.3       6 GLP5        0.0000 
     78 CA         13.9102   32.9527   16.5371 C.3       3 GLC5        0.0000 
     79 CA         11.9950   32.7960   16.0170 C.3       6 GLP5        0.0000 
     80 CA         23.9483   34.3680   17.6632 C.3       3 GLC5        0.0000 
     81 CA         25.6830   34.6720   18.4060 C.3       6 GLP5        0.0000 
     82 CA         23.9503   26.5282   13.6378 C.3       3 GLC5        0.0000 
     83 CA         23.2910   27.3900   11.4990 C.3       9 GLL5        0.0000 
     84 CA         23.9520   25.9680   15.5460 C.3       6 GLP5        0.0000 
     85 CA         24.4517   28.9778   11.5553 C.3       3 GLC5        0.0000 
     86 CA         24.9550   30.8670   11.3810 C.3       6 GLP5        0.0000 
     87 CA         15.9617   27.2265   11.4872 C.3       3 GLC5        0.0000 
     88 CA         14.3630   26.0840   11.8370 C.3       6 GLP5        0.0000 
     89 CA         16.1920   28.6069   13.5209 C.3       3 GLC5        0.0000 
     90 CA         16.1565   27.8480    9.0433 C.3       3 GLC5        0.0000 
     91 CA         14.8260   28.1600    7.8130 C.3       6 GLP5        0.0000 
     92 CA         16.0225   26.2355   11.1867 C.3       3 GLC5        0.0000 
     93 CA         17.5270   26.8780   10.0750 C.3       9 GLL5        0.0000 
     94 CA         17.1085   25.5571   13.8979 C.3       3 GLC5        0.0000 
     95 CA         18.0700   26.2470   12.3170 C.3       9 GLL5        0.0000 
     96 CA         16.1200   24.1110   14.9050 C.3       6 GLP5        0.0000 
     97 CA         16.1975   26.4962   12.1825 C.3       3 GLC5        0.0000 
@<TRIPOS>BOND
@<TRIPOS>SUBSTRUCTURE
     1 ALC1       33 GROUP        1 X    ALC  0     ROOT ALC X 1
     2 SEC2        1 GROUP        1 X    SEC  0     **** SEC X 2
     3 GLC5        4 GROUP        1 X    GLC  0     **** GLC X 6
     4 ALP1       35 GROUP        1 Y    ALP  0     ROOT ALP Y 8
     5 SEP2        3 GROUP        1 Y    SEP  0     **** SEP Y 9
     6 GLP5        6 GROUP        1 Y    GLP  0     **** GLP Y 13
     7 ALL1       34 GROUP        1 Z    ALL  0     ROOT ALL Z 15
     8 SEL2        2 GROUP        1 Z    SEL  0     **** SEL Z 16
     9 GLL5        5 GROUP        1 Z    GLL  0     **** GLL Z 20
@<TRIPOS>SET

