#    Name: 3o9d_K19_1_ligand
#    Modification time : Tue Mar 25 03:24:47 2014

@<TRIPOS>MOLECULE
3o9d_K19_1_ligand
   78    82     1     0     0
SMALL
NO_CHARGES


@<TRIPOS>ATOM
      1 C1         15.4230   36.5910   18.5040 C.2       1 K19200      0.0000 
      2 N1         14.9650   35.3250   18.5930 N.2       1 K19200      0.0000 
      3 S1         16.6670   36.8450   17.3180 S.3       1 K19200      0.0000 
      4 C2         15.5860   34.4770   17.7090 C.ar      1 K19200      0.0000 
      5 C3         16.5510   35.1650   16.9660 C.ar      1 K19200      0.0000 
      6 C4         17.3010   34.4470   15.9980 C.ar      1 K19200      0.0000 
      7 C5         17.1400   33.0660   15.7560 C.ar      1 K19200      0.0000 
      8 C6         16.1580   32.4210   16.5200 C.ar      1 K19200      0.0000 
      9 C7         15.4000   33.1190   17.4800 C.ar      1 K19200      0.0000 
     10 S8         18.0450   32.1760   14.7100 S.o2      1 K19200      0.0000 
     11 O9         18.5810   33.0370   13.6850 O.2       1 K19200      0.0000 
     12 O10        17.2750   31.0920   14.1970 O.2       1 K19200      0.0000 
     13 N11        19.3380   31.5720   15.4780 N.pl3     1 K19200      0.0000 
     14 C12        20.0850   32.5990   16.2530 C.3       1 K19200      0.0000 
     15 C13        21.5850   32.3130   16.2950 C.3       1 K19200      0.0000 
     16 C14        22.2520   32.2240   14.9210 C.3       1 K19200      0.0000 
     17 C15        22.2790   33.3600   17.1790 C.3       1 K19200      0.0000 
     18 C16        19.0480   30.3530   16.2500 C.3       1 K19200      0.0000 
     19 C17        19.9220   29.2230   15.7060 C.3       1 K19200      0.0000 
     20 C18        22.1480   34.7680   16.6620 C.3       1 K19200      0.0000 
     21 O18        19.8890   28.0940   16.5910 O.3       1 K19200      0.0000 
     22 C19        19.5400   28.7640   14.3060 C.3       1 K19200      0.0000 
     23 N20        20.6410   27.9570   13.8350 N.am      1 K19200      0.0000 
     24 C21        21.4870   28.3090   12.8780 C.2       1 K19200      0.0000 
     25 O22        21.5370   29.3390   12.2230 O.2       1 K19200      0.0000 
     26 O23        22.4430   27.2710   12.6300 O.3       1 K19200      0.0000 
     27 C24        23.2910   27.3900   11.4990 C.3       1 K19200      0.0000 
     28 C25        24.6060   26.7870   11.9600 C.3       1 K19200      0.0000 
     29 O26        24.3880   25.3850   11.8250 O.3       1 K19200      0.0000 
     30 C27        23.5020   25.1410   10.7440 C.3       1 K19200      0.0000 
     31 O28        22.5060   24.2330   11.1720 O.3       1 K19200      0.0000 
     32 C29        21.2210   24.8640   11.2200 C.3       1 K19200      0.0000 
     33 C30        21.3530   26.1120   10.3620 C.3       1 K19200      0.0000 
     34 C31        22.8300   26.4570   10.3990 C.3       1 K19200      0.0000 
     35 C32        18.2540   27.9490   14.1900 C.3       1 K19200      0.0000 
     36 C33        17.6740   28.5440   11.8030 C.ar      1 K19200      0.0000 
     37 C34        17.4470   28.1940   10.4720 C.ar      1 K19200      0.0000 
     38 C35        17.5270   26.8780   10.0750 C.ar      1 K19200      0.0000 
     39 C36        17.8370   25.8960   10.9980 C.ar      1 K19200      0.0000 
     40 C37        18.0700   26.2470   12.3170 C.ar      1 K19200      0.0000 
     41 C38        17.9940   27.5700   12.7390 C.ar      1 K19200      0.0000 
     42 H          15.2079   37.4020   18.9625 H         1 K19200      0.0000 
     43 H          18.0091   34.9719   15.4365 H         1 K19200      0.0000 
     44 H          15.9842   31.4124   16.3782 H         1 K19200      0.0000 
     45 H          14.6872   32.5994   18.0255 H         1 K19200      0.0000 
     46 H          19.7091   32.6397   17.2852 H         1 K19200      0.0000 
     47 H          19.9322   33.5924   15.8078 H         1 K19200      0.0000 
     48 H          21.7225   31.3384   16.8021 H         1 K19200      0.0000 
     49 H          23.3456   33.0940   17.2616 H         1 K19200      0.0000 
     50 H          21.8522   33.2972   18.1935 H         1 K19200      0.0000 
     51 H          18.0075   30.0667   16.1442 H         1 K19200      0.0000 
     52 H          19.2808   30.4954   17.2995 H         1 K19200      0.0000 
     53 H          20.9573   29.6039   15.6529 H         1 K19200      0.0000 
     54 H          19.4566   29.6433   13.6694 H         1 K19200      0.0000 
     55 H          20.7412   27.0141   14.3244 H         1 K19200      0.0000 
     56 H          23.4411   28.3378   11.1570 H         1 K19200      0.0000 
     57 H          24.7743   27.0767   12.9782 H         1 K19200      0.0000 
     58 H          25.3865   27.1415   11.3166 H         1 K19200      0.0000 
     59 H          24.0175   24.7933    9.8836 H         1 K19200      0.0000 
     60 H          20.9560   25.1656   12.2213 H         1 K19200      0.0000 
     61 H          20.4486   24.2405   10.7976 H         1 K19200      0.0000 
     62 H          20.7839   26.9061   10.7901 H         1 K19200      0.0000 
     63 H          21.0560   25.8947    9.3608 H         1 K19200      0.0000 
     64 H          23.1804   26.7612    9.4606 H         1 K19200      0.0000 
     65 H          17.4206   28.5394   14.5646 H         1 K19200      0.0000 
     66 H          18.3471   27.0456   14.7888 H         1 K19200      0.0000 
     67 H          17.6031   29.5309   12.0899 H         1 K19200      0.0000 
     68 H          17.2183   28.9316    9.7868 H         1 K19200      0.0000 
     69 H          17.3563   26.6220    9.0904 H         1 K19200      0.0000 
     70 H          17.8943   24.9120   10.7077 H         1 K19200      0.0000 
     71 H          18.3068   25.5082   13.0082 H         1 K19200      0.0000 
     72 H          23.2313   32.0356   14.9951 H         1 K19200      0.0000 
     73 H          21.8549   31.4962   14.3619 H         1 K19200      0.0000 
     74 H          22.1555   33.0754   14.4055 H         1 K19200      0.0000 
     75 H          22.6070   35.4267   17.2581 H         1 K19200      0.0000 
     76 H          22.5487   34.8680   15.7513 H         1 K19200      0.0000 
     77 H          21.1913   35.0512   16.5940 H         1 K19200      0.0000 
     78 H          20.8024   28.0563   16.9964 H         1 K19200      0.0000 
@<TRIPOS>BOND
     1    2    1 2    
     2    3    1 1    
     3   42    1 1    
     4    4    2 1    
     5    5    3 1    
     6    5    4 ar   
     7    9    4 ar   
     8    6    5 ar   
     9    7    6 ar   
    10   43    6 1    
    11    8    7 ar   
    12   10    7 1    
    13    9    8 ar   
    14   44    8 1    
    15   45    9 1    
    16   11   10 2    
    17   12   10 2    
    18   13   10 1    
    19   14   13 1    
    20   18   13 1    
    21   15   14 1    
    22   46   14 1    
    23   47   14 1    
    24   16   15 1    
    25   17   15 1    
    26   48   15 1    
    27   72   16 1    
    28   73   16 1    
    29   74   16 1    
    30   20   17 1    
    31   49   17 1    
    32   50   17 1    
    33   19   18 1    
    34   51   18 1    
    35   52   18 1    
    36   21   19 1    
    37   22   19 1    
    38   53   19 1    
    39   75   20 1    
    40   76   20 1    
    41   77   20 1    
    42   78   21 1    
    43   23   22 1    
    44   35   22 1    
    45   54   22 1    
    46   24   23 am   
    47   55   23 1    
    48   25   24 2    
    49   26   24 1    
    50   27   26 1    
    51   28   27 1    
    52   34   27 1    
    53   56   27 1    
    54   29   28 1    
    55   57   28 1    
    56   58   28 1    
    57   30   29 1    
    58   31   30 1    
    59   34   30 1    
    60   59   30 1    
    61   32   31 1    
    62   33   32 1    
    63   60   32 1    
    64   61   32 1    
    65   34   33 1    
    66   62   33 1    
    67   63   33 1    
    68   64   34 1    
    69   41   35 1    
    70   65   35 1    
    71   66   35 1    
    72   37   36 ar   
    73   41   36 ar   
    74   67   36 1    
    75   38   37 ar   
    76   68   37 1    
    77   39   38 ar   
    78   69   38 1    
    79   40   39 ar   
    80   70   39 1    
    81   41   40 ar   
    82   71   40 1    
@<TRIPOS>SUBSTRUCTURE
     1 K19200      1 GROUP   
@<TRIPOS>SET

