#    Name: 3uib_SB2_1_INTS_M
#    Modification time : Mon Mar 24 22:22:37 2014

@<TRIPOS>MOLECULE
3uib_SB2_1_INTS_M
   63     0     6     0     0
SMALL
NO_CHARGES


@<TRIPOS>ATOM
      1 CA         -0.8775   32.1285   40.6090 C.3       2 GLC5        0.0000 
      2 CA         -0.6580   32.6530   42.6730 C.3       6 GLL5        0.0000 
      3 CA         -1.0970   31.6040   38.5450 C.3       4 GLP5        0.0000 
      4 CA         -0.5150   30.7015   41.9235 C.3       2 GLC5        0.0000 
      5 CA         -0.3720   28.7500   41.1740 C.3       4 GLP5        0.0000 
      6 CA          0.3375   32.3175   39.9705 C.3       2 GLC5        0.0000 
      7 CA          1.7720   33.0310   41.3960 C.3       6 GLL5        0.0000 
      8 CA          0.8965   33.0470   38.8485 C.3       2 GLC5        0.0000 
      9 CA          2.4680   33.5480   40.2970 C.3       6 GLL5        0.0000 
     10 CA         -0.6750   32.5460   37.4000 C.3       4 GLP5        0.0000 
     11 CA          3.3005   32.7100   37.5185 C.3       2 GLC5        0.0000 
     12 CA          3.4960   32.8100   39.7050 C.3       6 GLL5        0.0000 
     13 CA          3.1050   32.6100   35.3320 C.3       4 GLP5        0.0000 
     14 N           9.0790   31.2235   33.2935 N.am      1 SEC2        0.0000 
     15 N           8.8020   30.9710   34.7200 N.am      5 SEL2        0.0000 
     16 N           9.3560   31.4760   31.8670 N.am      3 SEP2        0.0000 
     17 CA          6.9625   28.1555   34.3385 C.3       2 GLC5        0.0000 
     18 CA          8.3880   29.7240   35.0050 C.3       6 GLL5        0.0000 
     19 CA          5.5370   26.5870   33.6720 C.3       4 GLP5        0.0000 
     20 CA          9.9075   29.9645   33.5140 C.3       2 GLC5        0.0000 
     21 CA         11.4270   30.2050   32.0230 C.3       4 GLP5        0.0000 
     22 CA          6.4655   27.7550   36.1050 C.3       2 GLC5        0.0000 
     23 CA          7.6170   29.4700   36.1420 C.3       6 GLL5        0.0000 
     24 CA          5.3140   26.0400   36.0680 C.3       4 GLP5        0.0000 
     25 CA         10.1290   30.6310   35.7135 C.3       2 GLC5        0.0000 
     26 CA          8.4870   32.0070   35.5210 C.3       6 GLL5        0.0000 
     27 CA         11.7710   29.2550   35.9060 C.3       4 GLP5        0.0000 
     28 CA         10.5085   32.2335   34.8000 C.3       2 GLC5        0.0000 
     29 CA         12.5300   32.4600   34.0790 C.3       4 GLP5        0.0000 
     30 CA          7.6935   31.9260   33.6960 C.3       2 GLC5        0.0000 
     31 CA          6.9000   31.8450   31.8710 C.3       4 GLP5        0.0000 
     32 CA          6.4285   23.5480   39.5570 C.3       2 GLC5        0.0000 
     33 CA          7.1140   25.4900   39.6680 C.3       6 GLL5        0.0000 
     34 CA          5.7430   21.6060   39.4460 C.3       4 GLP5        0.0000 
     35 CA          7.4295   22.9310   39.4635 C.3       2 GLC5        0.0000 
     36 CA          9.1160   24.2560   39.4810 C.3       6 GLL5        0.0000 
     37 CA          9.2230   22.4610   38.9530 C.3       2 GLC5        0.0000 
     38 CA          9.3300   20.6660   38.4250 C.3       4 GLP5        0.0000 
     39 CA          1.1245   30.0778   41.3902 C.3       2 GLC5        0.0000 
     40 CA          3.1340   31.0370   41.3110 C.3       6 GLL5        0.0000 
     41 CA          2.7745   30.7646   38.9026 C.3       2 GLC5        0.0000 
     42 CA          3.8340   31.5520   40.2160 C.3       6 GLL5        0.0000 
     43 CA          2.0590   29.4770   37.5710 C.3       4 GLP5        0.0000 
     44 CA          9.8867   29.4260   35.7398 C.3       2 GLC5        0.0000 
     45 CA          7.3048   29.9725   33.7737 C.3       2 GLC5        0.0000 
     46 CA          6.6070   30.3480   31.9740 C.3       4 GLP5        0.0000 
     47 CA          6.0877   30.0255   35.1472 C.3       2 GLC5        0.0000 
     48 CA          4.1730   30.4540   34.7210 C.3       4 GLP5        0.0000 
     49 CA          5.5725   30.5836   36.1201 C.3       2 GLC5        0.0000 
     50 CA          7.2760   30.5230   36.9910 C.3       6 GLL5        0.0000 
     51 CA          9.8490   27.2007   40.7145 C.3       2 GLC5        0.0000 
     52 CA          8.5170   27.8320   39.0090 C.3       6 GLL5        0.0000 
     53 CA         10.8460   27.1830   42.3820 C.3       4 GLP5        0.0000 
     54 CA          9.8227   26.0147   40.9135 C.3       2 GLC5        0.0000 
     55 CA          8.4830   25.4370   39.4090 C.3       6 GLL5        0.0000 
     56 CA          9.9132   23.9217   40.5340 C.3       2 GLC5        0.0000 
     57 CA         11.0270   22.9970   41.6230 C.3       4 GLP5        0.0000 
     58 CA          7.7271   27.0736   41.3657 C.3       2 GLC5        0.0000 
     59 CA          8.4930   27.1580   43.2870 C.3       4 GLP5        0.0000 
     60 CA          6.1376   26.5146   37.7563 C.3       2 GLC5        0.0000 
     61 CA          7.1420   27.8780   39.2600 C.3       6 GLL5        0.0000 
     62 CA          8.6061   24.4509   37.8111 C.3       2 GLC5        0.0000 
     63 CA          8.6670   23.8960   36.1530 C.3       4 GLP5        0.0000 
@<TRIPOS>BOND
@<TRIPOS>SUBSTRUCTURE
     1 SEC2       14 GROUP        1 X    SEC  0     ROOT SEC X 2
     2 GLC5        1 GROUP        1 X    GLC  0     **** GLC X 6
     3 SEP2       16 GROUP        1 Y    SEP  0     ROOT SEP Y 9
     4 GLP5        3 GROUP        1 Y    GLP  0     **** GLP Y 13
     5 SEL2       15 GROUP        1 Z    SEL  0     ROOT SEL Z 16
     6 GLL5        2 GROUP        1 Z    GLL  0     **** GLL Z 20
@<TRIPOS>SET

