#    Name: 3uib_SB2_1_ligand
#    Modification time : Mon Mar 24 22:22:37 2014

@<TRIPOS>MOLECULE
3uib_SB2_1_ligand
   43    46     1     0     0
SMALL
NO_CHARGES


@<TRIPOS>ATOM
      1 O2          1.3670   34.6210   43.5590 O.2       1 SB2362      0.0000 
      2 C1         -0.6580   32.6530   42.6730 C.3       1 SB2362      0.0000 
      3 S1          0.4750   33.9690   42.1390 S.2       1 SB2362      0.0000 
      4 CA1         3.1340   31.0370   41.3110 C.ar      1 SB2362      0.0000 
      5 CA2         2.1080   31.7740   41.9020 C.ar      1 SB2362      0.0000 
      6 CA3         1.7720   33.0310   41.3960 C.ar      1 SB2362      0.0000 
      7 CA4         2.4680   33.5480   40.2970 C.ar      1 SB2362      0.0000 
      8 CA5         3.4960   32.8100   39.7050 C.ar      1 SB2362      0.0000 
      9 CA6         3.8340   31.5520   40.2160 C.ar      1 SB2362      0.0000 
     10 NB1         8.8020   30.9710   34.7200 N.ar      1 SB2362      0.0000 
     11 CB2         8.3880   29.7240   35.0050 C.ar      1 SB2362      0.0000 
     12 CB3         7.6170   29.4700   36.1420 C.ar      1 SB2362      0.0000 
     13 CB4         7.2760   30.5230   36.9910 C.ar      1 SB2362      0.0000 
     14 CB5         7.7180   31.8100   36.6740 C.ar      1 SB2362      0.0000 
     15 CB6         8.4870   32.0070   35.5210 C.ar      1 SB2362      0.0000 
     16 NC1         5.5350   31.1900   38.5230 N.pl3     1 SB2362      0.0000 
     17 CC2         4.9200   30.7160   39.6250 C.2       1 SB2362      0.0000 
     18 NC3         5.3860   29.5130   40.0310 N.2       1 SB2362      0.0000 
     19 CC4         6.3680   29.1490   39.1880 C.2       1 SB2362      0.0000 
     20 CC5         6.4470   30.2600   38.2060 C.2       1 SB2362      0.0000 
     21 CD1         8.5170   27.8320   39.0090 C.ar      1 SB2362      0.0000 
     22 CD2         9.1870   26.6050   39.0850 C.ar      1 SB2362      0.0000 
     23 CD3         8.4830   25.4370   39.4090 C.ar      1 SB2362      0.0000 
     24 CD4         7.1140   25.4900   39.6680 C.ar      1 SB2362      0.0000 
     25 CD5         6.4470   26.7110   39.5900 C.ar      1 SB2362      0.0000 
     26 CD6         7.1420   27.8780   39.2600 C.ar      1 SB2362      0.0000 
     27 FD3         9.1160   24.2560   39.4810 F         1 SB2362      0.0000 
     28 H           3.3782   30.1088   41.6820 H         1 SB2362      0.0000 
     29 H           1.6000   31.3931   42.7083 H         1 SB2362      0.0000 
     30 H           2.2212   34.4733   39.9254 H         1 SB2362      0.0000 
     31 H           4.0020   33.1883   38.8982 H         1 SB2362      0.0000 
     32 H           8.6322   28.9239   34.3867 H         1 SB2362      0.0000 
     33 H           7.3051   28.5179   36.3498 H         1 SB2362      0.0000 
     34 H           7.4830   32.6000   37.2768 H         1 SB2362      0.0000 
     35 H           8.8067   32.9708   35.3013 H         1 SB2362      0.0000 
     36 H           5.3578   32.0041   38.0737 H         1 SB2362      0.0000 
     37 H           9.0274   28.6836   38.7728 H         1 SB2362      0.0000 
     38 H          10.1957   26.5599   38.9032 H         1 SB2362      0.0000 
     39 H           6.6027   24.6376   39.9137 H         1 SB2362      0.0000 
     40 H           5.4353   26.7559   39.7764 H         1 SB2362      0.0000 
     41 H          -0.1699   31.8969   43.1089 H         1 SB2362      0.0000 
     42 H          -1.3305   32.9872   43.3334 H         1 SB2362      0.0000 
     43 H          -1.1685   32.2678   41.9042 H         1 SB2362      0.0000 
@<TRIPOS>BOND
     1    3    1 2    
     2    3    2 1    
     3   41    2 1    
     4   42    2 1    
     5   43    2 1    
     6    6    3 1    
     7    5    4 ar   
     8    9    4 ar   
     9   28    4 1    
    10    6    5 ar   
    11   29    5 1    
    12    7    6 ar   
    13    8    7 ar   
    14   30    7 1    
    15    9    8 ar   
    16   31    8 1    
    17   17    9 1    
    18   11   10 ar   
    19   15   10 ar   
    20   12   11 ar   
    21   32   11 1    
    22   13   12 ar   
    23   33   12 1    
    24   14   13 ar   
    25   20   13 1    
    26   15   14 ar   
    27   34   14 1    
    28   35   15 1    
    29   17   16 1    
    30   20   16 1    
    31   36   16 1    
    32   18   17 2    
    33   19   18 1    
    34   20   19 2    
    35   26   19 1    
    36   22   21 ar   
    37   26   21 ar   
    38   37   21 1    
    39   23   22 ar   
    40   38   22 1    
    41   24   23 ar   
    42   27   23 1    
    43   25   24 ar   
    44   39   24 1    
    45   26   25 ar   
    46   40   25 1    
@<TRIPOS>SUBSTRUCTURE
     1 SB2362      1 GROUP   
@<TRIPOS>SET

