#    Name: 2ai1_P1G_2_INTS_M
#    Modification time : Mon Mar 24 19:20:14 2014

@<TRIPOS>MOLECULE
2ai1_P1G_2_INTS_M
   61     0    12     0     0
SMALL
NO_CHARGES


@<TRIPOS>ATOM
      1 N          68.6605  -39.2130   97.9995 N.am      2 SEC2        0.0000 
      2 N          68.0090  -40.1090   97.0550 N.am     10 SEL2        0.0000 
      3 N          69.3120  -38.3170   98.9440 N.am      6 SEP2        0.0000 
      4 N          68.7875  -40.5765   98.4190 N.am      2 SEC2        0.0000 
      5 N          69.5660  -41.0440   99.7830 N.am      6 SEP2        0.0000 
      6 N          68.9865  -40.7965   96.1865 N.am      2 SEC2        0.0000 
      7 N          69.9640  -41.4840   95.3180 N.am      6 SEP2        0.0000 
      8 NZ         65.7940  -38.2825   96.5605 N.4       3 LYC4        0.0000 
      9 NZ         65.6530  -39.2560   97.6810 N.4      11 LYL4        0.0000 
     10 NZ         64.9520  -36.7040   94.7910 N.4       7 LYP4        0.0000 
     11 N          65.7940  -38.2825   96.5605 N.am      2 SEC2        0.0000 
     12 N          65.6530  -39.2560   97.6810 N.am     10 SEL2        0.0000 
     13 N          65.9350  -37.3090   95.4400 N.am      6 SEP2        0.0000 
     14 N          64.4575  -39.3815   98.3595 N.am      2 SEC2        0.0000 
     15 N          63.2620  -39.5070   99.0380 N.am      6 SEP2        0.0000 
     16 N          65.0520  -40.6245   95.1975 N.am      2 SEC2        0.0000 
     17 N          65.9180  -41.1870   96.0460 N.am     10 SEL2        0.0000 
     18 N          64.1860  -40.0620   94.3490 N.am      6 SEP2        0.0000 
     19 CA         67.8650  -40.8640   99.6835 C.3       4 GLC5        0.0000 
     20 CA         66.4630  -41.7130   98.6590 C.3      12 GLL5        0.0000 
     21 CA         69.2670  -40.0150  100.7080 C.3       8 GLP5        0.0000 
     22 CA         63.6645  -41.3670   98.6075 C.3       4 GLC5        0.0000 
     23 CA         65.2280  -42.6390   98.6210 C.3      12 GLL5        0.0000 
     24 CA         62.1010  -40.0950   98.5940 C.3       8 GLP5        0.0000 
     25 CA         63.3020  -42.9610   99.5390 C.3       4 GLC5        0.0000 
     26 CA         61.3760  -43.2830  100.4570 C.3       8 GLP5        0.0000 
     27 CA         63.6505  -43.6985   97.7280 C.3       4 GLC5        0.0000 
     28 CA         62.0730  -44.7580   96.8350 C.3       8 GLP5        0.0000 
     29 N          64.3875  -44.2295   96.2320 N.am      2 SEC2        0.0000 
     30 N          65.2640  -43.6730   97.6150 N.am     10 SEL2        0.0000 
     31 N          63.5110  -44.7860   94.8490 N.am      6 SEP2        0.0000 
     32 CA         64.0940  -45.5445   97.7005 C.3       4 GLC5        0.0000 
     33 CA         65.7800  -44.8850   98.1980 C.3      12 GLL5        0.0000 
     34 CA         62.4080  -46.2040   97.2030 C.3       8 GLP5        0.0000 
     35 CA         64.0330  -45.5875   99.3555 C.3       4 GLC5        0.0000 
     36 CA         65.6270  -44.6960   99.7010 C.3      12 GLL5        0.0000 
     37 CA         62.4390  -46.4790   99.0100 C.3       8 GLP5        0.0000 
     38 CA         67.5475  -47.9885  101.4070 C.3       4 GLC5        0.0000 
     39 CA         67.3250  -46.1280  101.0300 C.3      12 GLL5        0.0000 
     40 CA         67.7700  -49.8490  101.7840 C.3       8 GLP5        0.0000 
     41 O          68.8290  -45.6490  102.7635 O.2       1 ALC1        0.0000 
     42 O          68.6700  -46.1480  101.5280 O.2       9 ALL1        0.0000 
     43 O          68.9880  -45.1500  103.9990 O.2       5 ALP1        0.0000 
     44 CA         69.0735  -43.8660   97.6230 C.3       4 GLC5        0.0000 
     45 CA         67.2850  -45.0740   97.9810 C.3      12 GLL5        0.0000 
     46 CA         70.8620  -42.6580   97.2650 C.3       8 GLP5        0.0000 
     47 N          70.6470  -48.9090   97.5990 N.am      2 SEC2        0.0000 
     48 N          69.3330  -48.0310   97.6520 N.am     10 SEL2        0.0000 
     49 N          71.9610  -49.7870   97.5460 N.am      6 SEP2        0.0000 
     50 CA         69.3940  -49.1050   95.6810 C.3       4 GLC5        0.0000 
     51 CA         68.1680  -48.5470   97.2660 C.3      12 GLL5        0.0000 
     52 CA         70.6200  -49.6630   94.0960 C.3       8 GLP5        0.0000 
     53 CA         65.1885  -47.8145   98.1920 C.3       4 GLC5        0.0000 
     54 CA         67.2070  -47.5250   97.2770 C.3      12 GLL5        0.0000 
     55 CA         63.1700  -48.1040   99.1070 C.3       8 GLP5        0.0000 
     56 O          63.8355  -50.3265   95.7355 O.2       1 ALC1        0.0000 
     57 O          64.2920  -49.0430   95.7680 O.2       9 ALL1        0.0000 
     58 O          63.3790  -51.6100   95.7030 O.2       5 ALP1        0.0000 
     59 O          65.8525  -51.3125   96.0585 O.2       1 ALC1        0.0000 
     60 O          66.4190  -49.9350   96.3090 O.2       9 ALL1        0.0000 
     61 O          65.2860  -52.6900   95.8080 O.2       5 ALP1        0.0000 
@<TRIPOS>BOND
@<TRIPOS>SUBSTRUCTURE
     1 ALC1       41 GROUP        1 X    ALC  0     ROOT ALC X 1
     2 SEC2        1 GROUP        1 X    SEC  0     **** SEC X 2
     3 LYC4        8 GROUP        1 X    LYC  0     **** LYC X 4
     4 GLC5       19 GROUP        1 X    GLC  0     **** GLC X 6
     5 ALP1       43 GROUP        1 Y    ALP  0     ROOT ALP Y 8
     6 SEP2        3 GROUP        1 Y    SEP  0     **** SEP Y 9
     7 LYP4       10 GROUP        1 Y    LYP  0     **** LYP Y 11
     8 GLP5       21 GROUP        1 Y    GLP  0     **** GLP Y 13
     9 ALL1       42 GROUP        1 Z    ALL  0     ROOT ALL Z 15
    10 SEL2        2 GROUP        1 Z    SEL  0     **** SEL Z 16
    11 LYL4        9 GROUP        1 Z    LYL  0     **** LYL Z 18
    12 GLL5       20 GROUP        1 Z    GLL  0     **** GLL Z 20
@<TRIPOS>SET

