#    Name: 2ai1_P1G_2_ligand
#    Modification time : Mon Mar 24 19:20:14 2014

@<TRIPOS>MOLECULE
2ai1_P1G_2_ligand
   40    43     1     0     0
SMALL
NO_CHARGES


@<TRIPOS>ATOM
      1 O3         68.0090  -40.1090   97.0550 O.co2     1 P1G293      0.0000 
      2 P          66.4920  -40.5670   97.2650 P.3       1 P1G293      0.0000 
      3 O4         65.6530  -39.2560   97.6810 O.co2     1 P1G293      0.0000 
      4 O2         65.9180  -41.1870   96.0460 O.co2     1 P1G293      0.0000 
      5 C1P        66.4630  -41.7130   98.6590 C.3       1 P1G293      0.0000 
      6 C1         65.2280  -42.6390   98.6210 C.3       1 P1G293      0.0000 
      7 O3'        65.0820  -43.3680   99.8520 O.3       1 P1G293      0.0000 
      8 O2'        65.2640  -43.6730   97.6150 O.3       1 P1G293      0.0000 
      9 C2'        65.7800  -44.8850   98.1980 C.3       1 P1G293      0.0000 
     10 C3'        65.6270  -44.6960   99.7010 C.3       1 P1G293      0.0000 
     11 C4'        67.0330  -44.8100  100.2940 C.3       1 P1G293      0.0000 
     12 C5'        67.3250  -46.1280  101.0300 C.3       1 P1G293      0.0000 
     13 O5'        68.6700  -46.1480  101.5280 O.3       1 P1G293      0.0000 
     14 O4'        67.9070  -44.5640   99.1780 O.3       1 P1G293      0.0000 
     15 C1'        67.2850  -45.0740   97.9810 C.3       1 P1G293      0.0000 
     16 N9         67.8310  -46.4260   97.7090 N.pl3     1 P1G293      0.0000 
     17 C8         69.1130  -46.7450   97.9100 C.2       1 P1G293      0.0000 
     18 N7         69.3330  -48.0310   97.6520 N.2       1 P1G293      0.0000 
     19 C5         68.1680  -48.5470   97.2660 C.2       1 P1G293      0.0000 
     20 C4         67.2070  -47.5250   97.2770 C.2       1 P1G293      0.0000 
     21 N3         65.9420  -47.7080   96.8200 N.2       1 P1G293      0.0000 
     22 C2         65.4920  -48.8770   96.3220 C.2       1 P1G293      0.0000 
     23 N2         64.2920  -49.0430   95.7680 N.pl3     1 P1G293      0.0000 
     24 N1         66.4190  -49.9350   96.3090 N.am      1 P1G293      0.0000 
     25 C6         67.7400  -49.7840   96.7760 C.2       1 P1G293      0.0000 
     26 O6         68.4790  -50.7680   96.7370 O.2       1 P1G293      0.0000 
     27 H          66.4700  -41.0594   99.5036 H         1 P1G293      0.0000 
     28 H          67.3851  -42.2409   98.5513 H         1 P1G293      0.0000 
     29 H          64.3415  -42.0213   98.4758 H         1 P1G293      0.0000 
     30 H          65.2595  -45.7445   97.9172 H         1 P1G293      0.0000 
     31 H          65.0059  -45.4438  100.0761 H         1 P1G293      0.0000 
     32 H          67.1347  -43.9789  101.0098 H         1 P1G293      0.0000 
     33 H          67.1423  -46.9492  100.3228 H         1 P1G293      0.0000 
     34 H          66.5905  -46.2230  101.8421 H         1 P1G293      0.0000 
     35 H          67.5787  -44.3898   97.1570 H         1 P1G293      0.0000 
     36 H          69.8051  -46.1057   98.2113 H         1 P1G293      0.0000 
     37 H          63.6975  -48.2390   95.7569 H         1 P1G293      0.0000 
     38 H          64.0938  -49.9567   95.4131 H         1 P1G293      0.0000 
     39 H          66.1205  -50.8600   95.9427 H         1 P1G293      0.0000 
     40 H          68.5892  -45.9284  102.5002 H         1 P1G293      0.0000 
@<TRIPOS>BOND
     1    2    1 ar   
     2    3    2 ar   
     3    4    2 ar   
     4    5    2 1    
     5    6    5 1    
     6   27    5 1    
     7   28    5 1    
     8    7    6 1    
     9    8    6 1    
    10   29    6 1    
    11   10    7 1    
    12    9    8 1    
    13   10    9 1    
    14   15    9 1    
    15   30    9 1    
    16   11   10 1    
    17   31   10 1    
    18   12   11 1    
    19   14   11 1    
    20   32   11 1    
    21   13   12 1    
    22   33   12 1    
    23   34   12 1    
    24   40   13 1    
    25   15   14 1    
    26   16   15 1    
    27   35   15 1    
    28   17   16 1    
    29   20   16 1    
    30   18   17 2    
    31   36   17 1    
    32   19   18 1    
    33   20   19 2    
    34   25   19 1    
    35   21   20 1    
    36   22   21 2    
    37   23   22 1    
    38   24   22 1    
    39   37   23 1    
    40   38   23 1    
    41   25   24 am   
    42   39   24 1    
    43   26   25 2    
@<TRIPOS>SUBSTRUCTURE
     1 P1G293      1 GROUP   
@<TRIPOS>SET

