#    Name: 3apc_MMD_1_INTS_M
#    Modification time : Mon Mar 24 17:58:30 2014

@<TRIPOS>MOLECULE
3apc_MMD_1_INTS_M
   78     0     9     0     0
SMALL
NO_CHARGES


@<TRIPOS>ATOM
      1 CA        118.0270   13.7795   31.9770 C.3       3 GLC5        0.0000 
      2 CA        118.7450   14.2410   29.9690 C.3       9 GLL5        0.0000 
      3 CA        117.3090   13.3180   33.9850 C.3       6 GLP5        0.0000 
      4 CA        119.8730   12.5810   27.0895 C.3       3 GLC5        0.0000 
      5 CA        119.2220   13.8600   28.5660 C.3       9 GLL5        0.0000 
      6 CA        120.5240   11.3020   25.6130 C.3       6 GLP5        0.0000 
      7 CA        118.9765   14.1380   26.4700 C.3       3 GLC5        0.0000 
      8 CA        118.7310   14.4160   24.3740 C.3       6 GLP5        0.0000 
      9 N         119.8025   11.5100   28.1625 N.am      2 SEC2        0.0000 
     10 N         118.8620   12.4860   28.3400 N.am      8 SEL2        0.0000 
     11 N         120.7430   10.5340   27.9850 N.am      5 SEP2        0.0000 
     12 CA        116.2150   11.4200   26.9950 C.3       3 GLC5        0.0000 
     13 CA        117.4280   12.4140   28.1630 C.3       9 GLL5        0.0000 
     14 CA        115.0020   10.4260   25.8270 C.3       6 GLP5        0.0000 
     15 CA        118.3395   11.4485   26.7770 C.3       3 GLC5        0.0000 
     16 CA        119.2510   10.4830   25.3910 C.3       6 GLP5        0.0000 
     17 CA        117.4425   13.1940   26.4010 C.3       3 GLC5        0.0000 
     18 CA        117.4570   13.9740   24.6390 C.3       6 GLP5        0.0000 
     19 CA        114.9680   11.9230   28.3820 C.3       3 GLC5        0.0000 
     20 CA        116.7130   12.7510   29.4710 C.3       9 GLL5        0.0000 
     21 CA        113.2230   11.0950   27.2930 C.3       6 GLP5        0.0000 
     22 CA        115.8775   11.3740   30.5200 C.3       3 GLC5        0.0000 
     23 CA        115.0420    9.9970   31.5690 C.3       6 GLP5        0.0000 
     24 CA        116.9085   14.0295   32.4535 C.3       3 GLC5        0.0000 
     25 CA        116.5080   14.7410   30.9220 C.3       9 GLL5        0.0000 
     26 CA        116.7355   15.5960   29.5295 C.3       3 GLC5        0.0000 
     27 CA        116.9630   16.4510   28.1370 C.3       6 GLP5        0.0000 
     28 CA        115.1820   16.0220   29.9100 C.3       3 GLC5        0.0000 
     29 CA        113.8560   17.3030   28.8980 C.3       6 GLP5        0.0000 
     30 CA        116.5980   16.5710   30.1500 C.3       3 GLC5        0.0000 
     31 CA        116.2330   16.6910   32.1630 C.3       9 GLL5        0.0000 
     32 CA        117.3640   20.2285   29.3840 C.3       3 GLC5        0.0000 
     33 CA        117.6400   19.3780   30.7430 C.3       9 GLL5        0.0000 
     34 CA        117.0880   21.0790   28.0250 C.3       6 GLP5        0.0000 
     35 CA        117.3015   17.9145   29.4400 C.3       3 GLC5        0.0000 
     36 CA        114.9490   19.4735   35.2715 C.3       3 GLC5        0.0000 
     37 CA        115.3720   18.4030   33.4980 C.3       9 GLL5        0.0000 
     38 CA        114.5260   20.5440   37.0450 C.3       6 GLP5        0.0000 
     39 CA        112.7895   14.4845   29.4175 C.3       3 GLC5        0.0000 
     40 CA        112.6060   13.5970   31.3850 C.3       9 GLL5        0.0000 
     41 CA        112.9730   15.3720   27.4500 C.3       6 GLP5        0.0000 
     42 CA        110.8845   14.1910   30.3350 C.3       3 GLC5        0.0000 
     43 CA        109.1630   14.7850   29.2850 C.3       6 GLP5        0.0000 
     44 CA        110.8185   13.7805   34.7990 C.3       3 GLC5        0.0000 
     45 CA        110.6180   13.6190   32.5690 C.3       9 GLL5        0.0000 
     46 CA        111.0190   13.9420   37.0290 C.3       6 GLP5        0.0000 
     47 CA        109.7270   11.7060   33.2650 C.3       3 GLC5        0.0000 
     48 CA        108.8360    9.7930   33.9610 C.3       6 GLP5        0.0000 
     49 CA        111.6965   12.2955   33.0395 C.3       3 GLC5        0.0000 
     50 CA        112.7750   10.9720   33.5100 C.3       6 GLP5        0.0000 
     51 CA        110.0105   14.8390   31.3300 C.3       3 GLC5        0.0000 
     52 CA        109.4030   16.0590   30.0910 C.3       6 GLP5        0.0000 
     53 O         108.6905   14.0135   33.8145 O.2       1 ALC1        0.0000 
     54 O         109.3910   13.1390   32.7630 O.2       7 ALL1        0.0000 
     55 O         107.9900   14.8880   34.8660 O.2       4 ALP1        0.0000 
     56 O         108.7905   12.2435   31.4630 O.2       1 ALC1        0.0000 
     57 O         108.1900   11.3480   30.1630 O.2       4 ALP1        0.0000 
     58 N         110.9175   15.4925   34.8245 N.am      2 SEC2        0.0000 
     59 N         111.0850   14.6080   33.3550 N.am      8 SEL2        0.0000 
     60 N         110.7500   16.3770   36.2940 N.am      5 SEP2        0.0000 
     61 CA        111.6605   14.5295   35.1110 C.3       3 GLC5        0.0000 
     62 CA        112.3020   15.1170   33.1930 C.3       9 GLL5        0.0000 
     63 CA        120.6548   12.8953   30.1028 C.3       3 GLC5        0.0000 
     64 CA        122.3260   11.7400   30.9380 C.3       6 GLP5        0.0000 
     65 CA        117.9733   15.2508   28.7022 C.3       3 GLC5        0.0000 
     66 CA        117.0168   14.5168   28.4770 C.3       3 GLC5        0.0000 
     67 CA        115.6728   13.7048   27.8735 C.3       3 GLC5        0.0000 
     68 CA        114.2750   14.8270   26.9300 C.3       6 GLP5        0.0000 
     69 CA        114.3877   17.1202   30.8502 C.3       3 GLC5        0.0000 
     70 CA        114.2620   17.3730   33.3040 C.3       9 GLL5        0.0000 
     71 CA        116.1543   14.5612   33.0540 C.3       3 GLC5        0.0000 
     72 CA        114.4220   15.1070   31.9450 C.3       9 GLL5        0.0000 
     73 CA        113.8135   16.0847   30.4803 C.3       3 GLC5        0.0000 
     74 CA        111.0570   15.4653   31.3888 C.3       3 GLC5        0.0000 
     75 CA        113.1200   14.6260   32.1800 C.3       9 GLL5        0.0000 
     76 CA        112.6788   12.7931   32.9989 C.3       3 GLC5        0.0000 
     77 CA        116.3480   16.8080   34.2140 C.3       3 GLC5        0.0000 
     78 CA        117.4990   16.4210   35.5770 C.3       6 GLP5        0.0000 
@<TRIPOS>BOND
@<TRIPOS>SUBSTRUCTURE
     1 ALC1       53 GROUP        1 X    ALC  0     ROOT ALC X 1
     2 SEC2        9 GROUP        1 X    SEC  0     **** SEC X 2
     3 GLC5        1 GROUP        1 X    GLC  0     **** GLC X 6
     4 ALP1       55 GROUP        1 Y    ALP  0     ROOT ALP Y 8
     5 SEP2       11 GROUP        1 Y    SEP  0     **** SEP Y 9
     6 GLP5        3 GROUP        1 Y    GLP  0     **** GLP Y 13
     7 ALL1       54 GROUP        1 Z    ALL  0     ROOT ALL Z 15
     8 SEL2       10 GROUP        1 Z    SEL  0     **** SEL Z 16
     9 GLL5        2 GROUP        1 Z    GLL  0     **** GLL Z 20
@<TRIPOS>SET

