#    Name: 3apc_MMD_1_ligand
#    Modification time : Mon Mar 24 17:58:31 2014

@<TRIPOS>MOLECULE
3apc_MMD_1_ligand
   45    48     1     0     0
SMALL
NO_CHARGES


@<TRIPOS>ATOM
      1 C1        118.7450   14.2410   29.9690 C.3       1 MMD1        0.0000 
      2 C2        119.2220   13.8600   28.5660 C.3       1 MMD1        0.0000 
      3 O3        118.8620   12.4860   28.3400 O.3       1 MMD1        0.0000 
      4 C4        117.4280   12.4140   28.1630 C.3       1 MMD1        0.0000 
      5 C5        116.7130   12.7510   29.4710 C.3       1 MMD1        0.0000 
      6 N6        117.3130   13.9240   30.1370 N.3       1 MMD1        0.0000 
      7 C7        116.5080   14.7410   30.9220 C.ar      1 MMD1        0.0000 
      8 N8        115.2500   14.3600   31.1880 N.ar      1 MMD1        0.0000 
      9 N9        116.9970   15.8940   31.4000 N.ar      1 MMD1        0.0000 
     10 C10       116.2330   16.6910   32.1630 C.ar      1 MMD1        0.0000 
     11 N11       116.4970   17.8730   32.7180 N.pl3     1 MMD1        0.0000 
     12 S12       117.8480   18.7400   32.3850 S.o2      1 MMD1        0.0000 
     13 C13       117.6400   19.3780   30.7430 C.3       1 MMD1        0.0000 
     14 O14       119.0920   17.9130   32.4470 O.2       1 MMD1        0.0000 
     15 O15       117.9630   19.8670   33.3580 O.2       1 MMD1        0.0000 
     16 C16       115.3720   18.4030   33.4980 C.3       1 MMD1        0.0000 
     17 C17       114.2620   17.3730   33.3040 C.3       1 MMD1        0.0000 
     18 C18       114.9210   16.3130   32.4390 C.ar      1 MMD1        0.0000 
     19 C19       114.4220   15.1070   31.9450 C.ar      1 MMD1        0.0000 
     20 C20       113.1200   14.6260   32.1800 C.ar      1 MMD1        0.0000 
     21 C21       112.6060   13.5970   31.3850 C.ar      1 MMD1        0.0000 
     22 N22       111.3880   13.1180   31.5870 N.ar      1 MMD1        0.0000 
     23 C23       110.6180   13.6190   32.5690 C.ar      1 MMD1        0.0000 
     24 N24       109.3910   13.1390   32.7630 N.pl3     1 MMD1        0.0000 
     25 N27       111.0850   14.6080   33.3550 N.ar      1 MMD1        0.0000 
     26 C28       112.3020   15.1170   33.1930 C.ar      1 MMD1        0.0000 
     27 H         118.9211   15.3107   30.1148 H         1 MMD1        0.0000 
     28 H         119.3477   13.6931   30.6991 H         1 MMD1        0.0000 
     29 H         120.2974   14.0071   28.5245 H         1 MMD1        0.0000 
     30 H         118.7409   14.5251   27.8546 H         1 MMD1        0.0000 
     31 H         117.1153   11.4093   27.8554 H         1 MMD1        0.0000 
     32 H         117.0858   13.1210   27.3982 H         1 MMD1        0.0000 
     33 H         116.7616   11.8715   30.1277 H         1 MMD1        0.0000 
     34 H         115.6537   12.9380   29.2473 H         1 MMD1        0.0000 
     35 H         115.0418   19.3443   33.1129 H         1 MMD1        0.0000 
     36 H         115.6133   18.4599   34.5381 H         1 MMD1        0.0000 
     37 H         113.4517   17.8141   32.7840 H         1 MMD1        0.0000 
     38 H         113.9896   16.9601   34.2404 H         1 MMD1        0.0000 
     39 H         113.2198   13.2206   30.6255 H         1 MMD1        0.0000 
     40 H         108.8631   13.5646   33.4980 H         1 MMD1        0.0000 
     41 H         109.1081   12.3962   32.1562 H         1 MMD1        0.0000 
     42 H         112.6646   15.8727   33.8003 H         1 MMD1        0.0000 
     43 H         118.4264   19.9241   30.4544 H         1 MMD1        0.0000 
     44 H         117.5294   18.6456   30.0712 H         1 MMD1        0.0000 
     45 H         116.8336   19.9650   30.6720 H         1 MMD1        0.0000 
@<TRIPOS>BOND
     1    2    1 1    
     2    6    1 1    
     3   27    1 1    
     4   28    1 1    
     5    3    2 1    
     6   29    2 1    
     7   30    2 1    
     8    4    3 1    
     9    5    4 1    
    10   31    4 1    
    11   32    4 1    
    12    6    5 1    
    13   33    5 1    
    14   34    5 1    
    15    7    6 1    
    16    8    7 ar   
    17    9    7 ar   
    18   19    8 ar   
    19   10    9 ar   
    20   11   10 1    
    21   18   10 ar   
    22   12   11 1    
    23   16   11 1    
    24   13   12 1    
    25   14   12 2    
    26   15   12 2    
    27   43   13 1    
    28   44   13 1    
    29   45   13 1    
    30   17   16 1    
    31   35   16 1    
    32   36   16 1    
    33   18   17 1    
    34   37   17 1    
    35   38   17 1    
    36   19   18 ar   
    37   20   19 1    
    38   21   20 ar   
    39   26   20 ar   
    40   22   21 ar   
    41   39   21 1    
    42   23   22 ar   
    43   24   23 1    
    44   25   23 ar   
    45   40   24 1    
    46   41   24 1    
    47   26   25 ar   
    48   42   26 1    
@<TRIPOS>SUBSTRUCTURE
     1 MMD1        1 GROUP   
@<TRIPOS>SET

