#    Name: 1ykr_628_1_INTS_M
#    Modification time : Tue Mar 25 11:08:52 2014

@<TRIPOS>MOLECULE
1ykr_628_1_INTS_M
   68     0     6     0     0
SMALL
NO_CHARGES


@<TRIPOS>ATOM
      1 CA          1.2375   33.0980    6.1210 C.3       2 GLC5        0.0000 
      2 CA          0.7650   31.8510    7.8860 C.3       6 GLL5        0.0000 
      3 CA          1.7100   34.3450    4.3560 C.3       4 GLP5        0.0000 
      4 CA          3.4735   31.8555    7.1380 C.3       2 GLC5        0.0000 
      5 CA          1.9670   30.4360    6.8060 C.3       6 GLL5        0.0000 
      6 CA          4.9800   33.2750    7.4700 C.3       4 GLP5        0.0000 
      7 N           2.6960   32.5815    6.2310 N.am      1 SEC2        0.0000 
      8 N           1.7880   31.7880    6.9660 N.am      5 SEL2        0.0000 
      9 N           3.6040   33.3750    5.4960 N.am      3 SEP2        0.0000 
     10 CA          1.9485   28.0790    5.5405 C.3       2 GLC5        0.0000 
     11 CA          3.8370   28.6750    6.4330 C.3       6 GLL5        0.0000 
     12 CA          0.0600   27.4830    4.6480 C.3       4 GLP5        0.0000 
     13 CA          3.8770   29.3230    9.5730 C.3       2 GLC5        0.0000 
     14 CA          3.9300   28.1940    7.8030 C.3       6 GLL5        0.0000 
     15 CA          3.8240   30.4520   11.3430 C.3       4 GLP5        0.0000 
     16 CA          5.3995   27.4440   10.0495 C.3       2 GLC5        0.0000 
     17 CA          4.8930   27.2040    8.1400 C.3       6 GLL5        0.0000 
     18 CA          5.9060   27.6840   11.9590 C.3       4 GLP5        0.0000 
     19 CA          0.7725   29.3670   14.1680 C.3       2 GLC5        0.0000 
     20 CA         -0.3020   29.6390   12.5070 C.3       6 GLL5        0.0000 
     21 CA          1.8470   29.0950   15.8290 C.3       4 GLP5        0.0000 
     22 CA          1.7610   30.0455   11.9250 C.3       2 GLC5        0.0000 
     23 CA         -6.0760   29.4185    9.0745 C.3       2 GLC5        0.0000 
     24 CA         -4.6260   29.4180   10.1010 C.3       6 GLL5        0.0000 
     25 CA         -7.5260   29.4190    8.0480 C.3       4 GLP5        0.0000 
     26 CA         -5.4820   31.3445    9.9710 C.3       2 GLC5        0.0000 
     27 CA         -6.3380   33.2710    9.8410 C.3       4 GLP5        0.0000 
     28 N           7.6995   27.1710    9.4280 N.am      1 SEC2        0.0000 
     29 N           7.7810   25.9560    8.5380 N.am      5 SEL2        0.0000 
     30 N           7.6180   28.3860   10.3180 N.am      3 SEP2        0.0000 
     31 CA         -0.4655   32.3768   11.5482 C.3       2 GLC5        0.0000 
     32 CA         -1.2410   31.4100    9.7620 C.3       6 GLL5        0.0000 
     33 CA          0.1340   32.6680   13.5140 C.3       4 GLP5        0.0000 
     34 CA          2.0158   33.7655    8.2920 C.3       2 GLC5        0.0000 
     35 CA          3.5750   35.1010    8.4180 C.3       4 GLP5        0.0000 
     36 CA         -0.4712   34.5005    9.4923 C.3       2 GLC5        0.0000 
     37 CA          0.1480   33.0090    8.4460 C.3       6 GLL5        0.0000 
     38 CA         -0.5720   36.1160   10.0600 C.3       4 GLP5        0.0000 
     39 CA         -1.9657   33.5951    8.3536 C.3       2 GLC5        0.0000 
     40 CA         -3.4730   34.6430    7.6930 C.3       4 GLP5        0.0000 
     41 CA          0.7958   28.7643    5.9253 C.3       2 GLC5        0.0000 
     42 CA          1.0960   29.6550    7.5990 C.3       6 GLL5        0.0000 
     43 CA         -0.1332   30.8622    6.3168 C.3       2 GLC5        0.0000 
     44 CA         -1.7980   31.6790    5.4310 C.3       4 GLP5        0.0000 
     45 CA          2.0303   31.2418    8.9057 C.3       2 GLC5        0.0000 
     46 CA          2.5290   32.4380   10.6090 C.3       4 GLP5        0.0000 
     47 CA          6.0188   29.4309    5.4471 C.3       2 GLC5        0.0000 
     48 CA          5.6520   27.1910    5.7520 C.3       6 GLL5        0.0000 
     49 CA          7.5300   30.6850    4.8840 C.3       4 GLP5        0.0000 
     50 CA          6.8829   28.1587    7.7294 C.3       2 GLC5        0.0000 
     51 CA          5.7450   26.7150    7.0990 C.3       6 GLL5        0.0000 
     52 CA          8.4700   29.2390    8.1760 C.3       4 GLP5        0.0000 
     53 CA         -2.8722   30.0610   13.5485 C.3       2 GLC5        0.0000 
     54 CA         -1.4430   28.9950   12.1060 C.3       6 GLL5        0.0000 
     55 CA         -3.7920   30.7890   15.4130 C.3       4 GLP5        0.0000 
     56 CA         -0.3693   30.9925   12.9102 C.3       2 GLC5        0.0000 
     57 CA         -4.0507   25.3020   11.6427 C.3       2 GLC5        0.0000 
     58 CA         -2.7880   26.9430   12.1700 C.3       6 GLL5        0.0000 
     59 CA         -4.8110   23.3640   11.5230 C.3       4 GLP5        0.0000 
     60 CA         -3.7917   26.6000   10.0023 C.3       2 GLC5        0.0000 
     61 CA         -4.2930   25.9600    8.2420 C.3       4 GLP5        0.0000 
     62 CA         -5.5337   27.6780   10.1410 C.3       2 GLC5        0.0000 
     63 CA         -3.7930   27.5370   11.3550 C.3       6 GLL5        0.0000 
     64 CA         -7.3510   27.1500    9.1620 C.3       4 GLP5        0.0000 
     65 CA         -4.2130   27.5532    9.3675 C.3       2 GLC5        0.0000 
     66 CA         -1.0083   31.9020    7.1129 C.3       2 GLC5        0.0000 
     67 CA         -0.8890   32.7610    9.4030 C.3       6 GLL5        0.0000 
     68 CA          1.1552   32.2815    9.7019 C.3       2 GLC5        0.0000 
@<TRIPOS>BOND
@<TRIPOS>SUBSTRUCTURE
     1 SEC2        7 GROUP        1 X    SEC  0     ROOT SEC X 2
     2 GLC5        1 GROUP        1 X    GLC  0     **** GLC X 6
     3 SEP2        9 GROUP        1 Y    SEP  0     ROOT SEP Y 9
     4 GLP5        3 GROUP        1 Y    GLP  0     **** GLP Y 13
     5 SEL2        8 GROUP        1 Z    SEL  0     ROOT SEL Z 16
     6 GLL5        2 GROUP        1 Z    GLL  0     **** GLL Z 20
@<TRIPOS>SET

