#    Name: 1ykr_628_1_ligand
#    Modification time : Tue Mar 25 11:08:52 2014

@<TRIPOS>MOLECULE
1ykr_628_1_ligand
   44    47     1     0     0
SMALL
NO_CHARGES


@<TRIPOS>ATOM
      1 C1         -1.2410   31.4100    9.7620 C.ar      1 628299      0.0000 
      2 C2         -0.5560   30.3480    9.1260 C.ar      1 628299      0.0000 
      3 N3          0.4010   30.5900    8.2500 N.ar      1 628299      0.0000 
      4 C4          0.7650   31.8510    7.8860 C.ar      1 628299      0.0000 
      5 C5          0.1480   33.0090    8.4460 C.ar      1 628299      0.0000 
      6 C6         -0.8890   32.7610    9.4030 C.ar      1 628299      0.0000 
      7 C10         1.0960   29.6550    7.5990 C.ar      1 628299      0.0000 
      8 C11         1.9670   30.4360    6.8060 C.ar      1 628299      0.0000 
      9 N12         1.7880   31.7880    6.9660 N.ar      1 628299      0.0000 
     10 S1          6.9510   25.4950    7.4530 S.o2      1 628299      0.0000 
     11 C14         5.7450   26.7150    7.0990 C.ar      1 628299      0.0000 
     12 C15         5.6520   27.1910    5.7520 C.ar      1 628299      0.0000 
     13 C16         4.7040   28.1660    5.4230 C.ar      1 628299      0.0000 
     14 C17         3.8370   28.6750    6.4330 C.ar      1 628299      0.0000 
     15 C18         3.9300   28.1940    7.8030 C.ar      1 628299      0.0000 
     16 C19         4.8930   27.2040    8.1400 C.ar      1 628299      0.0000 
     17 C23        -2.2950   31.1080   10.7750 C.2       1 628299      0.0000 
     18 C24        -2.4620   29.6710   11.2620 C.ar      1 628299      0.0000 
     19 C25        -1.4430   28.9950   12.1060 C.ar      1 628299      0.0000 
     20 C26        -1.6360   27.6710   12.5460 C.ar      1 628299      0.0000 
     21 C27        -2.7880   26.9430   12.1700 C.ar      1 628299      0.0000 
     22 C28        -3.7930   27.5370   11.3550 C.ar      1 628299      0.0000 
     23 C29        -3.6400   28.8750   10.8850 C.ar      1 628299      0.0000 
     24 O33        -3.0090   31.9910   11.2560 O.2       1 628299      0.0000 
     25 O34         7.5810   25.1800    6.1970 O.2       1 628299      0.0000 
     26 N35         2.8940   29.6640    5.9640 N.pl3     1 628299      0.0000 
     27 CL2        -0.3020   29.6390   12.5070 Cl        1 628299      0.0000 
     28 CL1        -4.6260   29.4180   10.1010 Cl        1 628299      0.0000 
     29 N1          6.2290   24.1310    7.9880 N.pl3     1 628299      0.0000 
     30 O1          7.7810   25.9560    8.5380 O.2       1 628299      0.0000 
     31 H          -0.8413   29.3783    9.3806 H         1 628299      0.0000 
     32 H           0.4158   33.9225    8.1927 H         1 628299      0.0000 
     33 H          -1.3808   33.5383    9.8328 H         1 628299      0.0000 
     34 H           1.0582   28.7400    7.6231 H         1 628299      0.0000 
     35 H           6.2807   26.8119    5.0458 H         1 628299      0.0000 
     36 H           4.6248   28.5176    4.4703 H         1 628299      0.0000 
     37 H           3.3052   28.5718    8.5022 H         1 628299      0.0000 
     38 H           4.9762   26.8565    9.0758 H         1 628299      0.0000 
     39 H          -0.9319   27.2266   13.1480 H         1 628299      0.0000 
     40 H          -2.9053   25.9751   12.4858 H         1 628299      0.0000 
     41 H          -4.6254   27.0051   11.1058 H         1 628299      0.0000 
     42 H           2.8595   29.8558    4.9333 H         1 628299      0.0000 
     43 H           6.8380   23.3718    8.2176 H         1 628299      0.0000 
     44 H           5.2310   24.1554    8.0467 H         1 628299      0.0000 
@<TRIPOS>BOND
     1    2    1 ar   
     2    6    1 ar   
     3   17    1 1    
     4    3    2 ar   
     5   31    2 1    
     6    4    3 ar   
     7    7    3 ar   
     8    5    4 ar   
     9    9    4 ar   
    10    6    5 ar   
    11   32    5 1    
    12   33    6 1    
    13    8    7 ar   
    14   34    7 1    
    15    9    8 ar   
    16   26    8 1    
    17   11   10 1    
    18   25   10 2    
    19   29   10 1    
    20   30   10 2    
    21   12   11 ar   
    22   16   11 ar   
    23   13   12 ar   
    24   35   12 1    
    25   14   13 ar   
    26   36   13 1    
    27   15   14 ar   
    28   26   14 1    
    29   16   15 ar   
    30   37   15 1    
    31   38   16 1    
    32   18   17 1    
    33   24   17 2    
    34   19   18 ar   
    35   23   18 ar   
    36   20   19 ar   
    37   27   19 1    
    38   21   20 ar   
    39   39   20 1    
    40   22   21 ar   
    41   40   21 1    
    42   23   22 ar   
    43   41   22 1    
    44   28   23 1    
    45   42   26 1    
    46   43   29 1    
    47   44   29 1    
@<TRIPOS>SUBSTRUCTURE
     1 628299      1 GROUP   
@<TRIPOS>SET

