#    Name: 2H39_1_CAVITY_N1_ALL.mol2
#    Modification time : Mon Mar 10 15:55:43 2014

@<TRIPOS>MOLECULE
2H39_1_CAVITY_N1_ALL.mol2
  118     0     7     0     0
SMALL
NO_CHARGES


@<TRIPOS>ATOM
      1 CA          3.8472   -0.6097  -29.8619 C.3       6 GLY6        0.0000 
      2 N           3.3951   -0.6122  -28.4317 N.2       2 ALA2        0.0000 
      3 CA          5.7473    0.1165  -29.2599 C.3       6 GLY6        0.0000 
      4 CA          5.2951    0.1140  -27.8297 C.3       6 GLY6        0.0000 
      5 CA          4.8430    0.1115  -26.3995 C.3       6 GLY6        0.0000 
      6 OD1         4.6918   -1.2457  -28.0229 O.3       3 ASP3        0.0000 
      7 O           4.2397   -1.2482  -26.5926 O.2       2 ALA2        0.0000 
      8 N           3.9374   -3.9625  -29.8394 N.2       2 ALA2        0.0000 
      9 CA          8.8540    3.5621  -28.2716 C.3       6 GLY6        0.0000 
     10 N           8.4018    3.5595  -26.8414 N.2       2 ALA2        0.0000 
     11 OG          8.2507    2.2024  -28.4648 O.2       1 SER1        0.0000 
     12 N           7.7985    2.1999  -27.0346 N.2       2 ALA2        0.0000 
     13 OG          7.6474    0.8427  -28.6579 O.2       1 SER1        0.0000 
     14 OG          7.1952    0.8402  -27.2277 O.2       1 SER1        0.0000 
     15 N           6.7430    0.8377  -25.7975 N.2       2 ALA2        0.0000 
     16 O           6.5919   -0.5195  -27.4209 O.2       2 ALA2        0.0000 
     17 O           6.1397   -0.5220  -25.9907 O.2       2 ALA2        0.0000 
     18 O           5.9886   -1.8791  -27.6140 O.2       2 ALA2        0.0000 
     19 O           3.7278   -1.8919  -20.4629 O.2       2 ALA2        0.0000 
     20 O           5.3853   -3.2388  -27.8072 O.2       2 ALA2        0.0000 
     21 DU          5.2341   -4.5959  -29.4306 H         7 CUB7        0.0000 
     22 O           4.7820   -4.5985  -28.0003 O.2       2 ALA2        0.0000 
     23 CA          4.6308   -5.9556  -29.6237 C.3       6 GLY6        0.0000 
     24 CA          4.1786   -5.9582  -28.1935 C.3       6 GLY6        0.0000 
     25 N           9.6986    2.9261  -26.4326 N.2       2 ALA2        0.0000 
     26 DU          9.5474    1.5689  -28.0560 H         7 CUB7        0.0000 
     27 N           9.0953    1.5664  -26.6257 N.2       2 ALA2        0.0000 
     28 N           8.6431    1.5639  -25.1955 N.2       2 ALA2        0.0000 
     29 DU          8.4919    0.2067  -26.8189 H         7 CUB7        0.0000 
     30 N           8.0398    0.2042  -25.3887 N.2       2 ALA2        0.0000 
     31 O           7.8886   -1.1529  -27.0120 O.2       2 ALA2        0.0000 
     32 O           7.4365   -1.1555  -25.5818 O.2       2 ALA2        0.0000 
     33 N           6.0800   -1.1631  -21.2911 N.2       2 ALA2        0.0000 
     34 O           7.2853   -2.5126  -27.2052 O.2       2 ALA2        0.0000 
     35 O           5.4767   -2.5228  -21.4843 O.2       2 ALA2        0.0000 
     36 O           5.0245   -2.5253  -20.0541 O.2       2 ALA2        0.0000 
     37 O           4.5724   -2.5279  -18.6238 O.2       2 ALA2        0.0000 
     38 DU          7.1342   -3.8697  -28.8286 H         7 CUB7        0.0000 
     39 O           6.6820   -3.8723  -27.3983 O.2       2 ALA2        0.0000 
     40 O           3.9690   -3.8876  -18.8170 O.2       2 ALA2        0.0000 
     41 CZ          3.5169   -3.8901  -17.3868 C.ar      5 PHE5        0.0000 
     42 DU          6.5309   -5.2294  -29.0217 H         7 CUB7        0.0000 
     43 O           6.0787   -5.2320  -27.5915 O.2       2 ALA2        0.0000 
     44 O           3.3657   -5.2472  -19.0101 O.2       2 ALA2        0.0000 
     45 N           2.9136   -5.2498  -17.5799 N.2       2 ALA2        0.0000 
     46 DU          5.9276   -6.5891  -29.2149 H         7 CUB7        0.0000 
     47 O           5.4754   -6.5916  -27.7847 O.2       2 ALA2        0.0000 
     48 O           5.0232   -6.5942  -26.3544 O.2       2 ALA2        0.0000 
     49 CA          4.1189   -6.5993  -23.4940 C.3       6 GLY6        0.0000 
     50 CA          5.3242   -7.9488  -29.4080 C.3       6 GLY6        0.0000 
     51 CA          4.8721   -7.9513  -27.9778 C.3       6 GLY6        0.0000 
     52 N          10.3920    0.9329  -26.2169 N.2       2 ALA2        0.0000 
     53 N           9.9398    0.9304  -24.7867 N.2       2 ALA2        0.0000 
     54 DU          9.7887   -0.4267  -26.4100 H         7 CUB7        0.0000 
     55 CA          9.3365   -0.4293  -24.9798 C.3       6 GLY6        0.0000 
     56 CA          9.1854   -1.7864  -26.6032 C.3       6 GLY6        0.0000 
     57 O           8.7332   -1.7890  -25.1730 O.2       2 ALA2        0.0000 
     58 N           8.2811   -1.7915  -23.7428 N.2       2 ALA2        0.0000 
     59 N           7.8289   -1.7940  -22.3125 N.2       2 ALA2        0.0000 
     60 N           7.3767   -1.7966  -20.8823 N.2       2 ALA2        0.0000 
     61 O           6.9246   -1.7991  -19.4521 O.2       2 ALA2        0.0000 
     62 CA          8.5821   -3.1461  -26.7964 C.3       6 GLY6        0.0000 
     63 O           8.1299   -3.1486  -25.3661 O.2       2 ALA2        0.0000 
     64 O           7.6778   -3.1512  -23.9359 O.2       2 ALA2        0.0000 
     65 O           7.2256   -3.1537  -22.5057 O.2       2 ALA2        0.0000 
     66 O           6.7734   -3.1563  -21.0755 O.2       2 ALA2        0.0000 
     67 O           6.3213   -3.1588  -19.6452 O.2       2 ALA2        0.0000 
     68 CZ          5.8691   -3.1613  -18.2150 C.ar      5 PHE5        0.0000 
     69 CA          8.4309   -4.5032  -28.4197 C.3       6 GLY6        0.0000 
     70 OG          7.9788   -4.5058  -26.9895 O.2       1 SER1        0.0000 
     71 OG          7.5266   -4.5083  -25.5593 O.2       1 SER1        0.0000 
     72 O           7.0744   -4.5108  -24.1291 O.2       2 ALA2        0.0000 
     73 O           6.6223   -4.5134  -22.6988 O.2       2 ALA2        0.0000 
     74 O           6.1701   -4.5159  -21.2686 O.2       2 ALA2        0.0000 
     75 O           5.7180   -4.5185  -19.8384 O.2       2 ALA2        0.0000 
     76 CA          5.2658   -4.5210  -18.4082 C.3       6 GLY6        0.0000 
     77 CZ          4.8136   -4.5236  -16.9779 C.ar      5 PHE5        0.0000 
     78 OG          7.8276   -5.8629  -28.6129 O.2       1 SER1        0.0000 
     79 OG          7.3755   -5.8654  -27.1827 O.2       1 SER1        0.0000 
     80 OG          6.9233   -5.8680  -25.7524 O.2       1 SER1        0.0000 
     81 O           6.4711   -5.8705  -24.3222 O.2       2 ALA2        0.0000 
     82 O           6.0190   -5.8731  -22.8920 O.2       2 ALA2        0.0000 
     83 O           5.5668   -5.8756  -21.4618 O.2       2 ALA2        0.0000 
     84 CA          5.1146   -5.8781  -20.0315 C.3       6 GLY6        0.0000 
     85 CA          4.2103   -5.8832  -17.1711 C.3       6 GLY6        0.0000 
     86 CA          7.2243   -7.2226  -28.8060 C.3       6 GLY6        0.0000 
     87 CA          6.7721   -7.2251  -27.3758 C.3       6 GLY6        0.0000 
     88 CA          6.3200   -7.2276  -25.9456 C.3       6 GLY6        0.0000 
     89 O           5.8678   -7.2302  -24.5154 O.2       2 ALA2        0.0000 
     90 CA          5.4157   -7.2327  -23.0851 C.3       6 GLY6        0.0000 
     91 CA          4.9635   -7.2353  -21.6549 C.3       6 GLY6        0.0000 
     92 CA          5.2645   -8.5899  -24.7085 C.3       6 GLY6        0.0000 
     93 N          11.6888    0.2995  -25.8081 N.2       2 ALA2        0.0000 
     94 N          11.2366    0.2969  -24.3778 N.2       2 ALA2        0.0000 
     95 O          11.0855   -1.0602  -26.0012 O.2       2 ALA2        0.0000 
     96 O          10.6333   -1.0628  -24.5710 O.2       2 ALA2        0.0000 
     97 CA         10.1811   -1.0653  -23.1408 C.3       6 GLY6        0.0000 
     98 O          10.0300   -2.4224  -24.7641 O.2       2 ALA2        0.0000 
     99 N           9.5778   -2.4250  -23.3339 N.2       2 ALA2        0.0000 
    100 N           9.1257   -2.4275  -21.9037 N.2       2 ALA2        0.0000 
    101 N           8.5223   -3.7872  -22.0968 N.2       2 ALA2        0.0000 
    102 O           8.0702   -3.7897  -20.6666 O.2       2 ALA2        0.0000 
    103 NZ          7.6180   -3.7923  -19.2364 N.2       4 LYS4        0.0000 
    104 N           8.3712   -5.1443  -23.7202 N.2       2 ALA2        0.0000 
    105 N           7.9190   -5.1469  -22.2900 N.2       2 ALA2        0.0000 
    106 NZ          7.4669   -5.1494  -20.8598 N.2       4 LYS4        0.0000 
    107 OG          7.7679   -6.5040  -23.9134 O.2       1 SER1        0.0000 
    108 NZ          7.3157   -6.5065  -22.4831 N.2       4 LYS4        0.0000 
    109 NZ          6.8636   -6.5091  -21.0529 N.2       4 LYS4        0.0000 
    110 OG          8.0689   -7.8586  -26.9670 O.2       1 SER1        0.0000 
    111 CA          7.6167   -7.8611  -25.5368 C.3       6 GLY6        0.0000 
    112 N           7.1646   -7.8637  -24.1065 N.2       2 ALA2        0.0000 
    113 N           6.7124   -7.8662  -22.6763 N.2       2 ALA2        0.0000 
    114 O          12.9855   -0.3340  -25.3992 O.2       2 ALA2        0.0000 
    115 N           9.0646   -7.1375  -23.5045 N.2       2 ALA2        0.0000 
    116 NZ          8.6125   -7.1400  -22.0743 N.2       4 LYS4        0.0000 
    117 OG          8.9135   -8.4946  -25.1279 O.2       1 SER1        0.0000 
    118 N           8.4613   -8.4971  -23.6977 N.2       2 ALA2        0.0000 
@<TRIPOS>BOND
@<TRIPOS>SUBSTRUCTURE
     1 SER1       11 GROUP   
     2 ALA2        2 GROUP   
     3 ASP3        6 GROUP   
     4 LYS4      103 GROUP   
     5 PHE5       41 GROUP   
     6 GLY6        1 GROUP   
     7 CUB7       21 GROUP   
@<TRIPOS>SET

