#    Name: 2H39_1_CAVITY_N1_6.mol2
#    Modification time : Mon Mar 10 15:55:43 2014

@<TRIPOS>MOLECULE
2H39_1_CAVITY_N1_6.mol2
   94     0     7     0     0
SMALL
NO_CHARGES


@<TRIPOS>ATOM
      1 N           3.3951   -0.6122  -28.4317 N.2       2 ALA2        0.0000 
      2 CA          5.2951    0.1140  -27.8297 C.3       6 GLY6        0.0000 
      3 CA          4.8430    0.1115  -26.3995 C.3       6 GLY6        0.0000 
      4 OD1         4.6918   -1.2457  -28.0229 O.3       3 ASP3        0.0000 
      5 O           4.2397   -1.2482  -26.5926 O.2       2 ALA2        0.0000 
      6 N           7.7985    2.1999  -27.0346 N.2       2 ALA2        0.0000 
      7 OG          7.1952    0.8402  -27.2277 O.2       1 SER1        0.0000 
      8 N           6.7430    0.8377  -25.7975 N.2       2 ALA2        0.0000 
      9 O           6.5919   -0.5195  -27.4209 O.2       2 ALA2        0.0000 
     10 O           6.1397   -0.5220  -25.9907 O.2       2 ALA2        0.0000 
     11 O           5.9886   -1.8791  -27.6140 O.2       2 ALA2        0.0000 
     12 O           3.7278   -1.8919  -20.4629 O.2       2 ALA2        0.0000 
     13 O           5.3853   -3.2388  -27.8072 O.2       2 ALA2        0.0000 
     14 N           9.0953    1.5664  -26.6257 N.2       2 ALA2        0.0000 
     15 N           8.6431    1.5639  -25.1955 N.2       2 ALA2        0.0000 
     16 DU          8.4919    0.2067  -26.8189 H         7 CUB7        0.0000 
     17 N           8.0398    0.2042  -25.3887 N.2       2 ALA2        0.0000 
     18 O           7.8886   -1.1529  -27.0120 O.2       2 ALA2        0.0000 
     19 O           7.4365   -1.1555  -25.5818 O.2       2 ALA2        0.0000 
     20 N           6.0800   -1.1631  -21.2911 N.2       2 ALA2        0.0000 
     21 O           7.2853   -2.5126  -27.2052 O.2       2 ALA2        0.0000 
     22 O           5.4767   -2.5228  -21.4843 O.2       2 ALA2        0.0000 
     23 O           5.0245   -2.5253  -20.0541 O.2       2 ALA2        0.0000 
     24 O           4.5724   -2.5279  -18.6238 O.2       2 ALA2        0.0000 
     25 O           6.6820   -3.8723  -27.3983 O.2       2 ALA2        0.0000 
     26 O           3.9690   -3.8876  -18.8170 O.2       2 ALA2        0.0000 
     27 CZ          3.5169   -3.8901  -17.3868 C.ar      5 PHE5        0.0000 
     28 O           6.0787   -5.2320  -27.5915 O.2       2 ALA2        0.0000 
     29 O           3.3657   -5.2472  -19.0101 O.2       2 ALA2        0.0000 
     30 N           2.9136   -5.2498  -17.5799 N.2       2 ALA2        0.0000 
     31 O           5.0232   -6.5942  -26.3544 O.2       2 ALA2        0.0000 
     32 CA          4.1189   -6.5993  -23.4940 C.3       6 GLY6        0.0000 
     33 N          10.3920    0.9329  -26.2169 N.2       2 ALA2        0.0000 
     34 N           9.9398    0.9304  -24.7867 N.2       2 ALA2        0.0000 
     35 DU          9.7887   -0.4267  -26.4100 H         7 CUB7        0.0000 
     36 CA          9.3365   -0.4293  -24.9798 C.3       6 GLY6        0.0000 
     37 CA          9.1854   -1.7864  -26.6032 C.3       6 GLY6        0.0000 
     38 O           8.7332   -1.7890  -25.1730 O.2       2 ALA2        0.0000 
     39 N           8.2811   -1.7915  -23.7428 N.2       2 ALA2        0.0000 
     40 N           7.8289   -1.7940  -22.3125 N.2       2 ALA2        0.0000 
     41 N           7.3767   -1.7966  -20.8823 N.2       2 ALA2        0.0000 
     42 O           6.9246   -1.7991  -19.4521 O.2       2 ALA2        0.0000 
     43 CA          8.5821   -3.1461  -26.7964 C.3       6 GLY6        0.0000 
     44 O           8.1299   -3.1486  -25.3661 O.2       2 ALA2        0.0000 
     45 O           7.6778   -3.1512  -23.9359 O.2       2 ALA2        0.0000 
     46 O           7.2256   -3.1537  -22.5057 O.2       2 ALA2        0.0000 
     47 O           6.7734   -3.1563  -21.0755 O.2       2 ALA2        0.0000 
     48 O           6.3213   -3.1588  -19.6452 O.2       2 ALA2        0.0000 
     49 CZ          5.8691   -3.1613  -18.2150 C.ar      5 PHE5        0.0000 
     50 OG          7.9788   -4.5058  -26.9895 O.2       1 SER1        0.0000 
     51 OG          7.5266   -4.5083  -25.5593 O.2       1 SER1        0.0000 
     52 O           7.0744   -4.5108  -24.1291 O.2       2 ALA2        0.0000 
     53 O           6.6223   -4.5134  -22.6988 O.2       2 ALA2        0.0000 
     54 O           6.1701   -4.5159  -21.2686 O.2       2 ALA2        0.0000 
     55 O           5.7180   -4.5185  -19.8384 O.2       2 ALA2        0.0000 
     56 CA          5.2658   -4.5210  -18.4082 C.3       6 GLY6        0.0000 
     57 CZ          4.8136   -4.5236  -16.9779 C.ar      5 PHE5        0.0000 
     58 OG          7.3755   -5.8654  -27.1827 O.2       1 SER1        0.0000 
     59 OG          6.9233   -5.8680  -25.7524 O.2       1 SER1        0.0000 
     60 O           6.4711   -5.8705  -24.3222 O.2       2 ALA2        0.0000 
     61 O           6.0190   -5.8731  -22.8920 O.2       2 ALA2        0.0000 
     62 O           5.5668   -5.8756  -21.4618 O.2       2 ALA2        0.0000 
     63 CA          5.1146   -5.8781  -20.0315 C.3       6 GLY6        0.0000 
     64 CA          4.2103   -5.8832  -17.1711 C.3       6 GLY6        0.0000 
     65 CA          6.3200   -7.2276  -25.9456 C.3       6 GLY6        0.0000 
     66 O           5.8678   -7.2302  -24.5154 O.2       2 ALA2        0.0000 
     67 CA          5.4157   -7.2327  -23.0851 C.3       6 GLY6        0.0000 
     68 CA          4.9635   -7.2353  -21.6549 C.3       6 GLY6        0.0000 
     69 CA          5.2645   -8.5899  -24.7085 C.3       6 GLY6        0.0000 
     70 N          11.6888    0.2995  -25.8081 N.2       2 ALA2        0.0000 
     71 N          11.2366    0.2969  -24.3778 N.2       2 ALA2        0.0000 
     72 O          11.0855   -1.0602  -26.0012 O.2       2 ALA2        0.0000 
     73 O          10.6333   -1.0628  -24.5710 O.2       2 ALA2        0.0000 
     74 CA         10.1811   -1.0653  -23.1408 C.3       6 GLY6        0.0000 
     75 O          10.0300   -2.4224  -24.7641 O.2       2 ALA2        0.0000 
     76 N           9.5778   -2.4250  -23.3339 N.2       2 ALA2        0.0000 
     77 N           9.1257   -2.4275  -21.9037 N.2       2 ALA2        0.0000 
     78 N           8.5223   -3.7872  -22.0968 N.2       2 ALA2        0.0000 
     79 O           8.0702   -3.7897  -20.6666 O.2       2 ALA2        0.0000 
     80 NZ          7.6180   -3.7923  -19.2364 N.2       4 LYS4        0.0000 
     81 N           8.3712   -5.1443  -23.7202 N.2       2 ALA2        0.0000 
     82 N           7.9190   -5.1469  -22.2900 N.2       2 ALA2        0.0000 
     83 NZ          7.4669   -5.1494  -20.8598 N.2       4 LYS4        0.0000 
     84 OG          7.7679   -6.5040  -23.9134 O.2       1 SER1        0.0000 
     85 NZ          7.3157   -6.5065  -22.4831 N.2       4 LYS4        0.0000 
     86 NZ          6.8636   -6.5091  -21.0529 N.2       4 LYS4        0.0000 
     87 OG          8.0689   -7.8586  -26.9670 O.2       1 SER1        0.0000 
     88 CA          7.6167   -7.8611  -25.5368 C.3       6 GLY6        0.0000 
     89 N           7.1646   -7.8637  -24.1065 N.2       2 ALA2        0.0000 
     90 N           6.7124   -7.8662  -22.6763 N.2       2 ALA2        0.0000 
     91 N           9.0646   -7.1375  -23.5045 N.2       2 ALA2        0.0000 
     92 NZ          8.6125   -7.1400  -22.0743 N.2       4 LYS4        0.0000 
     93 OG          8.9135   -8.4946  -25.1279 O.2       1 SER1        0.0000 
     94 N           8.4613   -8.4971  -23.6977 N.2       2 ALA2        0.0000 
@<TRIPOS>BOND
@<TRIPOS>SUBSTRUCTURE
     1 SER1        7 GROUP   
     2 ALA2        1 GROUP   
     3 ASP3        4 GROUP   
     4 LYS4       80 GROUP   
     5 PHE5       27 GROUP   
     6 GLY6        2 GROUP   
     7 CUB7       16 GROUP   
@<TRIPOS>SET

