#    Name: 2h39_ADQ_1_INTS_M
#    Modification time : Tue Mar 25 15:28:18 2014

@<TRIPOS>MOLECULE
2h39_ADQ_1_INTS_M
  107     0    12     0     0
SMALL
NO_CHARGES


@<TRIPOS>ATOM
      1 NZ          2.7355   -3.3115  -20.9640 N.4       3 LYC4        0.0000 
      2 NZ          2.7480   -1.6840  -20.3740 N.4      11 LYL4        0.0000 
      3 NZ          1.4490   -5.2010  -21.7290 N.4       7 LYP4        0.0000 
      4 N           2.6545   -1.0575  -18.9060 N.am      2 SEC2        0.0000 
      5 N           2.7480   -1.6840  -20.3740 N.am     10 SEL2        0.0000 
      6 N           2.5610   -0.4310  -17.4380 N.am      6 SEP2        0.0000 
      7 N           2.7355   -3.3115  -20.9640 N.am      2 SEC2        0.0000 
      8 N           2.7230   -4.9390  -21.5540 N.am      6 SEP2        0.0000 
      9 NZ          3.0045   -1.5380  -23.6420 N.4       3 LYC4        0.0000 
     10 NZ          3.0280   -0.6480  -22.6660 N.4      11 LYL4        0.0000 
     11 NZ          4.0010   -3.2350  -24.8980 N.4       7 LYP4        0.0000 
     12 N           2.6335    0.3995  -23.3310 N.am      2 SEC2        0.0000 
     13 N           3.0280   -0.6480  -22.6660 N.am     10 SEL2        0.0000 
     14 N           2.2390    1.4470  -23.9960 N.am      6 SEP2        0.0000 
     15 N           3.0045   -1.5380  -23.6420 N.am      2 SEC2        0.0000 
     16 N           2.9810   -2.4280  -24.6180 N.am      6 SEP2        0.0000 
     17 N           5.1350   -2.2185  -23.1285 N.am      2 SEC2        0.0000 
     18 N           5.0340   -1.5920  -21.6300 N.am     10 SEL2        0.0000 
     19 N           5.2360   -2.8450  -24.6270 N.am      6 SEP2        0.0000 
     20 N           3.9790    2.9755  -22.1330 N.am      2 SEC2        0.0000 
     21 N           3.3650    3.0370  -20.8860 N.am     10 SEL2        0.0000 
     22 N           4.5930    2.9140  -23.3800 N.am      6 SEP2        0.0000 
     23 N           2.7875    3.7820  -22.1660 N.am      2 SEC2        0.0000 
     24 N           2.2100    4.5270  -23.4460 N.am      6 SEP2        0.0000 
     25 N           4.9015    1.1240  -18.3150 N.am      2 SEC2        0.0000 
     26 N           3.6700    1.8590  -18.6270 N.am     10 SEL2        0.0000 
     27 N           6.1330    0.3890  -18.0030 N.am      6 SEP2        0.0000 
     28 N           5.1045    0.4710  -19.3450 N.am      2 SEC2        0.0000 
     29 N           4.0760    0.5530  -20.6870 N.am     10 SEL2        0.0000 
     30 CA         -1.9310    0.3815  -19.1020 C.3       4 GLC5        0.0000 
     31 CA         -0.4110    0.6090  -20.7060 C.3      12 GLL5        0.0000 
     32 CA         -3.4510    0.1540  -17.4980 C.3       8 GLP5        0.0000 
     33 N          -0.8950   -2.1575  -19.8000 N.am      2 SEC2        0.0000 
     34 N           0.1950   -1.7210  -20.7900 N.am     10 SEL2        0.0000 
     35 N          -1.9850   -2.5940  -18.8100 N.am      6 SEP2        0.0000 
     36 N           0.3785   -2.9860  -21.1605 N.am      2 SEC2        0.0000 
     37 N           0.5620   -4.2510  -21.5310 N.am      6 SEP2        0.0000 
     38 CA         -2.5385   -1.7665  -23.8645 C.3       4 GLC5        0.0000 
     39 CA         -1.3530   -0.8510  -22.4700 C.3      12 GLL5        0.0000 
     40 CA         -3.7240   -2.6820  -25.2590 C.3       8 GLP5        0.0000 
     41 O          -2.4920   -2.7335  -21.5405 O.2       1 ALC1        0.0000 
     42 O          -1.7500   -2.2420  -22.4650 O.2       9 ALL1        0.0000 
     43 O          -3.2340   -3.2250  -20.6160 O.2       5 ALP1        0.0000 
     44 CA         -3.2270    1.8900  -21.0790 C.3       4 GLC5        0.0000 
     45 CA         -2.3970   -0.0280  -21.7130 C.3      12 GLL5        0.0000 
     46 CA         -4.0570    3.8080  -20.4450 C.3       8 GLP5        0.0000 
     47 CA         -2.9240    0.0630  -19.6055 C.3       4 GLC5        0.0000 
     48 CA         -8.7050    2.2255  -22.4995 C.3       4 GLC5        0.0000 
     49 CA         -6.7670    1.6390  -23.0700 C.3      12 GLL5        0.0000 
     50 CA        -10.6430    2.8120  -21.9290 C.3       8 GLP5        0.0000 
     51 CA         -7.3415    0.3655  -24.1705 C.3       4 GLC5        0.0000 
     52 CA         -7.9160   -0.9080  -25.2710 C.3       8 GLP5        0.0000 
     53 O          -8.7065    2.8140  -24.3475 O.2       1 ALC1        0.0000 
     54 O          -7.4140    2.3060  -24.0460 O.2       9 ALL1        0.0000 
     55 O          -9.9990    3.3220  -24.6490 O.2       5 ALP1        0.0000 
     56 N          -8.9995    0.8715  -21.5050 N.am      2 SEC2        0.0000 
     57 N          -7.4390    1.1970  -21.9750 N.am     10 SEL2        0.0000 
     58 N         -10.5600    0.5460  -21.0350 N.am      6 SEP2        0.0000 
     59 CA         -8.4120   -0.6005  -20.5620 C.3       4 GLC5        0.0000 
     60 CA         -6.7780    0.5260  -21.0080 C.3      12 GLL5        0.0000 
     61 CA        -10.0460   -1.7270  -20.1160 C.3       8 GLP5        0.0000 
     62 CA         -7.3020    1.5015  -19.5450 C.3       4 GLC5        0.0000 
     63 CA         -7.8260    2.4770  -18.0820 C.3       8 GLP5        0.0000 
     64 CA         -6.1420   -1.1900  -19.8600 C.3       4 GLC5        0.0000 
     65 CA         -5.5060   -2.9060  -18.7120 C.3       8 GLP5        0.0000 
     66 CA         -6.8655   -0.7680  -22.1590 C.3       4 GLC5        0.0000 
     67 CA         -6.9530   -2.0620  -23.3100 C.3       8 GLP5        0.0000 
     68 N          -5.8060   -1.2540  -21.0840 N.am      2 SEC2        0.0000 
     69 N          -5.4540    0.2790  -21.1040 N.am     10 SEL2        0.0000 
     70 N          -6.1580   -2.7870  -21.0640 N.am      6 SEP2        0.0000 
     71 CA          8.5210   -2.0760  -19.6880 C.3       4 GLC5        0.0000 
     72 CA          7.3350   -2.2470  -21.5190 C.3      12 GLL5        0.0000 
     73 CA          9.7070   -1.9050  -17.8570 C.3       8 GLP5        0.0000 
     74 CA          9.2950   -4.2275  -20.2080 C.3       4 GLC5        0.0000 
     75 CA          7.0620   -4.2890  -20.1930 C.3      12 GLL5        0.0000 
     76 CA         11.5280   -4.1660  -20.2230 C.3       8 GLP5        0.0000 
     77 CA          5.2650   -2.9170  -16.6295 C.3       4 GLC5        0.0000 
     78 CA          5.7730   -4.0470  -18.0540 C.3      12 GLL5        0.0000 
     79 CA          4.7570   -1.7870  -15.2050 C.3       8 GLP5        0.0000 
     80 CA          5.9875   -4.9045  -16.4675 C.3       4 GLC5        0.0000 
     81 CA          6.2020   -5.7620  -14.8810 C.3       8 GLP5        0.0000 
     82 CA          5.2930   -6.1415  -18.2665 C.3       4 GLC5        0.0000 
     83 CA          4.8130   -8.2360  -18.4790 C.3       8 GLP5        0.0000 
     84 O           7.2845   -0.4065  -22.5815 O.2       1 ALC1        0.0000 
     85 O           7.4360   -1.6980  -22.8080 O.2       9 ALL1        0.0000 
     86 O           7.1330    0.8850  -22.3550 O.2       5 ALP1        0.0000 
     87 O           7.5755   -6.4490  -19.6050 O.2       1 ALC1        0.0000 
     88 O           6.7930   -5.7040  -20.2230 O.2       9 ALL1        0.0000 
     89 O           8.3580   -7.1940  -18.9870 O.2       5 ALP1        0.0000 
     90 N           7.3235   -3.7245  -15.8435 N.am      2 SEC2        0.0000 
     91 N           6.8830   -3.6350  -17.2520 N.am     10 SEL2        0.0000 
     92 N           7.7640   -3.8140  -14.4350 N.am      6 SEP2        0.0000 
     93 O           7.9520   -4.5970  -17.5065 O.2       1 ALC1        0.0000 
     94 O           6.8830   -3.6350  -17.2520 O.2       9 ALL1        0.0000 
     95 O           9.0210   -5.5590  -17.7610 O.2       5 ALP1        0.0000 
     96 CA         -0.3412    2.6707  -21.8483 C.3       4 GLC5        0.0000 
     97 CA          0.6200    1.7140  -20.8430 C.3      12 GLL5        0.0000 
     98 CA         -0.7870    4.1800  -22.9220 C.3       8 GLP5        0.0000 
     99 CA          0.4175   -1.7422  -23.4425 C.3       4 GLC5        0.0000 
    100 CA         -0.1090   -0.5900  -21.6200 C.3      12 GLL5        0.0000 
    101 CA          1.5660   -2.7640  -24.8400 C.3       8 GLP5        0.0000 
    102 CA         -6.0080   -0.5085  -22.9975 C.3       4 GLC5        0.0000 
    103 CA         -4.7390    0.6990  -22.1820 C.3      12 GLL5        0.0000 
    104 CA          8.0880   -0.4193  -21.4470 C.3       4 GLC5        0.0000 
    105 CA          6.1950   -1.5120  -20.8070 C.3      12 GLL5        0.0000 
    106 CA          9.4110    1.0410  -21.7310 C.3       8 GLP5        0.0000 
    107 CA          7.9194   -2.9472  -18.4021 C.3       4 GLC5        0.0000 
@<TRIPOS>BOND
@<TRIPOS>SUBSTRUCTURE
     1 ALC1       41 GROUP        1 X    ALC  0     ROOT ALC X 1
     2 SEC2        4 GROUP        1 X    SEC  0     **** SEC X 2
     3 LYC4        1 GROUP        1 X    LYC  0     **** LYC X 4
     4 GLC5       30 GROUP        1 X    GLC  0     **** GLC X 6
     5 ALP1       43 GROUP        1 Y    ALP  0     ROOT ALP Y 8
     6 SEP2        6 GROUP        1 Y    SEP  0     **** SEP Y 9
     7 LYP4        3 GROUP        1 Y    LYP  0     **** LYP Y 11
     8 GLP5       32 GROUP        1 Y    GLP  0     **** GLP Y 13
     9 ALL1       42 GROUP        1 Z    ALL  0     ROOT ALL Z 15
    10 SEL2        5 GROUP        1 Z    SEL  0     **** SEL Z 16
    11 LYL4        2 GROUP        1 Z    LYL  0     **** LYL Z 18
    12 GLL5       31 GROUP        1 Z    GLL  0     **** GLL Z 20
@<TRIPOS>SET

