#    Name: 2h39_ADQ_1_ligand
#    Modification time : Tue Mar 25 15:28:18 2014

@<TRIPOS>MOLECULE
2h39_ADQ_1_ligand
   61    64     1     0     0
SMALL
NO_CHARGES


@<TRIPOS>ATOM
      1 PB          3.6400   -0.8770  -21.3010 P.3       1 ADQ506      0.0000 
      2 O1B         2.7480   -1.6840  -20.3740 O.co2     1 ADQ506      0.0000 
      3 O2B         3.0280   -0.6480  -22.6660 O.co2     1 ADQ506      0.0000 
      4 O3B         5.0340   -1.5920  -21.6300 O.3       1 ADQ506      0.0000 
      5 PA          3.1760    1.7660  -20.0620 P.3       1 ADQ506      0.0000 
      6 O1A         3.3650    3.0370  -20.8860 O.co2     1 ADQ506      0.0000 
      7 O2A         3.6700    1.8590  -18.6270 O.co2     1 ADQ506      0.0000 
      8 O3A         4.0760    0.5530  -20.6870 O.3       1 ADQ506      0.0000 
      9 O5D         1.6830    1.2430  -20.0270 O.3       1 ADQ506      0.0000 
     10 C5D         0.6200    1.7140  -20.8430 C.3       1 ADQ506      0.0000 
     11 C4D        -0.4110    0.6090  -20.7060 C.3       1 ADQ506      0.0000 
     12 O4D        -1.6960    1.0700  -21.0740 O.3       1 ADQ506      0.0000 
     13 C3D        -0.1090   -0.5900  -21.6200 C.3       1 ADQ506      0.0000 
     14 O3D         0.1950   -1.7210  -20.7900 O.3       1 ADQ506      0.0000 
     15 C2D        -1.3530   -0.8510  -22.4700 C.3       1 ADQ506      0.0000 
     16 O2D        -1.7500   -2.2420  -22.4650 O.3       1 ADQ506      0.0000 
     17 C1D        -2.3970   -0.0280  -21.7130 C.3       1 ADQ506      0.0000 
     18 N9         -3.4590    0.6050  -22.5300 N.pl3     1 ADQ506      0.0000 
     19 C8         -3.2740    1.2260  -23.7080 C.2       1 ADQ506      0.0000 
     20 N7         -4.4680    1.7020  -24.1300 N.2       1 ADQ506      0.0000 
     21 C5         -5.3870    1.3910  -23.1880 C.ar      1 ADQ506      0.0000 
     22 C6         -6.7670    1.6390  -23.0700 C.ar      1 ADQ506      0.0000 
     23 N6         -7.4140    2.3060  -24.0460 N.pl3     1 ADQ506      0.0000 
     24 N1         -7.4390    1.1970  -21.9750 N.ar      1 ADQ506      0.0000 
     25 C2         -6.7780    0.5260  -21.0080 C.ar      1 ADQ506      0.0000 
     26 N3         -5.4540    0.2790  -21.1040 N.ar      1 ADQ506      0.0000 
     27 C4         -4.7390    0.6990  -22.1820 C.ar      1 ADQ506      0.0000 
     28 C1'         6.1950   -1.5120  -20.8070 C.3       1 ADQ506      0.0000 
     29 C2'         7.3350   -2.2470  -21.5190 C.3       1 ADQ506      0.0000 
     30 C3'         7.1270   -3.7550  -21.6130 C.3       1 ADQ506      0.0000 
     31 C4'         7.0620   -4.2890  -20.1930 C.3       1 ADQ506      0.0000 
     32 C5'         5.9190   -3.5750  -19.4880 C.3       1 ADQ506      0.0000 
     33 C6'         5.7730   -4.0470  -18.0540 C.3       1 ADQ506      0.0000 
     34 O2'         7.4360   -1.6980  -22.8080 O.3       1 ADQ506      0.0000 
     35 O3'         8.2420   -4.3530  -22.2890 O.3       1 ADQ506      0.0000 
     36 O4'         6.7930   -5.7040  -20.2230 O.3       1 ADQ506      0.0000 
     37 O5'         5.9970   -2.1200  -19.5340 O.3       1 ADQ506      0.0000 
     38 O6'         6.8830   -3.6350  -17.2520 O.3       1 ADQ506      0.0000 
     39 H           0.8983    1.7924  -21.8727 H         1 ADQ506      0.0000 
     40 H           0.1936    2.6231  -20.4751 H         1 ADQ506      0.0000 
     41 H          -0.4102    0.2461  -19.6877 H         1 ADQ506      0.0000 
     42 H           0.6996   -0.3245  -22.2574 H         1 ADQ506      0.0000 
     43 H          -1.2228   -0.4329  -23.4142 H         1 ADQ506      0.0000 
     44 H          -2.8395   -0.6446  -20.9446 H         1 ADQ506      0.0000 
     45 H          -2.4350    1.3190  -24.1765 H         1 ADQ506      0.0000 
     46 H          -6.8501    2.6310  -24.8052 H         1 ADQ506      0.0000 
     47 H          -8.4004    2.4166  -23.9241 H         1 ADQ506      0.0000 
     48 H          -7.3044    0.1889  -20.1632 H         1 ADQ506      0.0000 
     49 H           6.5171   -0.4824  -20.6965 H         1 ADQ506      0.0000 
     50 H           8.2469   -2.0602  -20.9547 H         1 ADQ506      0.0000 
     51 H           6.2054   -3.9467  -22.0980 H         1 ADQ506      0.0000 
     52 H           7.9707   -4.0626  -19.6943 H         1 ADQ506      0.0000 
     53 H           4.9758   -3.8904  -20.0077 H         1 ADQ506      0.0000 
     54 H           5.6732   -5.1465  -18.0676 H         1 ADQ506      0.0000 
     55 H           4.8223   -3.6464  -17.6605 H         1 ADQ506      0.0000 
     56 H           0.9997   -1.4466  -20.2635 H         1 ADQ506      0.0000 
     57 H          -2.3131   -2.3473  -21.6454 H         1 ADQ506      0.0000 
     58 H           7.7763   -0.7683  -22.6672 H         1 ADQ506      0.0000 
     59 H           8.4431   -3.7373  -23.0509 H         1 ADQ506      0.0000 
     60 H           7.6884   -6.1395  -20.1303 H         1 ADQ506      0.0000 
     61 H           7.5963   -4.3130  -17.4296 H         1 ADQ506      0.0000 
@<TRIPOS>BOND
     1    2    1 ar   
     2    3    1 ar   
     3    4    1 1    
     4    8    1 1    
     5   28    4 1    
     6    6    5 ar   
     7    7    5 ar   
     8    8    5 1    
     9    9    5 1    
    10   10    9 1    
    11   11   10 1    
    12   39   10 1    
    13   40   10 1    
    14   12   11 1    
    15   13   11 1    
    16   41   11 1    
    17   17   12 1    
    18   14   13 1    
    19   15   13 1    
    20   42   13 1    
    21   56   14 1    
    22   16   15 1    
    23   17   15 1    
    24   43   15 1    
    25   57   16 1    
    26   18   17 1    
    27   44   17 1    
    28   19   18 1    
    29   27   18 1    
    30   20   19 2    
    31   45   19 1    
    32   21   20 1    
    33   22   21 ar   
    34   27   21 ar   
    35   23   22 1    
    36   24   22 ar   
    37   46   23 1    
    38   47   23 1    
    39   25   24 ar   
    40   26   25 ar   
    41   48   25 1    
    42   27   26 ar   
    43   29   28 1    
    44   37   28 1    
    45   49   28 1    
    46   30   29 1    
    47   34   29 1    
    48   50   29 1    
    49   31   30 1    
    50   35   30 1    
    51   51   30 1    
    52   32   31 1    
    53   36   31 1    
    54   52   31 1    
    55   33   32 1    
    56   37   32 1    
    57   53   32 1    
    58   38   33 1    
    59   54   33 1    
    60   55   33 1    
    61   58   34 1    
    62   59   35 1    
    63   60   36 1    
    64   61   38 1    
@<TRIPOS>SUBSTRUCTURE
     1 ADQ506      1 GROUP   
@<TRIPOS>SET

