#    Name: 4fbg_NAD_5_INTS_M
#    Modification time : Mon Mar 24 19:14:17 2014

@<TRIPOS>MOLECULE
4fbg_NAD_5_INTS_M
   86     0     9     0     0
SMALL
NO_CHARGES


@<TRIPOS>ATOM
      1 CA         64.2035  -42.5425  -90.4090 C.3       3 GLC5        0.0000 
      2 CA         65.9530  -42.8380  -90.3190 C.3       9 GLL5        0.0000 
      3 CA         62.4540  -42.2470  -90.4990 C.3       6 GLP5        0.0000 
      4 CA         64.9045  -45.4745  -91.1635 C.3       3 GLC5        0.0000 
      5 CA         66.6350  -44.1190  -90.7980 C.3       9 GLL5        0.0000 
      6 CA         63.1740  -46.8300  -91.5290 C.3       6 GLP5        0.0000 
      7 N          64.5330  -44.3735  -91.8375 N.am      2 SEC2        0.0000 
      8 N          66.1350  -44.3190  -92.1670 N.am      8 SEL2        0.0000 
      9 N          62.9310  -44.4280  -91.5080 N.am      5 SEP2        0.0000 
     10 N          70.3725  -45.5265  -89.8475 N.am      2 SEC2        0.0000 
     11 N          68.8840  -44.8060  -90.1040 N.am      8 SEL2        0.0000 
     12 N          71.8610  -46.2470  -89.5910 N.am      5 SEP2        0.0000 
     13 N          70.1785  -44.3425  -89.1285 N.am      2 SEC2        0.0000 
     14 N          71.4730  -43.8790  -88.1530 N.am      5 SEP2        0.0000 
     15 O          70.2545  -44.3775  -90.7385 O.2       1 ALC1        0.0000 
     16 O          68.8840  -44.8060  -90.1040 O.2       7 ALL1        0.0000 
     17 O          71.6250  -43.9490  -91.3730 O.2       4 ALP1        0.0000 
     18 O          70.6410  -44.4010  -91.9485 O.2       1 ALC1        0.0000 
     19 O          69.6570  -44.8530  -92.5240 O.2       7 ALL1        0.0000 
     20 O          70.9370  -43.9380  -93.1310 O.2       1 ALC1        0.0000 
     21 O          72.2170  -43.0230  -93.7380 O.2       4 ALP1        0.0000 
     22 O          64.9365  -46.7020  -99.2925 O.2       1 ALC1        0.0000 
     23 O          65.0150  -45.4830  -98.2970 O.2       7 ALL1        0.0000 
     24 O          64.8580  -47.9210 -100.2880 O.2       4 ALP1        0.0000 
     25 O          63.9395  -44.1600  -97.9465 O.2       1 ALC1        0.0000 
     26 O          62.8640  -42.8370  -97.5960 O.2       4 ALP1        0.0000 
     27 N          66.3770  -48.6195  -98.0275 N.am      2 SEC2        0.0000 
     28 N          66.1760  -47.2420  -97.3340 N.am      8 SEL2        0.0000 
     29 N          66.5780  -49.9970  -98.7210 N.am      5 SEP2        0.0000 
     30 CA         69.0295  -47.7935  -95.5405 C.3       3 GLC5        0.0000 
     31 CA         67.1310  -47.7810  -96.2350 C.3       9 GLL5        0.0000 
     32 CA         70.9280  -47.8060  -94.8460 C.3       6 GLP5        0.0000 
     33 CA         68.1500  -46.5265  -97.3585 C.3       3 GLC5        0.0000 
     34 CA         69.1690  -45.2720  -98.4820 C.3       6 GLP5        0.0000 
     35 CA         67.3545  -48.2260  -98.3645 C.3       3 GLC5        0.0000 
     36 CA         67.5780  -48.6710 -100.4940 C.3       6 GLP5        0.0000 
     37 CA         66.5680  -49.3900  -96.3955 C.3       3 GLC5        0.0000 
     38 CA         66.0050  -50.9990  -96.5560 C.3       6 GLP5        0.0000 
     39 CA         65.3935  -48.2015  -95.5875 C.3       3 GLC5        0.0000 
     40 CA         63.6560  -48.6220  -94.9400 C.3       6 GLP5        0.0000 
     41 N          68.9255  -46.4380  -95.8715 N.am      2 SEC2        0.0000 
     42 N          67.3980  -46.7530  -95.2020 N.am      8 SEL2        0.0000 
     43 N          70.4530  -46.1230  -96.5410 N.am      5 SEP2        0.0000 
     44 N          66.1630  -44.0190  -85.1930 N.am      2 SEC2        0.0000 
     45 N          65.1960  -43.9240  -86.6220 N.am      8 SEL2        0.0000 
     46 N          67.1300  -44.1140  -83.7640 N.am      5 SEP2        0.0000 
     47 CA         63.0670  -46.6000  -87.8505 C.3       3 GLC5        0.0000 
     48 CA         62.4210  -44.5760  -87.5010 C.3       9 GLL5        0.0000 
     49 CA         63.7130  -48.6240  -88.2000 C.3       6 GLP5        0.0000 
     50 CA         62.4375  -43.4115  -89.0000 C.3       3 GLC5        0.0000 
     51 CA         60.8780  -46.3035  -85.5600 C.3       3 GLC5        0.0000 
     52 CA         61.0520  -45.1490  -87.0970 C.3       9 GLL5        0.0000 
     53 CA         60.7040  -47.4580  -84.0230 C.3       6 GLP5        0.0000 
     54 CA         61.2005  -43.3930  -89.2260 C.3       3 GLC5        0.0000 
     55 CA         59.9470  -44.5390  -87.9530 C.3       9 GLL5        0.0000 
     56 O          58.5065  -46.2810  -86.9635 O.2       1 ALC1        0.0000 
     57 O          58.9970  -45.5700  -88.2930 O.2       7 ALL1        0.0000 
     58 O          58.0160  -46.9920  -85.6340 O.2       4 ALP1        0.0000 
     59 CA         60.1010  -45.7700  -84.8405 C.3       3 GLC5        0.0000 
     60 CA         59.4980  -44.0820  -85.6580 C.3       9 GLL5        0.0000 
     61 CA         57.9020  -45.0580  -84.6565 C.3       3 GLC5        0.0000 
     62 CA         56.3060  -46.0340  -83.6550 C.3       6 GLP5        0.0000 
     63 O          61.5985  -37.3995  -83.2075 O.2       1 ALC1        0.0000 
     64 O          61.0400  -38.9020  -83.8310 O.2       7 ALL1        0.0000 
     65 O          62.1570  -35.8970  -82.5840 O.2       4 ALP1        0.0000 
     66 CA         59.6735  -39.8205  -80.8405 C.3       3 GLC5        0.0000 
     67 CA         59.7600  -41.3370  -82.3640 C.3       9 GLL5        0.0000 
     68 CA         59.5870  -38.3040  -79.3170 C.3       6 GLP5        0.0000 
     69 CA         60.0305  -43.8015  -80.5330 C.3       3 GLC5        0.0000 
     70 CA         59.6870  -42.7110  -82.1400 C.3       9 GLL5        0.0000 
     71 CA         60.3740  -44.8920  -78.9260 C.3       6 GLP5        0.0000 
     72 CA         60.1540  -45.5215  -83.6225 C.3       3 GLC5        0.0000 
     73 CA         59.6040  -43.5850  -83.2220 C.3       9 GLL5        0.0000 
     74 CA         57.9550  -44.8095  -83.4385 C.3       3 GLC5        0.0000 
     75 CA         64.7775  -47.0823  -95.8812 C.3       3 GLC5        0.0000 
     76 CA         65.7100  -45.9690  -97.3140 C.3       9 GLL5        0.0000 
     77 CA         64.2020  -44.4638  -96.5782 C.3       3 GLC5        0.0000 
     78 CA         62.5050  -43.3850  -96.3340 C.3       6 GLP5        0.0000 
     79 CA         67.7968  -45.3964  -97.2676 C.3       3 GLC5        0.0000 
     80 CA         66.0880  -45.1160  -96.3310 C.3       9 GLL5        0.0000 
     81 CA         57.8522  -41.4138  -83.3860 C.3       3 GLC5        0.0000 
     82 CA         59.6620  -41.6960  -84.7580 C.3       9 GLL5        0.0000 
     83 CA         56.0010  -41.5660  -82.5610 C.3       6 GLP5        0.0000 
     84 CA         57.8324  -42.1853  -82.6490 C.3       3 GLC5        0.0000 
     85 CA         67.8184  -46.1663  -91.4557 C.3       3 GLC5        0.0000 
     86 CA         68.0000  -48.1360  -91.1580 C.3       6 GLP5        0.0000 
@<TRIPOS>BOND
@<TRIPOS>SUBSTRUCTURE
     1 ALC1       15 GROUP        1 X    ALC  0     ROOT ALC X 1
     2 SEC2        7 GROUP        1 X    SEC  0     **** SEC X 2
     3 GLC5        1 GROUP        1 X    GLC  0     **** GLC X 6
     4 ALP1       17 GROUP        1 Y    ALP  0     ROOT ALP Y 8
     5 SEP2        9 GROUP        1 Y    SEP  0     **** SEP Y 9
     6 GLP5        3 GROUP        1 Y    GLP  0     **** GLP Y 13
     7 ALL1       16 GROUP        1 Z    ALL  0     ROOT ALL Z 15
     8 SEL2        8 GROUP        1 Z    SEL  0     **** SEL Z 16
     9 GLL5        2 GROUP        1 Z    GLL  0     **** GLL Z 20
@<TRIPOS>SET

