#    Name: 4fbg_NAD_5_ligand
#    Modification time : Mon Mar 24 19:14:17 2014

@<TRIPOS>MOLECULE
4fbg_NAD_5_ligand
   70    74     1     0     0
SMALL
NO_CHARGES


@<TRIPOS>ATOM
      1 PA         65.7190  -41.2510  -88.2510 P.3       1 NAD1001     0.0000 
      2 O1A        66.4920  -40.7470  -87.0710 O.co2     1 NAD1001     0.0000 
      3 O2A        65.3410  -40.0680  -89.3030 O.co2     1 NAD1001     0.0000 
      4 O5B        66.4730  -42.4220  -89.0540 O.3       1 NAD1001     0.0000 
      5 C5B        65.9530  -42.8380  -90.3190 C.3       1 NAD1001     0.0000 
      6 C4B        66.6350  -44.1190  -90.7980 C.3       1 NAD1001     0.0000 
      7 O4B        66.1350  -44.3190  -92.1670 O.3       1 NAD1001     0.0000 
      8 C3B        68.1550  -43.8560  -90.9020 C.3       1 NAD1001     0.0000 
      9 O3B        68.8840  -44.8060  -90.1040 O.3       1 NAD1001     0.0000 
     10 C2B        68.4850  -44.0330  -92.3770 C.3       1 NAD1001     0.0000 
     11 O2B        69.6570  -44.8530  -92.5240 O.3       1 NAD1001     0.0000 
     12 C1B        67.2720  -44.7780  -92.9370 C.3       1 NAD1001     0.0000 
     13 N9A        67.1660  -44.5120  -94.4450 N.pl3     1 NAD1001     0.0000 
     14 C8A        66.3940  -43.3250  -94.9000 C.2       1 NAD1001     0.0000 
     15 N7A        65.7270  -43.8290  -96.1700 N.2       1 NAD1001     0.0000 
     16 C5A        66.0880  -45.1160  -96.3310 C.ar      1 NAD1001     0.0000 
     17 C6A        65.7100  -45.9690  -97.3140 C.ar      1 NAD1001     0.0000 
     18 N6A        65.0150  -45.4830  -98.2970 N.pl3     1 NAD1001     0.0000 
     19 N1A        66.1760  -47.2420  -97.3340 N.ar      1 NAD1001     0.0000 
     20 C2A        67.1310  -47.7810  -96.2350 C.ar      1 NAD1001     0.0000 
     21 N3A        67.3980  -46.7530  -95.2020 N.ar      1 NAD1001     0.0000 
     22 C4A        66.9500  -45.4990  -95.2840 C.ar      1 NAD1001     0.0000 
     23 O3         64.2950  -41.8850  -87.8020 O.3       1 NAD1001     0.0000 
     24 PN         64.1930  -42.8360  -86.5010 P.3       1 NAD1001     0.0000 
     25 O1N        64.2020  -41.9640  -85.3010 O.co2     1 NAD1001     0.0000 
     26 O2N        65.1960  -43.9240  -86.6220 O.co2     1 NAD1001     0.0000 
     27 O5D        62.7040  -43.4270  -86.6890 O.3       1 NAD1001     0.0000 
     28 C5D        62.4210  -44.5760  -87.5010 C.3       1 NAD1001     0.0000 
     29 C4D        61.0520  -45.1490  -87.0970 C.3       1 NAD1001     0.0000 
     30 O4D        60.7630  -44.7870  -85.7140 O.3       1 NAD1001     0.0000 
     31 C3D        59.9470  -44.5390  -87.9530 C.3       1 NAD1001     0.0000 
     32 O3D        58.9970  -45.5700  -88.2930 O.3       1 NAD1001     0.0000 
     33 C2D        59.3080  -43.4870  -87.0500 C.3       1 NAD1001     0.0000 
     34 O2D        57.9050  -43.3540  -87.3480 O.3       1 NAD1001     0.0000 
     35 C1D        59.4980  -44.0820  -85.6580 C.3       1 NAD1001     0.0000 
     36 N1N        59.5870  -43.0930  -84.5430 N.pl3     1 NAD1001     0.0000 
     37 C2N        59.6620  -41.6960  -84.7580 C.ar      1 NAD1001     0.0000 
     38 C3N        59.7450  -40.8270  -83.6640 C.ar      1 NAD1001     0.0000 
     39 C7N        59.8180  -39.4510  -83.8600 C.2       1 NAD1001     0.0000 
     40 O7N        58.6470  -38.7810  -84.0510 O.2       1 NAD1001     0.0000 
     41 N7N        61.0400  -38.9020  -83.8310 N.am      1 NAD1001     0.0000 
     42 C4N        59.7600  -41.3370  -82.3640 C.ar      1 NAD1001     0.0000 
     43 C5N        59.6870  -42.7110  -82.1400 C.ar      1 NAD1001     0.0000 
     44 C6N        59.6040  -43.5850  -83.2220 C.ar      1 NAD1001     0.0000 
     45 H          66.1058  -42.0693  -91.0926 H         1 NAD1001     0.0000 
     46 H          64.8708  -43.0355  -90.2673 H         1 NAD1001     0.0000 
     47 H          66.4319  -44.9041  -90.1790 H         1 NAD1001     0.0000 
     48 H          68.3350  -42.8505  -90.6277 H         1 NAD1001     0.0000 
     49 H          68.5551  -43.0983  -92.8352 H         1 NAD1001     0.0000 
     50 H          67.4470  -45.8306  -92.7763 H         1 NAD1001     0.0000 
     51 H          66.3277  -42.5381  -94.5463 H         1 NAD1001     0.0000 
     52 H          64.7794  -44.5133  -98.2322 H         1 NAD1001     0.0000 
     53 H          64.7794  -46.1233  -99.0281 H         1 NAD1001     0.0000 
     54 H          67.4694  -48.6382  -96.2558 H         1 NAD1001     0.0000 
     55 H          63.1637  -45.3634  -87.3636 H         1 NAD1001     0.0000 
     56 H          62.3747  -44.3227  -88.5612 H         1 NAD1001     0.0000 
     57 H          61.0547  -46.2003  -87.2258 H         1 NAD1001     0.0000 
     58 H          60.3788  -44.0704  -88.7845 H         1 NAD1001     0.0000 
     59 H          59.8522  -42.5985  -87.1201 H         1 NAD1001     0.0000 
     60 H          58.7108  -44.7882  -85.4725 H         1 NAD1001     0.0000 
     61 H          59.6551  -41.3301  -85.7115 H         1 NAD1001     0.0000 
     62 H          61.0811  -37.9123  -83.9683 H         1 NAD1001     0.0000 
     63 H          61.8014  -39.5311  -83.6747 H         1 NAD1001     0.0000 
     64 H          59.8257  -40.6907  -81.5635 H         1 NAD1001     0.0000 
     65 H          59.6944  -43.0770  -81.1819 H         1 NAD1001     0.0000 
     66 H          59.5543  -44.6005  -83.0628 H         1 NAD1001     0.0000 
     67 H          69.8402  -44.6898  -90.3727 H         1 NAD1001     0.0000 
     68 H          70.4267  -44.2356  -92.3615 H         1 NAD1001     0.0000 
     69 H          58.7120  -45.9583  -87.4167 H         1 NAD1001     0.0000 
     70 H          57.7116  -44.0775  -88.0107 H         1 NAD1001     0.0000 
@<TRIPOS>BOND
     1    2    1 ar   
     2    3    1 ar   
     3    4    1 1    
     4   23    1 1    
     5    5    4 1    
     6    6    5 1    
     7   45    5 1    
     8   46    5 1    
     9    7    6 1    
    10    8    6 1    
    11   47    6 1    
    12   12    7 1    
    13    9    8 1    
    14   10    8 1    
    15   48    8 1    
    16   67    9 1    
    17   11   10 1    
    18   12   10 1    
    19   49   10 1    
    20   68   11 1    
    21   13   12 1    
    22   50   12 1    
    23   14   13 1    
    24   22   13 1    
    25   15   14 2    
    26   51   14 1    
    27   16   15 1    
    28   17   16 ar   
    29   22   16 ar   
    30   18   17 1    
    31   19   17 ar   
    32   52   18 1    
    33   53   18 1    
    34   20   19 ar   
    35   21   20 ar   
    36   54   20 1    
    37   22   21 ar   
    38   24   23 1    
    39   25   24 ar   
    40   26   24 ar   
    41   27   24 1    
    42   28   27 1    
    43   29   28 1    
    44   55   28 1    
    45   56   28 1    
    46   30   29 1    
    47   31   29 1    
    48   57   29 1    
    49   35   30 1    
    50   32   31 1    
    51   33   31 1    
    52   58   31 1    
    53   69   32 1    
    54   34   33 1    
    55   35   33 1    
    56   59   33 1    
    57   70   34 1    
    58   36   35 1    
    59   60   35 1    
    60   37   36 ar   
    61   44   36 ar   
    62   38   37 ar   
    63   61   37 1    
    64   39   38 1    
    65   42   38 ar   
    66   40   39 2    
    67   41   39 am   
    68   62   41 1    
    69   63   41 1    
    70   43   42 ar   
    71   64   42 1    
    72   44   43 ar   
    73   65   43 1    
    74   66   44 1    
@<TRIPOS>SUBSTRUCTURE
     1 NAD1001     1 GROUP   
@<TRIPOS>SET

