#    Name: 3f5m_ATP_3_INTS_M
#    Modification time : Tue Mar 25 03:11:25 2014

@<TRIPOS>MOLECULE
3f5m_ATP_3_INTS_M
   63     0     9     0     0
SMALL
NO_CHARGES


@<TRIPOS>ATOM
      1 NZ         43.1305   20.2220   13.3310 N.4       2 LYC4        0.0000 
      2 NZ         42.3020   21.7630   14.0310 N.4       8 LYL4        0.0000 
      3 NZ         43.9590   18.6810   12.6310 N.4       5 LYP4        0.0000 
      4 NZ         38.9180   19.8465   13.8885 N.4       2 LYC4        0.0000 
      5 NZ         40.4380   20.0220   14.0540 N.4       8 LYL4        0.0000 
      6 NZ         37.3980   19.6710   13.7230 N.4       5 LYP4        0.0000 
      7 N          40.3575   19.0760   13.1790 N.am      1 SEC2        0.0000 
      8 N          40.4380   20.0220   14.0540 N.am      7 SEL2        0.0000 
      9 N          40.2770   18.1300   12.3040 N.am      4 SEP2        0.0000 
     10 N          38.9180   19.8465   13.8885 N.am      1 SEC2        0.0000 
     11 N          37.3980   19.6710   13.7230 N.am      4 SEP2        0.0000 
     12 N          39.8270   25.0390   10.1615 N.am      1 SEC2        0.0000 
     13 N          39.6890   23.9790   11.2550 N.am      7 SEL2        0.0000 
     14 N          39.9650   26.0990    9.0680 N.am      4 SEP2        0.0000 
     15 N          39.1230   23.8355    9.9805 N.am      1 SEC2        0.0000 
     16 N          38.5570   23.6920    8.7060 N.am      4 SEP2        0.0000 
     17 N          41.3280   25.6940   12.2220 N.am      1 SEC2        0.0000 
     18 N          41.6760   24.2490   12.9590 N.am      7 SEL2        0.0000 
     19 N          40.9800   27.1390   11.4850 N.am      4 SEP2        0.0000 
     20 NZ         44.2790   20.3055   10.9325 N.4       2 LYC4        0.0000 
     21 NZ         43.9520   21.6070   10.3400 N.4       8 LYL4        0.0000 
     22 N          44.2790   20.3055   10.9325 N.am      1 SEC2        0.0000 
     23 N          43.9520   21.6070   10.3400 N.am      7 SEL2        0.0000 
     24 N          44.6060   19.0040   11.5250 N.am      4 SEP2        0.0000 
     25 N          45.1050   21.6875    9.5680 N.am      1 SEC2        0.0000 
     26 N          46.2580   21.7680    8.7960 N.am      4 SEP2        0.0000 
     27 N          44.9505   23.3390   12.3070 N.am      1 SEC2        0.0000 
     28 N          43.8410   23.9010   11.6020 N.am      7 SEL2        0.0000 
     29 N          46.0600   22.7770   13.0120 N.am      4 SEP2        0.0000 
     30 CA         41.3295   21.2335    9.3165 C.3       3 GLC5        0.0000 
     31 CA         42.1020   22.9330    8.2720 C.3       9 GLL5        0.0000 
     32 CA         40.5570   19.5340   10.3610 C.3       6 GLP5        0.0000 
     33 CA         40.5825   24.4370    8.1060 C.3       3 GLC5        0.0000 
     34 CA         39.0630   25.9410    7.9400 C.3       6 GLP5        0.0000 
     35 CA         41.7980   23.6635    5.1050 C.3       3 GLC5        0.0000 
     36 CA         42.6020   23.1760    6.8540 C.3       9 GLL5        0.0000 
     37 CA         40.9940   24.1510    3.3560 C.3       6 GLP5        0.0000 
     38 CA         44.7870   20.7730    6.9850 C.3       3 GLC5        0.0000 
     39 CA         44.0480   22.7220    6.7290 C.3       9 GLL5        0.0000 
     40 CA         45.5260   18.8240    7.2410 C.3       6 GLP5        0.0000 
     41 CA         45.9690   24.0965    4.8985 C.3       3 GLC5        0.0000 
     42 CA         44.8520   24.0080    6.8410 C.3       9 GLL5        0.0000 
     43 CA         47.0860   24.1850    2.9560 C.3       6 GLP5        0.0000 
     44 CA         42.4505   24.5990    4.8080 C.3       3 GLC5        0.0000 
     45 CA         43.9070   25.0470    6.2600 C.3       9 GLL5        0.0000 
     46 CA         43.2100   27.7685    8.8065 C.3       3 GLC5        0.0000 
     47 CA         44.6320   28.5180    7.3180 C.3       9 GLL5        0.0000 
     48 CA         41.7880   27.0190   10.2950 C.3       6 GLP5        0.0000 
     49 CA         42.6800   29.2075    4.6035 C.3       3 GLC5        0.0000 
     50 CA         44.5000   29.2370    4.6570 C.3       9 GLL5        0.0000 
     51 CA         40.8600   29.1780    4.5500 C.3       6 GLP5        0.0000 
     52 CA         43.7810   31.0555    3.6950 C.3       3 GLC5        0.0000 
     53 CA         43.0620   32.8740    2.7330 C.3       6 GLP5        0.0000 
     54 CA         42.6050   28.3545    5.4055 C.3       3 GLC5        0.0000 
     55 CA         44.3500   27.5310    6.2610 C.3       9 GLL5        0.0000 
     56 CA         40.6905   22.1112    7.0655 C.3       3 GLC5        0.0000 
     57 CA         39.0290   21.1680    6.5680 C.3       6 GLP5        0.0000 
     58 CA         46.1050   22.3360    6.0865 C.3       3 GLC5        0.0000 
     59 CA         47.7600   21.3070    5.3880 C.3       6 GLP5        0.0000 
     60 CA         45.6930   23.0585    8.1710 C.3       3 GLC5        0.0000 
     61 CA         46.9360   22.7520    9.5570 C.3       6 GLP5        0.0000 
     62 CA         43.1810   30.1785    7.8165 C.3       3 GLC5        0.0000 
     63 CA         41.6240   31.1430    8.5240 C.3       6 GLP5        0.0000 
@<TRIPOS>BOND
@<TRIPOS>SUBSTRUCTURE
     1 SEC2        7 GROUP        1 X    SEC  0     ROOT SEC X 2
     2 LYC4        1 GROUP        1 X    LYC  0     **** LYC X 4
     3 GLC5       30 GROUP        1 X    GLC  0     **** GLC X 6
     4 SEP2        9 GROUP        1 Y    SEP  0     ROOT SEP Y 9
     5 LYP4        3 GROUP        1 Y    LYP  0     **** LYP Y 11
     6 GLP5       32 GROUP        1 Y    GLP  0     **** GLP Y 13
     7 SEL2        8 GROUP        1 Z    SEL  0     ROOT SEL Z 16
     8 LYL4        2 GROUP        1 Z    LYL  0     **** LYL Z 18
     9 GLL5       31 GROUP        1 Z    GLL  0     **** GLL Z 20
@<TRIPOS>SET

