#    Name: 3f5m_ATP_3_ligand
#    Modification time : Tue Mar 25 03:11:26 2014

@<TRIPOS>MOLECULE
3f5m_ATP_3_ligand
   43    45     1     0     0
SMALL
NO_CHARGES


@<TRIPOS>ATOM
      1 PG         40.8220   21.4770   14.1890 P.3       1 ATP1001     0.0000 
      2 O1G        42.3020   21.7630   14.0310 O.co2     1 ATP1001     0.0000 
      3 O2G        40.4380   20.0220   14.0540 O.co2     1 ATP1001     0.0000 
      4 O3G        40.1910   22.2030   15.3640 O.co2     1 ATP1001     0.0000 
      5 PB         40.8000   23.3800   12.0740 P.3       1 ATP1001     0.0000 
      6 O1B        39.6890   23.9790   11.2550 O.co2     1 ATP1001     0.0000 
      7 O2B        41.6760   24.2490   12.9590 O.co2     1 ATP1001     0.0000 
      8 O3B        40.1150   22.1890   12.9210 O.3       1 ATP1001     0.0000 
      9 PA         43.2370   22.8930   10.6400 P.3       1 ATP1001     0.0000 
     10 O1A        43.9520   21.6070   10.3400 O.co2     1 ATP1001     0.0000 
     11 O2A        43.8410   23.9010   11.6020 O.co2     1 ATP1001     0.0000 
     12 O3A        41.7210   22.5410   11.0570 O.3       1 ATP1001     0.0000 
     13 O5'        42.9650   23.5870    9.2060 O.3       1 ATP1001     0.0000 
     14 C5'        42.1020   22.9330    8.2720 C.3       1 ATP1001     0.0000 
     15 C4'        42.6020   23.1760    6.8540 C.3       1 ATP1001     0.0000 
     16 O4'        42.5840   24.5730    6.5540 O.3       1 ATP1001     0.0000 
     17 C3'        44.0480   22.7220    6.7290 C.3       1 ATP1001     0.0000 
     18 O3'        44.2240   22.0990    5.4540 O.3       1 ATP1001     0.0000 
     19 C2'        44.8520   24.0080    6.8410 C.3       1 ATP1001     0.0000 
     20 O2'        46.1260   23.9660    6.1830 O.3       1 ATP1001     0.0000 
     21 C1'        43.9070   25.0470    6.2600 C.3       1 ATP1001     0.0000 
     22 N9         44.1920   26.3570    6.8950 N.pl3     1 ATP1001     0.0000 
     23 C8         44.3670   26.5560    8.2180 C.2       1 ATP1001     0.0000 
     24 N7         44.6330   27.8660    8.4960 N.2       1 ATP1001     0.0000 
     25 C5         44.6320   28.5180    7.3180 C.ar      1 ATP1001     0.0000 
     26 C6         44.8440   29.9100    6.9000 C.ar      1 ATP1001     0.0000 
     27 N6         45.1090   30.8520    7.8420 N.pl3     1 ATP1001     0.0000 
     28 N1         44.7630   30.1840    5.5770 N.ar      1 ATP1001     0.0000 
     29 C2         44.5000   29.2370    4.6570 C.ar      1 ATP1001     0.0000 
     30 N3         44.2950   27.9490    4.9710 N.ar      1 ATP1001     0.0000 
     31 C4         44.3500   27.5310    6.2610 C.ar      1 ATP1001     0.0000 
     32 H          41.0751   23.3110    8.3367 H         1 ATP1001     0.0000 
     33 H          42.0726   21.8499    8.4380 H         1 ATP1001     0.0000 
     34 H          42.0097   22.6174    6.1672 H         1 ATP1001     0.0000 
     35 H          44.2748   22.0965    7.5445 H         1 ATP1001     0.0000 
     36 H          44.9397   24.2302    7.9042 H         1 ATP1001     0.0000 
     37 H          44.0806   25.0918    5.2078 H         1 ATP1001     0.0000 
     38 H          44.3118   25.8528    8.9020 H         1 ATP1001     0.0000 
     39 H          45.1656   30.5266    8.7859 H         1 ATP1001     0.0000 
     40 H          45.2241   31.7877    7.5084 H         1 ATP1001     0.0000 
     41 H          44.4529   29.5257    3.6333 H         1 ATP1001     0.0000 
     42 H          44.9275   22.6421    4.9956 H         1 ATP1001     0.0000 
     43 H          46.2724   24.8951    5.8433 H         1 ATP1001     0.0000 
@<TRIPOS>BOND
     1    2    1 ar   
     2    3    1 ar   
     3    4    1 ar   
     4    8    1 1    
     5    6    5 ar   
     6    7    5 ar   
     7    8    5 1    
     8   12    5 1    
     9   10    9 ar   
    10   11    9 ar   
    11   12    9 1    
    12   13    9 1    
    13   14   13 1    
    14   15   14 1    
    15   32   14 1    
    16   33   14 1    
    17   16   15 1    
    18   17   15 1    
    19   34   15 1    
    20   21   16 1    
    21   18   17 1    
    22   19   17 1    
    23   35   17 1    
    24   42   18 1    
    25   20   19 1    
    26   21   19 1    
    27   36   19 1    
    28   43   20 1    
    29   22   21 1    
    30   37   21 1    
    31   23   22 1    
    32   31   22 1    
    33   24   23 2    
    34   38   23 1    
    35   25   24 1    
    36   26   25 ar   
    37   31   25 ar   
    38   27   26 1    
    39   28   26 ar   
    40   39   27 1    
    41   40   27 1    
    42   29   28 ar   
    43   30   29 ar   
    44   41   29 1    
    45   31   30 ar   
@<TRIPOS>SUBSTRUCTURE
     1 ATP1001     1 GROUP   
@<TRIPOS>SET

