#    Name: 1cbq_RE9_1_INTS_M
#    Modification time : Mon Mar 24 20:28:49 2014

@<TRIPOS>MOLECULE
1cbq_RE9_1_INTS_M
   71     0     9     0     0
SMALL
NO_CHARGES


@<TRIPOS>ATOM
      1 CA         66.7585   45.4010   36.5700 C.3       3 GLC5        0.0000 
      2 CA         67.5640   43.5260   36.8180 C.3       9 GLL5        0.0000 
      3 CA         65.9530   47.2760   36.3220 C.3       6 GLP5        0.0000 
      4 CA         70.2255   44.5000   33.7280 C.3       3 GLC5        0.0000 
      5 CA         69.6870   43.1990   35.4130 C.3       9 GLL5        0.0000 
      6 CA         70.7640   45.8010   32.0430 C.3       6 GLP5        0.0000 
      7 CA         68.5240   42.8110   33.6885 C.3       3 GLC5        0.0000 
      8 CA         67.3610   42.4230   31.9640 C.3       6 GLP5        0.0000 
      9 CA         67.9645   40.6435   32.6795 C.3       3 GLC5        0.0000 
     10 CA         68.5680   38.8640   33.3950 C.3       9 GLL5        0.0000 
     11 CA         70.4300   36.4745   32.3460 C.3       3 GLC5        0.0000 
     12 CA         68.4710   36.3840   32.9840 C.3       9 GLL5        0.0000 
     13 CA         72.3890   36.5650   31.7080 C.3       6 GLP5        0.0000 
     14 CA         70.0570   33.7170   30.9510 C.3       3 GLC5        0.0000 
     15 CA         68.5500   34.0930   32.3180 C.3       9 GLL5        0.0000 
     16 CA         71.5640   33.3410   29.5840 C.3       6 GLP5        0.0000 
     17 CA         63.9915   40.7445   36.3070 C.3       3 GLC5        0.0000 
     18 CA         65.9130   41.6280   36.9870 C.3       9 GLL5        0.0000 
     19 CA         62.0700   39.8610   35.6270 C.3       6 GLP5        0.0000 
     20 CA         64.0270   42.5485   37.7125 C.3       3 GLC5        0.0000 
     21 CA         62.1410   43.4690   38.4380 C.3       6 GLP5        0.0000 
     22 CA         65.2500   40.9265   38.8905 C.3       3 GLC5        0.0000 
     23 CA         64.5870   40.2250   40.7940 C.3       6 GLP5        0.0000 
     24 CA         69.7995   41.0735   38.3975 C.3       3 GLC5        0.0000 
     25 CA         67.7960   41.6540   38.5400 C.3       9 GLL5        0.0000 
     26 CA         71.8030   40.4930   38.2550 C.3       6 GLP5        0.0000 
     27 CA         66.1915   40.9395   39.6670 C.3       3 GLC5        0.0000 
     28 CA         71.1365   40.9255   31.9445 C.3       3 GLC5        0.0000 
     29 CA         70.8590   40.9440   33.6360 C.3       9 GLL5        0.0000 
     30 CA         71.4140   40.9070   30.2530 C.3       6 GLP5        0.0000 
     31 CA         72.6340   41.9415   33.1845 C.3       3 GLC5        0.0000 
     32 CA         74.4090   42.9390   32.7330 C.3       6 GLP5        0.0000 
     33 CA         71.4645   39.0015   36.5395 C.3       3 GLC5        0.0000 
     34 CA         69.9930   38.2830   35.3820 C.3       9 GLL5        0.0000 
     35 CA         72.9360   39.7200   37.6970 C.3       6 GLP5        0.0000 
     36 CA         65.2625   35.9195   33.5610 C.3       3 GLC5        0.0000 
     37 CA         66.8120   34.7300   33.9690 C.3       9 GLL5        0.0000 
     38 CA         63.7130   37.1090   33.1530 C.3       6 GLP5        0.0000 
     39 CA         65.7025   35.4090   35.6570 C.3       3 GLC5        0.0000 
     40 CA         64.5930   36.0880   37.3450 C.3       6 GLP5        0.0000 
     41 CA         64.8320   33.9575   34.1255 C.3       3 GLC5        0.0000 
     42 CA         62.8520   33.1850   34.2820 C.3       6 GLP5        0.0000 
     43 NZ         67.5160   32.9110   30.1405 N.4       2 LYC4        0.0000 
     44 NZ         68.2290   32.1710   31.0570 N.4       8 LYL4        0.0000 
     45 NZ         65.5120   33.4820   29.4630 N.4       5 LYP4        0.0000 
     46 N          66.6760   32.3480   30.6760 N.am      1 SEC2        0.0000 
     47 N          68.2290   32.1710   31.0570 N.am      7 SEL2        0.0000 
     48 N          65.1230   32.5250   30.2950 N.am      4 SEP2        0.0000 
     49 N          67.5160   32.9110   30.1405 N.am      1 SEC2        0.0000 
     50 N          66.8030   33.6510   29.2240 N.am      4 SEP2        0.0000 
     51 N          67.5615   31.0325   30.9450 N.am      1 SEC2        0.0000 
     52 N          66.8940   29.8940   30.8330 N.am      4 SEP2        0.0000 
     53 CA         68.8588   41.6303   33.0185 C.3       3 GLC5        0.0000 
     54 CA         69.8540   40.7310   34.5100 C.3       9 GLL5        0.0000 
     55 CA         71.8588   40.5928   35.2480 C.3       3 GLC5        0.0000 
     56 CA         73.3610   40.3480   36.4230 C.3       6 GLP5        0.0000 
     57 CA         70.3235   41.1618   36.9986 C.3       3 GLC5        0.0000 
     58 CA         68.2230   41.1940   36.0970 C.3       9 GLL5        0.0000 
     59 CA         67.8263   37.8062   31.7053 C.3       3 GLC5        0.0000 
     60 CA         68.0210   37.4830   33.6540 C.3       9 GLL5        0.0000 
     61 CA         67.3580   37.4390   29.8860 C.3       6 GLP5        0.0000 
     62 CA         66.4764   37.7114   33.0031 C.3       3 GLC5        0.0000 
     63 CA         64.5700   38.1440   32.7520 C.3       6 GLP5        0.0000 
     64 CA         69.8280   33.4260   33.3387 C.3       3 GLC5        0.0000 
     65 CA         67.9500   35.0050   33.0770 C.3       9 GLL5        0.0000 
     66 CA         71.4060   32.3030   33.9800 C.3       6 GLP5        0.0000 
     67 CA         67.8691   36.1664   31.2801 C.3       3 GLC5        0.0000 
     68 CA         66.4901   42.2169   34.9946 C.3       3 GLC5        0.0000 
     69 CA         66.2890   42.2380   33.0140 C.3       6 GLP5        0.0000 
     70 CA         67.4752   41.3726   34.2560 C.3       3 GLC5        0.0000 
     71 CA         69.2430   41.7350   35.3620 C.3       9 GLL5        0.0000 
@<TRIPOS>BOND
@<TRIPOS>SUBSTRUCTURE
     1 SEC2       46 GROUP        1 X    SEC  0     ROOT SEC X 2
     2 LYC4       43 GROUP        1 X    LYC  0     **** LYC X 4
     3 GLC5        1 GROUP        1 X    GLC  0     **** GLC X 6
     4 SEP2       48 GROUP        1 Y    SEP  0     ROOT SEP Y 9
     5 LYP4       45 GROUP        1 Y    LYP  0     **** LYP Y 11
     6 GLP5        3 GROUP        1 Y    GLP  0     **** GLP Y 13
     7 SEL2       47 GROUP        1 Z    SEL  0     ROOT SEL Z 16
     8 LYL4       44 GROUP        1 Z    LYL  0     **** LYL Z 18
     9 GLL5        2 GROUP        1 Z    GLL  0     **** GLL Z 20
@<TRIPOS>SET

