#    Name: 1cbq_RE9_1_ligand
#    Modification time : Mon Mar 24 20:28:49 2014

@<TRIPOS>MOLECULE
1cbq_RE9_1_ligand
   47    48     1     0     0
SMALL
NO_CHARGES


@<TRIPOS>ATOM
      1 C1         67.3750   42.0010   37.1090 C.3       1 RE9200      0.0000 
      2 C2         67.5640   43.5260   36.8180 C.3       1 RE9200      0.0000 
      3 C3         69.0620   43.8990   36.6150 C.3       1 RE9200      0.0000 
      4 C4         69.6870   43.1990   35.4130 C.3       1 RE9200      0.0000 
      5 C5         69.2430   41.7350   35.3620 C.2       1 RE9200      0.0000 
      6 C6         69.8540   40.7310   34.5100 C.2       1 RE9200      0.0000 
      7 C7         69.1490   39.3800   34.7540 C.3       1 RE9200      0.0000 
      8 C8         68.0310   39.7200   35.7790 C.3       1 RE9200      0.0000 
      9 C9         68.2230   41.1940   36.0970 C.2       1 RE9200      0.0000 
     10 C10        68.5680   38.8640   33.3950 C.3       1 RE9200      0.0000 
     11 C11        68.0210   37.4830   33.6540 C.2       1 RE9200      0.0000 
     12 C12        68.4710   36.3840   32.9840 C.2       1 RE9200      0.0000 
     13 C13        67.9500   35.0050   33.0770 C.2       1 RE9200      0.0000 
     14 C14        68.5500   34.0930   32.3180 C.2       1 RE9200      0.0000 
     15 C15        68.2380   32.6760   32.1970 C.2       1 RE9200      0.0000 
     16 C16        65.9130   41.6280   36.9870 C.3       1 RE9200      0.0000 
     17 C17        67.7960   41.6540   38.5400 C.3       1 RE9200      0.0000 
     18 C18        70.8590   40.9440   33.6360 C.2       1 RE9200      0.0000 
     19 C19        69.9930   38.2830   35.3820 C.3       1 RE9200      0.0000 
     20 C20        66.8120   34.7300   33.9690 C.3       1 RE9200      0.0000 
     21 O1         67.9960   32.0020   33.2130 O.co2     1 RE9200      0.0000 
     22 O2         68.2290   32.1710   31.0570 O.co2     1 RE9200      0.0000 
     23 H          67.1680   44.0933   37.6559 H         1 RE9200      0.0000 
     24 H          67.0103   43.7813   35.9187 H         1 RE9200      0.0000 
     25 H          69.6099   43.6287   37.5229 H         1 RE9200      0.0000 
     26 H          69.1320   44.9834   36.4855 H         1 RE9200      0.0000 
     27 H          70.7696   43.2415   35.4926 H         1 RE9200      0.0000 
     28 H          69.3745   43.6991   34.5007 H         1 RE9200      0.0000 
     29 H          68.1734   39.1318   36.6529 H         1 RE9200      0.0000 
     30 H          67.0842   39.5607   35.3226 H         1 RE9200      0.0000 
     31 H          69.3634   38.8280   32.6802 H         1 RE9200      0.0000 
     32 H          67.7876   39.5285   33.0878 H         1 RE9200      0.0000 
     33 H          67.2833   37.4310   34.3735 H         1 RE9200      0.0000 
     34 H          69.2932   36.4888   32.3039 H         1 RE9200      0.0000 
     35 H          69.3847   34.3984   31.6914 H         1 RE9200      0.0000 
     36 H          65.5567   41.8166   36.0719 H         1 RE9200      0.0000 
     37 H          65.7616   40.6559   37.1659 H         1 RE9200      0.0000 
     38 H          65.3447   42.1370   37.6334 H         1 RE9200      0.0000 
     39 H          68.7562   41.8763   38.7089 H         1 RE9200      0.0000 
     40 H          67.2560   42.1534   39.2174 H         1 RE9200      0.0000 
     41 H          67.6821   40.6798   38.7347 H         1 RE9200      0.0000 
     42 H          70.7844   38.0531   34.8156 H         1 RE9200      0.0000 
     43 H          70.3429   38.5514   36.2795 H         1 RE9200      0.0000 
     44 H          69.4703   37.4403   35.5113 H         1 RE9200      0.0000 
     45 H          66.5484   33.7656   33.9482 H         1 RE9200      0.0000 
     46 H          67.0226   34.9558   34.9201 H         1 RE9200      0.0000 
     47 H          66.0035   35.2604   33.7139 H         1 RE9200      0.0000 
@<TRIPOS>BOND
     1    2    1 1    
     2    9    1 1    
     3   16    1 1    
     4   17    1 1    
     5    3    2 1    
     6   23    2 1    
     7   24    2 1    
     8    4    3 1    
     9   25    3 1    
    10   26    3 1    
    11    5    4 1    
    12   27    4 1    
    13   28    4 1    
    14    6    5 1    
    15    9    5 2    
    16    7    6 1    
    17   18    6 2    
    18    8    7 1    
    19   10    7 1    
    20   19    7 1    
    21    9    8 1    
    22   29    8 1    
    23   30    8 1    
    24   11   10 1    
    25   31   10 1    
    26   32   10 1    
    27   12   11 2    
    28   33   11 1    
    29   13   12 1    
    30   34   12 1    
    31   14   13 2    
    32   20   13 1    
    33   15   14 1    
    34   35   14 1    
    35   21   15 ar   
    36   22   15 ar   
    37   36   16 1    
    38   37   16 1    
    39   38   16 1    
    40   39   17 1    
    41   40   17 1    
    42   41   17 1    
    43   42   19 1    
    44   43   19 1    
    45   44   19 1    
    46   45   20 1    
    47   46   20 1    
    48   47   20 1    
@<TRIPOS>SUBSTRUCTURE
     1 RE9200      1 GROUP   
@<TRIPOS>SET

