#    Name: 1kqm_ANP_1_INTS_M
#    Modification time : Tue Mar 25 10:26:40 2014

@<TRIPOS>MOLECULE
1kqm_ANP_1_INTS_M
   59     0    12     0     0
SMALL
NO_CHARGES


@<TRIPOS>ATOM
      1 NZ         13.3905   -7.2870   26.3155 N.4       2 LYC4        0.0000 
      2 NZ         12.4610   -6.9070   27.3290 N.4      10 LYL4        0.0000 
      3 NZ         14.3200   -7.6670   25.3020 N.4       6 LYP4        0.0000 
      4 N          13.3905   -7.2870   26.3155 N.am      1 SEC2        0.0000 
      5 N          12.4610   -6.9070   27.3290 N.am      9 SEL2        0.0000 
      6 N          14.3200   -7.6670   25.3020 N.am      5 SEP2        0.0000 
      7 NZ         13.8040   -8.2160   27.0570 N.4       2 LYC4        0.0000 
      8 NZ         13.2880   -8.7650   28.8120 N.4      10 LYL4        0.0000 
      9 Zn         14.0680   -9.4710   29.0885 Zn        3 ZIC7        0.0000 
     10 Zn         13.2880   -8.7650   28.8120 Zn       11 ZIL7        0.0000 
     11 Zn         14.8480  -10.1770   29.3650 Zn        7 ZIP7        0.0000 
     12 N          13.0705   -8.4985   30.0075 N.am      1 SEC2        0.0000 
     13 N          13.2880   -8.7650   28.8120 N.am      9 SEL2        0.0000 
     14 N          12.8530   -8.2320   31.2030 N.am      5 SEP2        0.0000 
     15 NZ         13.7310   -8.9305   24.9495 N.4       2 LYC4        0.0000 
     16 NZ         13.1420  -10.1940   24.5970 N.4      10 LYL4        0.0000 
     17 N          11.4620  -10.4230   24.7780 N.am      1 SEC2        0.0000 
     18 N          13.1420  -10.1940   24.5970 N.am      9 SEL2        0.0000 
     19 N           9.7820  -10.6520   24.9590 N.am      5 SEP2        0.0000 
     20 N          11.9205  -11.0655   23.7815 N.am      1 SEC2        0.0000 
     21 N          10.6990  -11.9370   22.9660 N.am      5 SEP2        0.0000 
     22 N          13.2845  -11.5265   23.6570 N.am      1 SEC2        0.0000 
     23 N          13.4270  -12.8590   22.7170 N.am      5 SEP2        0.0000 
     24 N          14.3645  -10.9200   23.9105 N.am      1 SEC2        0.0000 
     25 N          15.5870  -11.6460   23.2240 N.am      5 SEP2        0.0000 
     26 N          13.7310   -8.9305   24.9495 N.am      1 SEC2        0.0000 
     27 NZ         14.3555   -8.9060   25.9995 N.4       2 LYC4        0.0000 
     28 NZ         14.3910  -10.1450   26.6970 N.4      10 LYL4        0.0000 
     29 Zn         14.6195  -10.1610   28.0310 Zn        3 ZIC7        0.0000 
     30 Zn         14.3910  -10.1450   26.6970 Zn       11 ZIL7        0.0000 
     31 N          14.3555   -8.9060   25.9995 N.am      1 SEC2        0.0000 
     32 N          14.3910  -10.1450   26.6970 N.am      9 SEL2        0.0000 
     33 N          15.7015  -10.7560   26.1955 N.am      1 SEC2        0.0000 
     34 N          17.0120  -11.3670   25.6940 N.am      5 SEP2        0.0000 
     35 N          11.1545  -11.2610   25.6595 N.am      1 SEC2        0.0000 
     36 N          12.5270  -11.8700   26.3600 N.am      9 SEL2        0.0000 
     37 CA         10.3470  -13.4195   25.8805 C.3       4 GLC5        0.0000 
     38 CA         11.2060  -14.7490   26.7950 C.3      12 GLL5        0.0000 
     39 CA          9.4880  -12.0900   24.9660 C.3       8 GLP5        0.0000 
     40 CA          9.5480  -13.6125   27.5960 C.3       4 GLC5        0.0000 
     41 CA          7.8900  -12.4760   28.3970 C.3       8 GLP5        0.0000 
     42 CA          9.7685  -16.9975   25.7515 C.3       4 GLC5        0.0000 
     43 CA         11.0130  -16.1790   27.3070 C.3      12 GLL5        0.0000 
     44 CA          8.5240  -17.8160   24.1960 C.3       8 GLP5        0.0000 
     45 N          10.8570  -16.8725   24.5725 N.am      1 SEC2        0.0000 
     46 N          10.9810  -17.0390   26.1570 N.am      9 SEL2        0.0000 
     47 N          10.7330  -16.7060   22.9880 N.am      5 SEP2        0.0000 
     48 CA         10.1530  -17.9675   25.2770 C.3       4 GLC5        0.0000 
     49 CA         11.7820  -18.1190   26.3580 C.3      12 GLL5        0.0000 
     50 CA         15.3815  -17.6530   24.9955 C.3       4 GLC5        0.0000 
     51 CA         14.3170  -19.0010   24.0030 C.3      12 GLL5        0.0000 
     52 CA         16.4460  -16.3050   25.9880 C.3       8 GLP5        0.0000 
     53 CA         14.6280  -18.1085   26.1275 C.3       4 GLC5        0.0000 
     54 CA         13.5000  -19.2960   25.0490 C.3      12 GLL5        0.0000 
     55 CA         15.7560  -16.9210   27.2060 C.3       8 GLP5        0.0000 
     56 CA         13.8639  -17.3410   27.1726 C.3       4 GLC5        0.0000 
     57 CA         12.0790  -18.1260   27.8050 C.3      12 GLL5        0.0000 
     58 CA         13.8458  -19.9400   21.8310 C.3       4 GLC5        0.0000 
     59 CA         12.9920  -20.3500   19.9640 C.3       8 GLP5        0.0000 
@<TRIPOS>BOND
@<TRIPOS>SUBSTRUCTURE
     1 SEC2        4 GROUP        1 X    SEC  0     ROOT SEC X 2
     2 LYC4        1 GROUP        1 X    LYC  0     **** LYC X 4
     3 ZIC7        9 GROUP        1 X    ZIC  0     **** ZIC X 5
     4 GLC5       37 GROUP        1 X    GLC  0     **** GLC X 6
     5 SEP2        6 GROUP        1 Y    SEP  0     ROOT SEP Y 9
     6 LYP4        3 GROUP        1 Y    LYP  0     **** LYP Y 11
     7 ZIP7       11 GROUP        1 Y    ZIP  0     **** ZIP Y 12
     8 GLP5       39 GROUP        1 Y    GLP  0     **** GLP Y 13
     9 SEL2        5 GROUP        1 Z    SEL  0     ROOT SEL Z 16
    10 LYL4        2 GROUP        1 Z    LYL  0     **** LYL Z 18
    11 ZIL7       10 GROUP        1 Z    ZIL  0     **** ZIL Z 19
    12 GLL5       38 GROUP        1 Z    GLL  0     **** GLL Z 20
@<TRIPOS>SET

