#    Name: 1kqm_ANP_1_ligand
#    Modification time : Tue Mar 25 10:26:40 2014

@<TRIPOS>MOLECULE
1kqm_ANP_1_ligand
   42    44     1     0     0
SMALL
NO_CHARGES


@<TRIPOS>ATOM
      1 PG         12.1340   -8.2350   27.9850 P.3       1 ANP999      0.0000 
      2 O1G        12.4610   -6.9070   27.3290 O.co2     1 ANP999      0.0000 
      3 O2G        10.8520   -8.2490   28.7770 O.co2     1 ANP999      0.0000 
      4 O3G        13.2880   -8.7650   28.8120 O.co2     1 ANP999      0.0000 
      5 PB         13.0470  -10.3730   26.0280 P.3       1 ANP999      0.0000 
      6 O1B        13.1420  -10.1940   24.5970 O.co2     1 ANP999      0.0000 
      7 O2B        14.3910  -10.1450   26.6970 O.co2     1 ANP999      0.0000 
      8 N3B        11.9300   -9.3310   26.6980 N.4       1 ANP999      0.0000 
      9 PA         12.9080  -12.9040   27.5360 P.3       1 ANP999      0.0000 
     10 O1A        14.4560  -12.7810   27.7670 O.co2     1 ANP999      0.0000 
     11 O2A        12.0850  -12.6410   28.7490 O.co2     1 ANP999      0.0000 
     12 O3A        12.5270  -11.8700   26.3600 O.3       1 ANP999      0.0000 
     13 O5'        12.5980  -14.3760   26.9610 O.3       1 ANP999      0.0000 
     14 C5'        11.2060  -14.7490   26.7950 C.3       1 ANP999      0.0000 
     15 C4'        11.0130  -16.1790   27.3070 C.3       1 ANP999      0.0000 
     16 O4'        10.9810  -17.0390   26.1570 O.3       1 ANP999      0.0000 
     17 C3'        12.2440  -16.6800   28.0360 C.3       1 ANP999      0.0000 
     18 O3'        12.1840  -16.2920   29.4040 O.3       1 ANP999      0.0000 
     19 C2'        12.0790  -18.1260   27.8050 C.3       1 ANP999      0.0000 
     20 O2'        10.8620  -18.5300   28.4790 O.3       1 ANP999      0.0000 
     21 C1'        11.7820  -18.1190   26.3580 C.3       1 ANP999      0.0000 
     22 N9         12.9090  -18.1510   25.4500 N.pl3     1 ANP999      0.0000 
     23 C8         13.4480  -17.1860   24.7180 C.2       1 ANP999      0.0000 
     24 N7         14.2680  -17.6410   23.7790 N.2       1 ANP999      0.0000 
     25 C5         14.3170  -19.0010   24.0030 C.ar      1 ANP999      0.0000 
     26 C6         15.0820  -20.0590   23.3930 C.ar      1 ANP999      0.0000 
     27 N6         15.9490  -20.0360   22.3270 N.pl3     1 ANP999      0.0000 
     28 N1         14.7670  -21.2530   23.9270 N.ar      1 ANP999      0.0000 
     29 C2         13.9060  -21.4520   24.9620 C.ar      1 ANP999      0.0000 
     30 N3         13.2460  -20.5010   25.5570 N.ar      1 ANP999      0.0000 
     31 C4         13.5000  -19.2960   25.0490 C.ar      1 ANP999      0.0000 
     32 H          10.9096  -14.7212   25.7473 H         1 ANP999      0.0000 
     33 H          10.5486  -14.0935   27.3645 H         1 ANP999      0.0000 
     34 H          10.1733  -16.2703   27.8921 H         1 ANP999      0.0000 
     35 H          13.0864  -16.3269   27.5102 H         1 ANP999      0.0000 
     36 H          12.9002  -18.6523   28.0275 H         1 ANP999      0.0000 
     37 H          11.1588  -19.0475   26.1740 H         1 ANP999      0.0000 
     38 H          13.2559  -16.2103   24.8591 H         1 ANP999      0.0000 
     39 H          13.7795  -22.4691   25.2916 H         1 ANP999      0.0000 
     40 H          12.1168  -15.2944   29.3872 H         1 ANP999      0.0000 
     41 H          10.7849  -17.9154   29.2641 H         1 ANP999      0.0000 
     42 H          16.6184  -20.7527   22.5225 H         1 ANP999      0.0000 
@<TRIPOS>BOND
     1    2    1 ar   
     2    3    1 ar   
     3    4    1 ar   
     4    8    1 1    
     5    6    5 ar   
     6    7    5 ar   
     7    8    5 1    
     8   12    5 1    
     9   10    9 ar   
    10   11    9 ar   
    11   12    9 1    
    12   13    9 1    
    13   14   13 1    
    14   15   14 1    
    15   32   14 1    
    16   33   14 1    
    17   16   15 1    
    18   17   15 1    
    19   34   15 1    
    20   21   16 1    
    21   18   17 1    
    22   19   17 1    
    23   35   17 1    
    24   40   18 1    
    25   20   19 1    
    26   21   19 1    
    27   36   19 1    
    28   41   20 1    
    29   22   21 1    
    30   37   21 1    
    31   23   22 1    
    32   31   22 1    
    33   24   23 2    
    34   38   23 1    
    35   25   24 1    
    36   26   25 ar   
    37   31   25 ar   
    38   27   26 1    
    39   28   26 ar   
    40   42   27 1    
    41   29   28 ar   
    42   30   29 ar   
    43   39   29 1    
    44   31   30 ar   
@<TRIPOS>SUBSTRUCTURE
     1 ANP999      1 GROUP   
@<TRIPOS>SET

