#    Name: 3MC5_1_CAVITY_N1_6.mol2
#    Modification time : Tue Mar 11 13:18:01 2014

@<TRIPOS>MOLECULE
3MC5_1_CAVITY_N1_6.mol2
   92     0     4     0     0
SMALL
NO_CHARGES


@<TRIPOS>ATOM
      1 CZ         22.0273    6.9578  -10.0495 C.ar      2 PHE5        0.0000 
      2 CZ         23.4650    9.8468   -5.4575 C.ar      2 PHE5        0.0000 
      3 CZ         22.3009    9.2311   -6.1755 C.ar      2 PHE5        0.0000 
      4 CZ         23.0223    9.3895   -7.4811 C.ar      2 PHE5        0.0000 
      5 DU         23.7438    9.5479   -8.7866 H         4 CUB7        0.0000 
      6 DU         24.4653    9.7063  -10.0921 H         4 CUB7        0.0000 
      7 CZ         22.5796    8.9321   -9.5046 C.ar      2 PHE5        0.0000 
      8 CZ         23.3011    9.0905  -10.8102 C.ar      2 PHE5        0.0000 
      9 CZ         24.0226    9.2490  -12.1157 C.ar      2 PHE5        0.0000 
     10 CZ         21.4155    8.3164  -10.2227 C.ar      2 PHE5        0.0000 
     11 CZ         22.1370    8.4748  -11.5282 C.ar      2 PHE5        0.0000 
     12 CZ         20.9728    7.8590  -12.2463 C.ar      2 PHE5        0.0000 
     13 CA         16.0375    5.6948  -11.7894 C.3       3 GLY6        0.0000 
     14 N          24.7388   11.9796   -6.2182 N.2       1 ALA2        0.0000 
     15 DU         25.4603   12.1380   -7.5237 H         4 CUB7        0.0000 
     16 DU         26.1818   12.2964   -8.8292 H         4 CUB7        0.0000 
     17 N          23.5747   11.3638   -6.9362 N.2       1 ALA2        0.0000 
     18 DU         24.2962   11.5222   -8.2418 H         4 CUB7        0.0000 
     19 O          25.0176   11.6807   -9.5473 O.2       1 ALA2        0.0000 
     20 CA         21.6891   10.5896   -6.3488 C.3       3 GLY6        0.0000 
     21 CA         22.4106   10.7481   -7.6543 C.3       3 GLY6        0.0000 
     22 DU         23.1320   10.9065   -8.9598 H         4 CUB7        0.0000 
     23 O          23.8535   11.0649  -10.2653 O.2       1 ALA2        0.0000 
     24 CA         24.5749   11.2233  -11.5709 C.3       3 GLY6        0.0000 
     25 CZ         21.2464   10.1323   -8.3723 C.ar      2 PHE5        0.0000 
     26 CZ         21.9679   10.2907   -9.6779 C.ar      2 PHE5        0.0000 
     27 CZ         22.6893   10.4491  -10.9834 C.ar      2 PHE5        0.0000 
     28 CZ         23.4108   10.6075  -12.2889 C.ar      2 PHE5        0.0000 
     29 CZ         20.8037    9.6749  -10.3959 C.ar      2 PHE5        0.0000 
     30 CZ         21.5252    9.8333  -11.7014 C.ar      2 PHE5        0.0000 
     31 CZ         19.6396    9.0592  -11.1140 C.ar      2 PHE5        0.0000 
     32 CZ         20.3611    9.2176  -12.4195 C.ar      2 PHE5        0.0000 
     33 CA         18.4755    8.4434  -11.8320 C.3       3 GLY6        0.0000 
     34 CA         19.1969    8.6018  -13.1375 C.3       3 GLY6        0.0000 
     35 CZ         16.5898    7.6692  -11.2445 C.ar      2 PHE5        0.0000 
     36 CA         17.3113    7.8276  -12.5501 C.3       3 GLY6        0.0000 
     37 CA         18.0328    7.9860  -13.8556 C.3       3 GLY6        0.0000 
     38 CA         15.4257    7.0534  -11.9626 C.3       3 GLY6        0.0000 
     39 CA         16.1472    7.2118  -13.2681 C.3       3 GLY6        0.0000 
     40 N          25.2912   13.9540   -5.6734 N.2       1 ALA2        0.0000 
     41 DU         26.0127   14.1124   -6.9789 H         4 CUB7        0.0000 
     42 DU         26.7341   14.2708   -8.2844 H         4 CUB7        0.0000 
     43 N          24.1271   13.3382   -6.3914 N.2       1 ALA2        0.0000 
     44 DU         24.8485   13.4966   -7.6969 H         4 CUB7        0.0000 
     45 O          25.5700   13.6550   -9.0025 O.2       1 ALA2        0.0000 
     46 CA         26.2915   13.8134  -10.3080 C.3       3 GLY6        0.0000 
     47 N          22.9629   12.7224   -7.1095 N.2       1 ALA2        0.0000 
     48 O          23.6844   12.8808   -8.4150 O.2       1 ALA2        0.0000 
     49 O          24.4059   13.0392   -9.7205 O.2       1 ALA2        0.0000 
     50 O          25.1273   13.1976  -11.0260 O.2       1 ALA2        0.0000 
     51 CA         25.8488   13.3561  -12.3316 C.3       3 GLY6        0.0000 
     52 N          21.7988   12.1066   -7.8275 N.2       1 ALA2        0.0000 
     53 O          22.5203   12.2650   -9.1330 O.2       1 ALA2        0.0000 
     54 CA         20.6346   11.4909   -8.5456 C.3       3 GLY6        0.0000 
     55 O          21.3561   11.6493   -9.8511 O.2       1 ALA2        0.0000 
     56 O          22.0776   11.8077  -11.1566 O.2       1 ALA2        0.0000 
     57 CZ         19.4705   10.8751   -9.2636 C.ar      2 PHE5        0.0000 
     58 DU         20.1920   11.0335  -10.5691 H         4 CUB7        0.0000 
     59 CZ         20.9134   11.1919  -11.8747 C.ar      2 PHE5        0.0000 
     60 CZ         18.3064   10.2593   -9.9817 C.ar      2 PHE5        0.0000 
     61 CZ         19.0278   10.4177  -11.2872 C.ar      2 PHE5        0.0000 
     62 CZ         19.7493   10.5761  -12.5927 C.ar      2 PHE5        0.0000 
     63 CZ         17.1422    9.6435  -10.6997 C.ar      2 PHE5        0.0000 
     64 O          17.8637    9.8020  -12.0052 O.2       1 ALA2        0.0000 
     65 CZ         18.5851    9.9604  -13.3108 C.ar      2 PHE5        0.0000 
     66 O          15.9781    9.0278  -11.4178 O.2       1 ALA2        0.0000 
     67 CZ         16.6995    9.1862  -12.7233 C.ar      2 PHE5        0.0000 
     68 N          25.4009   15.4709   -7.1521 N.2       1 ALA2        0.0000 
     69 CA         26.1224   15.6294   -8.4576 C.3       3 GLY6        0.0000 
     70 CA         23.5153   14.6968   -6.5646 C.3       3 GLY6        0.0000 
     71 CA         24.2368   14.8552   -7.8702 C.3       3 GLY6        0.0000 
     72 CA         24.9582   15.0136   -9.1757 C.3       3 GLY6        0.0000 
     73 N          22.3512   14.0810   -7.2827 N.2       1 ALA2        0.0000 
     74 CZ         21.1870   13.4652   -8.0007 C.ar      2 PHE5        0.0000 
     75 CA         20.0229   12.8494   -8.7188 C.3       3 GLY6        0.0000 
     76 O          20.7443   13.0079  -10.0243 O.2       1 ALA2        0.0000 
     77 CA         18.8587   12.2337   -9.4368 C.3       3 GLY6        0.0000 
     78 CZ         19.5802   12.3921  -10.7424 C.ar      2 PHE5        0.0000 
     79 CZ         20.3017   12.5505  -12.0479 C.ar      2 PHE5        0.0000 
     80 CZ         17.6946   11.6179  -10.1549 C.ar      2 PHE5        0.0000 
     81 DU         18.4161   11.7763  -11.4604 H         4 CUB7        0.0000 
     82 CA         19.1375   11.9347  -12.7659 C.3       3 GLY6        0.0000 
     83 CZ         19.8590   12.0931  -14.0715 C.ar      2 PHE5        0.0000 
     84 O          17.2519   11.1605  -12.1785 O.2       1 ALA2        0.0000 
     85 CA         17.9734   11.3190  -13.4840 C.3       3 GLY6        0.0000 
     86 CZ         18.2470   13.5922   -9.6101 C.ar      2 PHE5        0.0000 
     87 CZ         18.9684   13.7507  -10.9156 C.ar      2 PHE5        0.0000 
     88 CZ         19.6899   13.9091  -12.2211 C.ar      2 PHE5        0.0000 
     89 N          17.0828   12.9765  -10.3281 N.2       1 ALA2        0.0000 
     90 N          17.8043   13.1349  -11.6336 N.2       1 ALA2        0.0000 
     91 CZ         18.5257   13.2933  -12.9392 C.ar      2 PHE5        0.0000 
     92 O          16.6401   12.5191  -12.3517 O.2       1 ALA2        0.0000 
@<TRIPOS>BOND
@<TRIPOS>SUBSTRUCTURE
     1 ALA2       14 GROUP   
     2 PHE5        1 GROUP   
     3 GLY6       13 GROUP   
     4 CUB7        5 GROUP   
@<TRIPOS>SET

