#    Name: 3mc5_393_1_INTS_M
#    Modification time : Mon Mar 24 22:59:04 2014

@<TRIPOS>MOLECULE
3mc5_393_1_INTS_M
   56     0     6     0     0
SMALL
NO_CHARGES


@<TRIPOS>ATOM
      1 N          15.5940    5.5250  -16.1105 N.am      1 SEC2        0.0000 
      2 N          14.2960    5.8150  -15.3810 N.am      5 SEL2        0.0000 
      3 N          16.8920    5.2350  -16.8400 N.am      3 SEP2        0.0000 
      4 CA         16.0835    7.3245  -16.0515 C.3       2 GLC5        0.0000 
      5 CA         15.7220    7.4480  -13.8830 C.3       6 GLL5        0.0000 
      6 CA         16.4450    7.2010  -18.2200 C.3       4 GLP5        0.0000 
      7 CA         17.1590    6.4260  -13.9885 C.3       2 GLC5        0.0000 
      8 CA         18.5960    5.4040  -14.0940 C.3       4 GLP5        0.0000 
      9 CA         16.1410    9.8540  -13.8355 C.3       2 GLC5        0.0000 
     10 CA         17.6650    8.9820  -13.7430 C.3       6 GLL5        0.0000 
     11 CA         14.6170   10.7260  -13.9280 C.3       4 GLP5        0.0000 
     12 CA         19.6360    9.6830  -14.4880 C.3       2 GLC5        0.0000 
     13 CA         21.6070   10.3840  -15.2330 C.3       4 GLP5        0.0000 
     14 CA         17.7090   10.6685  -14.9210 C.3       2 GLC5        0.0000 
     15 CA         17.7530   12.3550  -16.0990 C.3       4 GLP5        0.0000 
     16 CA         18.1305    7.1930  -13.9185 C.3       2 GLC5        0.0000 
     17 CA         19.7925   12.6125   -7.9580 C.3       2 GLC5        0.0000 
     18 CA         21.3310   11.9470   -9.4100 C.3       6 GLL5        0.0000 
     19 CA         18.2540   13.2780   -6.5060 C.3       4 GLP5        0.0000 
     20 CA         22.2415   14.3070   -9.3265 C.3       2 GLC5        0.0000 
     21 CA         21.9980   12.9150   -8.1270 C.3       6 GLL5        0.0000 
     22 CA         22.4850   15.6990  -10.5260 C.3       4 GLP5        0.0000 
     23 CA         20.6610   12.0855   -6.8175 C.3       2 GLC5        0.0000 
     24 CA         19.3240   11.2560   -5.5080 C.3       4 GLP5        0.0000 
     25 CA         20.9010   14.5515   -8.0350 C.3       2 GLC5        0.0000 
     26 CA         19.8040   16.1880   -7.9430 C.3       4 GLP5        0.0000 
     27 CA         20.2820   14.6730  -12.5045 C.3       2 GLC5        0.0000 
     28 CA         18.8580   13.5780  -12.3800 C.3       6 GLL5        0.0000 
     29 CA         21.7060   15.7680  -12.6290 C.3       4 GLP5        0.0000 
     30 CA         18.8615   14.8460  -10.6685 C.3       2 GLC5        0.0000 
     31 CA         18.8650   16.1140   -8.9570 C.3       4 GLP5        0.0000 
     32 CA         18.3055   12.9665  -14.2395 C.3       2 GLC5        0.0000 
     33 CA         17.7035   14.5315  -13.3260 C.3       2 GLC5        0.0000 
     34 CA         16.5490   15.4850  -14.2720 C.3       4 GLP5        0.0000 
     35 N          15.6860   11.7335  -11.4560 N.am      1 SEC2        0.0000 
     36 N          17.0070   12.4240  -11.4690 N.am      5 SEL2        0.0000 
     37 N          14.3650   11.0430  -11.4430 N.am      3 SEP2        0.0000 
     38 N          17.1410   15.9220  -10.8140 N.am      1 SEC2        0.0000 
     39 N          17.0710   14.6570  -11.2820 N.am      5 SEL2        0.0000 
     40 N          17.2110   17.1870  -10.3460 N.am      3 SEP2        0.0000 
     41 N          16.0420   14.4850  -10.4285 N.am      1 SEC2        0.0000 
     42 N          15.0130   14.3130   -9.5750 N.am      3 SEP2        0.0000 
     43 CA         14.0935    7.6545   -9.3275 C.3       2 GLC5        0.0000 
     44 CA         15.3140    7.4530  -11.1340 C.3       6 GLL5        0.0000 
     45 CA         12.8730    7.8560   -7.5210 C.3       4 GLP5        0.0000 
     46 CA         12.8385    6.0025  -11.1500 C.3       2 GLC5        0.0000 
     47 CA         14.4640    6.6850  -11.9550 C.3       6 GLL5        0.0000 
     48 CA         11.2130    5.3200  -10.3450 C.3       4 GLP5        0.0000 
     49 CA         14.8622    4.8223  -12.3650 C.3       2 GLC5        0.0000 
     50 CA         14.6790    6.6900  -13.3510 C.3       6 GLL5        0.0000 
     51 CA         15.1530    2.9570  -12.0770 C.3       4 GLP5        0.0000 
     52 CA         13.0910    8.1380  -11.0347 C.3       2 GLC5        0.0000 
     53 CA         11.2930    9.2070  -10.5250 C.3       4 GLP5        0.0000 
     54 CA         17.0602    6.4716  -12.3605 C.3       2 GLC5        0.0000 
     55 CA         16.3440    8.1890  -11.7000 C.3       6 GLL5        0.0000 
     56 CA         18.4260    5.3070  -12.5820 C.3       4 GLP5        0.0000 
@<TRIPOS>BOND
@<TRIPOS>SUBSTRUCTURE
     1 SEC2        1 GROUP        1 X    SEC  0     ROOT SEC X 2
     2 GLC5        4 GROUP        1 X    GLC  0     **** GLC X 6
     3 SEP2        3 GROUP        1 Y    SEP  0     ROOT SEP Y 9
     4 GLP5        6 GROUP        1 Y    GLP  0     **** GLP Y 13
     5 SEL2        2 GROUP        1 Z    SEL  0     ROOT SEL Z 16
     6 GLL5        5 GROUP        1 Z    GLL  0     **** GLL Z 20
@<TRIPOS>SET

