#    Name: 3mc5_393_1_ligand
#    Modification time : Mon Mar 24 22:59:04 2014

@<TRIPOS>MOLECULE
3mc5_393_1_ligand
   37    38     1     0     0
SMALL
NO_CHARGES


@<TRIPOS>ATOM
      1 C1         14.6790    6.6900  -13.3510 C.ar      1 393600      0.0000 
      2 N2         13.9090    5.9580  -14.2020 N.pl3     1 393600      0.0000 
      3 O3         14.2960    5.8150  -15.3810 O.2       1 393600      0.0000 
      4 O4         12.8600    5.4620  -13.8010 O.2       1 393600      0.0000 
      5 C5         15.7220    7.4480  -13.8830 C.ar      1 393600      0.0000 
      6 C6         16.5480    8.2150  -13.0690 C.ar      1 393600      0.0000 
      7 C7         17.6650    8.9820  -13.7430 C.3       1 393600      0.0000 
      8 N8         18.3770    9.8680  -12.8360 N.am      1 393600      0.0000 
      9 C9         19.6350    9.4930  -12.4570 C.2       1 393600      0.0000 
     10 C10        20.2620   10.3800  -11.4220 C.ar      1 393600      0.0000 
     11 C11        21.0160    9.7780  -10.4250 C.ar      1 393600      0.0000 
     12 C12        21.5540   10.5800   -9.4170 C.ar      1 393600      0.0000 
     13 C13        21.3310   11.9470   -9.4100 C.ar      1 393600      0.0000 
     14 CL1        21.9980   12.9150   -8.1270 Cl        1 393600      0.0000 
     15 C15        20.5810   12.5570  -10.4070 C.ar      1 393600      0.0000 
     16 C16        20.0490   11.7700  -11.3950 C.ar      1 393600      0.0000 
     17 O17        19.4670   12.3080  -12.5110 O.3       1 393600      0.0000 
     18 C18        18.8580   13.5780  -12.3800 C.3       1 393600      0.0000 
     19 C19        17.5290   13.5360  -11.6480 C.2       1 393600      0.0000 
     20 O20        17.0070   12.4240  -11.4690 O.co2     1 393600      0.0000 
     21 O21        17.0710   14.6570  -11.2820 O.co2     1 393600      0.0000 
     22 O22        20.0560    8.3610  -12.7260 O.2       1 393600      0.0000 
     23 C23        16.3440    8.1890  -11.7000 C.ar      1 393600      0.0000 
     24 C24        15.3140    7.4530  -11.1340 C.ar      1 393600      0.0000 
     25 C25        14.4640    6.6850  -11.9550 C.ar      1 393600      0.0000 
     26 H          15.8833    7.4380  -14.9077 H         1 393600      0.0000 
     27 H          17.2302    9.5564  -14.5855 H         1 393600      0.0000 
     28 H          18.3620    8.2494  -14.1972 H         1 393600      0.0000 
     29 H          17.9278   10.7088  -12.5256 H         1 393600      0.0000 
     30 H          21.1759    8.7723  -10.4250 H         1 393600      0.0000 
     31 H          22.1223   10.1459   -8.6725 H         1 393600      0.0000 
     32 H          20.4344   13.5669  -10.3968 H         1 393600      0.0000 
     33 H          18.6755   14.0472  -13.3739 H         1 393600      0.0000 
     34 H          19.5163   14.2915  -11.8333 H         1 393600      0.0000 
     35 H          16.9779    8.7342  -11.0803 H         1 393600      0.0000 
     36 H          15.1625    7.4608  -10.1197 H         1 393600      0.0000 
     37 H          13.7118    6.1386  -11.5524 H         1 393600      0.0000 
@<TRIPOS>BOND
     1    2    1 1    
     2    5    1 ar   
     3   25    1 ar   
     4    3    2 2    
     5    4    2 2    
     6    6    5 ar   
     7   26    5 1    
     8    7    6 1    
     9   23    6 ar   
    10    8    7 1    
    11   27    7 1    
    12   28    7 1    
    13    9    8 am   
    14   29    8 1    
    15   10    9 1    
    16   22    9 2    
    17   11   10 ar   
    18   16   10 ar   
    19   12   11 ar   
    20   30   11 1    
    21   13   12 ar   
    22   31   12 1    
    23   14   13 1    
    24   15   13 ar   
    25   16   15 ar   
    26   32   15 1    
    27   17   16 1    
    28   18   17 1    
    29   19   18 1    
    30   33   18 1    
    31   34   18 1    
    32   20   19 ar   
    33   21   19 ar   
    34   24   23 ar   
    35   35   23 1    
    36   25   24 ar   
    37   36   24 1    
    38   37   25 1    
@<TRIPOS>SUBSTRUCTURE
     1 393600      1 GROUP   
@<TRIPOS>SET

