#    Name: 2yaa_ATP_1_INTS_M
#    Modification time : Tue Mar 25 07:59:30 2014

@<TRIPOS>MOLECULE
2yaa_ATP_1_INTS_M
   58     0    12     0     0
SMALL
NO_CHARGES


@<TRIPOS>ATOM
      1 N         -24.5700   -2.5575  -32.4675 N.am      2 SEC2        0.0000 
      2 N         -25.1500   -2.7230  -33.7190 N.am     10 SEL2        0.0000 
      3 N         -23.9900   -2.3920  -31.2160 N.am      6 SEP2        0.0000 
      4 N         -26.1680   -5.6075  -36.5190 N.am      2 SEC2        0.0000 
      5 N         -26.0400   -4.2290  -35.5760 N.am     10 SEL2        0.0000 
      6 N         -26.2960   -6.9860  -37.4620 N.am      6 SEP2        0.0000 
      7 NZ        -20.3080   -5.2540  -34.3465 N.4       3 LYC4        0.0000 
      8 NZ        -21.4500   -5.3440  -35.2880 N.4      11 LYL4        0.0000 
      9 NZ        -19.1660   -5.1640  -33.4050 N.4       7 LYP4        0.0000 
     10 N         -20.3080   -5.2540  -34.3465 N.am      2 SEC2        0.0000 
     11 N         -21.4500   -5.3440  -35.2880 N.am     10 SEL2        0.0000 
     12 N         -19.1660   -5.1640  -33.4050 N.am      6 SEP2        0.0000 
     13 NZ        -20.1675   -5.5120  -32.2485 N.4       3 LYC4        0.0000 
     14 NZ        -21.1690   -5.8600  -31.0920 N.4      11 LYL4        0.0000 
     15 N         -20.1675   -5.5120  -32.2485 N.am      2 SEC2        0.0000 
     16 N         -21.1690   -5.8600  -31.0920 N.am     10 SEL2        0.0000 
     17 CA        -23.0035   -4.6685  -29.6115 C.3       4 GLC5        0.0000 
     18 CA        -23.7090   -6.6350  -29.6570 C.3      12 GLL5        0.0000 
     19 CA        -22.2980   -2.7020  -29.5660 C.3       8 GLP5        0.0000 
     20 CA        -24.3445   -8.5460  -25.6675 C.3       4 GLC5        0.0000 
     21 CA        -24.7830   -9.2080  -27.5770 C.3      12 GLL5        0.0000 
     22 CA        -23.9060   -7.8840  -23.7580 C.3       8 GLP5        0.0000 
     23 CA        -24.7360  -11.3650  -29.3175 C.3       4 GLC5        0.0000 
     24 CA        -23.7240   -9.7650  -28.5140 C.3      12 GLL5        0.0000 
     25 CA        -25.7480  -12.9650  -30.1210 C.3       8 GLP5        0.0000 
     26 CA        -22.4180  -10.2630  -30.0440 C.3       4 GLC5        0.0000 
     27 CA        -21.1120  -10.7610  -31.5740 C.3       8 GLP5        0.0000 
     28 CA        -19.3725   -9.0700  -23.6880 C.3       4 GLC5        0.0000 
     29 CA        -19.6540   -9.9000  -25.5890 C.3      12 GLL5        0.0000 
     30 CA        -19.0910   -8.2400  -21.7870 C.3       8 GLP5        0.0000 
     31 O         -17.3035   -9.4565  -24.5390 O.2       1 ALC1        0.0000 
     32 O         -18.4480   -9.3370  -25.3470 O.2       9 ALL1        0.0000 
     33 O         -16.1590   -9.5760  -23.7310 O.2       5 ALP1        0.0000 
     34 N         -19.4115  -10.9840  -23.3555 N.am      2 SEC2        0.0000 
     35 N         -20.1060  -10.9250  -24.8390 N.am     10 SEL2        0.0000 
     36 N         -18.7170  -11.0430  -21.8720 N.am      6 SEP2        0.0000 
     37 CA        -20.7795  -13.0135  -25.8275 C.3       4 GLC5        0.0000 
     38 CA        -21.3020  -11.4880  -25.0740 C.3      12 GLL5        0.0000 
     39 CA        -20.2570  -14.5390  -26.5810 C.3       8 GLP5        0.0000 
     40 CA        -19.2870  -11.9910  -25.9050 C.3       4 GLC5        0.0000 
     41 CA        -17.2720  -12.4940  -26.7360 C.3       8 GLP5        0.0000 
     42 CA        -20.0125  -12.9590  -24.1400 C.3       4 GLC5        0.0000 
     43 CA        -18.7230  -14.4300  -23.2060 C.3       8 GLP5        0.0000 
     44 CA        -22.8065  -10.4535  -23.9985 C.3       4 GLC5        0.0000 
     45 CA        -24.3110   -9.4190  -22.9230 C.3       8 GLP5        0.0000 
     46 CA        -22.1985  -12.2220  -27.1950 C.3       4 GLC5        0.0000 
     47 CA        -21.8070  -10.0720  -26.8860 C.3      12 GLL5        0.0000 
     48 CA        -22.5900  -14.3720  -27.5040 C.3       8 GLP5        0.0000 
     49 CA        -22.8565   -8.9780  -25.3220 C.3       4 GLC5        0.0000 
     50 CA        -23.6412   -6.5255  -27.9793 C.3       4 GLC5        0.0000 
     51 CA        -23.1160   -5.8090  -26.3410 C.3       8 GLP5        0.0000 
     52 CA        -24.0705   -7.1850  -27.1160 C.3       4 GLC5        0.0000 
     53 CA        -25.2670   -7.9140  -28.2050 C.3      12 GLL5        0.0000 
     54 CA        -20.5718  -10.8860  -28.2615 C.3       4 GLC5        0.0000 
     55 CA        -19.9840  -12.0340  -29.7350 C.3       8 GLP5        0.0000 
     56 CA        -18.6775  -11.0730  -26.4378 C.3       4 GLC5        0.0000 
     57 CA        -20.5120   -9.4040  -26.6900 C.3      12 GLL5        0.0000 
     58 CA        -22.1378   -7.7735  -26.5645 C.3       4 GLC5        0.0000 
@<TRIPOS>BOND
@<TRIPOS>SUBSTRUCTURE
     1 ALC1       31 GROUP        1 X    ALC  0     ROOT ALC X 1
     2 SEC2        1 GROUP        1 X    SEC  0     **** SEC X 2
     3 LYC4        7 GROUP        1 X    LYC  0     **** LYC X 4
     4 GLC5       17 GROUP        1 X    GLC  0     **** GLC X 6
     5 ALP1       33 GROUP        1 Y    ALP  0     ROOT ALP Y 8
     6 SEP2        3 GROUP        1 Y    SEP  0     **** SEP Y 9
     7 LYP4        9 GROUP        1 Y    LYP  0     **** LYP Y 11
     8 GLP5       19 GROUP        1 Y    GLP  0     **** GLP Y 13
     9 ALL1       32 GROUP        1 Z    ALL  0     ROOT ALL Z 15
    10 SEL2        2 GROUP        1 Z    SEL  0     **** SEL Z 16
    11 LYL4        8 GROUP        1 Z    LYL  0     **** LYL Z 18
    12 GLL5       18 GROUP        1 Z    GLL  0     **** GLL Z 20
@<TRIPOS>SET

