#    Name: 2yaa_ATP_1_ligand
#    Modification time : Tue Mar 25 07:59:30 2014

@<TRIPOS>MOLECULE
2yaa_ATP_1_ligand
   43    45     1     0     0
SMALL
NO_CHARGES


@<TRIPOS>ATOM
      1 PG        -25.1430   -4.0920  -34.3650 P.3       1 ATP1302     0.0000 
      2 O1G       -25.1500   -2.7230  -33.7190 O.co2     1 ATP1302     0.0000 
      3 O2G       -26.0400   -4.2290  -35.5760 O.co2     1 ATP1302     0.0000 
      4 O3G       -25.2080   -5.2400  -33.3800 O.co2     1 ATP1302     0.0000 
      5 PB        -22.7850   -5.4740  -34.5950 P.3       1 ATP1302     0.0000 
      6 O1B       -21.4500   -5.3440  -35.2880 O.co2     1 ATP1302     0.0000 
      7 O2B       -23.6170   -6.7220  -34.7750 O.co2     1 ATP1302     0.0000 
      8 O3B       -23.6630   -4.1900  -34.9790 O.3       1 ATP1302     0.0000 
      9 PA        -22.3880   -6.2600  -31.8860 P.3       1 ATP1302     0.0000 
     10 O1A       -22.5070   -7.6430  -32.4780 O.co2     1 ATP1302     0.0000 
     11 O2A       -21.1690   -5.8600  -31.0920 O.co2     1 ATP1302     0.0000 
     12 O3A       -22.6230   -5.1470  -33.0240 O.3       1 ATP1302     0.0000 
     13 O5'       -23.6920   -6.0850  -30.9670 O.3       1 ATP1302     0.0000 
     14 C5'       -23.7090   -6.6350  -29.6570 C.3       1 ATP1302     0.0000 
     15 C4'       -24.6240   -7.8490  -29.5780 C.3       1 ATP1302     0.0000 
     16 O4'       -23.8390   -9.0360  -29.7400 O.3       1 ATP1302     0.0000 
     17 C3'       -25.2670   -7.9140  -28.2050 C.3       1 ATP1302     0.0000 
     18 O3'       -26.6950   -7.8900  -28.3140 O.3       1 ATP1302     0.0000 
     19 C2'       -24.7830   -9.2080  -27.5770 C.3       1 ATP1302     0.0000 
     20 O2'       -25.8750  -10.1210  -27.4530 O.3       1 ATP1302     0.0000 
     21 C1'       -23.7240   -9.7650  -28.5140 C.3       1 ATP1302     0.0000 
     22 N9        -22.3910   -9.4610  -27.9250 N.pl3     1 ATP1302     0.0000 
     23 C8        -21.5570   -8.4960  -28.3630 C.2       1 ATP1302     0.0000 
     24 N7        -20.4200   -8.4440  -27.6300 N.2       1 ATP1302     0.0000 
     25 C5        -20.5120   -9.4040  -26.6900 C.ar      1 ATP1302     0.0000 
     26 C6        -19.6540   -9.9000  -25.5890 C.ar      1 ATP1302     0.0000 
     27 N6        -18.4480   -9.3370  -25.3470 N.pl3     1 ATP1302     0.0000 
     28 N1        -20.1060  -10.9250  -24.8390 N.ar      1 ATP1302     0.0000 
     29 C2        -21.3020  -11.4880  -25.0740 C.ar      1 ATP1302     0.0000 
     30 N3        -22.1320  -11.0900  -26.0560 N.ar      1 ATP1302     0.0000 
     31 C4        -21.8070  -10.0720  -26.8860 C.ar      1 ATP1302     0.0000 
     32 H         -24.0625   -5.9013  -28.9113 H         1 ATP1302     0.0000 
     33 H         -22.7020   -6.9544  -29.3358 H         1 ATP1302     0.0000 
     34 H         -25.3811   -7.7710  -30.3154 H         1 ATP1302     0.0000 
     35 H         -24.8884   -7.0965  -27.6220 H         1 ATP1302     0.0000 
     36 H         -24.3270   -8.9810  -26.6426 H         1 ATP1302     0.0000 
     37 H         -23.8604  -10.7898  -28.6345 H         1 ATP1302     0.0000 
     38 H         -21.7494   -7.8991  -29.1247 H         1 ATP1302     0.0000 
     39 H         -17.9130   -9.7439  -24.6066 H         1 ATP1302     0.0000 
     40 H         -18.1984   -8.5637  -25.9300 H         1 ATP1302     0.0000 
     41 H         -21.6131  -12.2959  -24.4483 H         1 ATP1302     0.0000 
     42 H         -26.8804   -7.4338  -29.1843 H         1 ATP1302     0.0000 
     43 H         -26.6759   -9.6105  -27.7661 H         1 ATP1302     0.0000 
@<TRIPOS>BOND
     1    2    1 ar   
     2    3    1 ar   
     3    4    1 ar   
     4    8    1 1    
     5    6    5 ar   
     6    7    5 ar   
     7    8    5 1    
     8   12    5 1    
     9   10    9 ar   
    10   11    9 ar   
    11   12    9 1    
    12   13    9 1    
    13   14   13 1    
    14   15   14 1    
    15   32   14 1    
    16   33   14 1    
    17   16   15 1    
    18   17   15 1    
    19   34   15 1    
    20   21   16 1    
    21   18   17 1    
    22   19   17 1    
    23   35   17 1    
    24   42   18 1    
    25   20   19 1    
    26   21   19 1    
    27   36   19 1    
    28   43   20 1    
    29   22   21 1    
    30   37   21 1    
    31   23   22 1    
    32   31   22 1    
    33   24   23 2    
    34   38   23 1    
    35   25   24 1    
    36   26   25 ar   
    37   31   25 ar   
    38   27   26 1    
    39   28   26 ar   
    40   39   27 1    
    41   40   27 1    
    42   29   28 ar   
    43   30   29 ar   
    44   41   29 1    
    45   31   30 ar   
@<TRIPOS>SUBSTRUCTURE
     1 ATP1302     1 GROUP   
@<TRIPOS>SET

