#    Name: 1yt9_OIS_1_INTS_M
#    Modification time : Tue Mar 25 11:15:17 2014

@<TRIPOS>MOLECULE
1yt9_OIS_1_INTS_M
   69     0     9     0     0
SMALL
NO_CHARGES


@<TRIPOS>ATOM
      1 CA         12.4565   27.1555    5.5170 C.3       3 GLC5        0.0000 
      2 CA         12.7340   25.0610    5.2490 C.3       9 GLL5        0.0000 
      3 CA         12.1790   29.2500    5.7850 C.3       6 GLP5        0.0000 
      4 CA         14.5045   18.0840    7.1455 C.3       3 GLC5        0.0000 
      5 CA         16.3560   18.3530    6.2030 C.3       9 GLL5        0.0000 
      6 CA         12.6530   17.8150    8.0880 C.3       6 GLP5        0.0000 
      7 N          15.5295   25.5455    3.3535 N.am      2 SEC2        0.0000 
      8 N          14.9120   24.9260    4.2720 N.am      8 SEL2        0.0000 
      9 N          16.1470   26.1650    2.4350 N.am      5 SEP2        0.0000 
     10 O          15.1430   25.8230    5.4000 O.2       1 ALC1        0.0000 
     11 O          14.9120   24.9260    4.2720 O.2       7 ALL1        0.0000 
     12 O          15.3740   26.7200    6.5280 O.2       4 ALP1        0.0000 
     13 CA         18.3930   23.7530    8.1555 C.3       3 GLC5        0.0000 
     14 CA         16.8390   22.4820    8.2150 C.3       9 GLL5        0.0000 
     15 CA         19.9470   25.0240    8.0960 C.3       6 GLP5        0.0000 
     16 CA         10.4440   25.5075    0.7020 C.3       3 GLC5        0.0000 
     17 CA          9.6880   24.0850    1.9260 C.3       9 GLL5        0.0000 
     18 CA         11.2000   26.9300   -0.5220 C.3       6 GLP5        0.0000 
     19 CA          9.1240   24.1755    0.0160 C.3       3 GLC5        0.0000 
     20 CA          8.5600   24.2660   -1.8940 C.3       6 GLP5        0.0000 
     21 CA          8.8835   21.5950    4.3415 C.3       3 GLC5        0.0000 
     22 CA         10.5030   22.2250    3.3860 C.3       9 GLL5        0.0000 
     23 CA          7.2640   20.9650    5.2970 C.3       6 GLP5        0.0000 
     24 CA         10.7755   20.2830    3.2525 C.3       3 GLC5        0.0000 
     25 CA         11.0480   18.3410    3.1190 C.3       6 GLP5        0.0000 
     26 CA         16.8110   19.9305    2.2715 C.3       3 GLC5        0.0000 
     27 CA         16.5090   17.8060    2.7270 C.3       9 GLL5        0.0000 
     28 CA         17.1130   22.0550    1.8160 C.3       6 GLP5        0.0000 
     29 N          19.4830   20.7340    3.7140 N.am      2 SEC2        0.0000 
     30 N          18.8230   20.5030    4.8510 N.am      8 SEL2        0.0000 
     31 N          20.1430   20.9650    2.5770 N.am      5 SEP2        0.0000 
     32 CA         19.3685   21.1485   12.1615 C.3       3 GLC5        0.0000 
     33 CA         20.4090   19.5340   11.1270 C.3       9 GLL5        0.0000 
     34 CA         18.3280   22.7630   13.1960 C.3       6 GLP5        0.0000 
     35 O           6.0810   31.9265    8.7660 O.2       1 ALC1        0.0000 
     36 O           5.7700   30.6300    8.7830 O.2       7 ALL1        0.0000 
     37 O           6.3920   33.2230    8.7490 O.2       4 ALP1        0.0000 
     38 CA         15.0892   20.1703   11.0383 C.3       3 GLC5        0.0000 
     39 CA         15.0690   20.5820    9.3210 C.3       9 GLL5        0.0000 
     40 CA         14.4210   19.7820   12.5950 C.3       6 GLP5        0.0000 
     41 CA         17.2176   22.2401   10.5435 C.3       3 GLC5        0.0000 
     42 CA         16.4460   20.5350    9.6420 C.3       9 GLL5        0.0000 
     43 CA         17.6730   23.2200   11.9410 C.3       6 GLP5        0.0000 
     44 CA         13.7400   19.4485    8.4857 C.3       3 GLC5        0.0000 
     45 CA         14.8192   23.8305    9.2205 C.3       3 GLC5        0.0000 
     46 CA         14.5850   21.5820    8.4460 C.3       9 GLL5        0.0000 
     47 CA         14.3310   25.4810   10.3110 C.3       6 GLP5        0.0000 
     48 CA         10.8824   22.3747    1.3299 C.3       3 GLC5        0.0000 
     49 CA         11.4170   21.6910   -0.2660 C.3       6 GLP5        0.0000 
     50 CA         13.0017   18.6450    2.9230 C.3       3 GLC5        0.0000 
     51 CA         15.4000   18.7080    3.3060 C.3       9 GLL5        0.0000 
     52 CA         16.1101   20.6495    2.3754 C.3       3 GLC5        0.0000 
     53 CA         15.1996   17.6583    1.0450 C.3       3 GLC5        0.0000 
     54 CA         14.5110   19.1900    2.1480 C.3       9 GLL5        0.0000 
     55 CA         14.6670   16.9390   -0.6370 C.3       6 GLP5        0.0000 
     56 CA         14.8986   16.6662    2.5585 C.3       3 GLC5        0.0000 
     57 CA         14.0650   14.9550    2.3900 C.3       6 GLP5        0.0000 
     58 CA          7.8250   29.1850    6.8250 C.3       3 GLC5        0.0000 
     59 CA          7.7120   26.9860    7.4070 C.3       9 GLL5        0.0000 
     60 CA          7.6370   30.9060    5.8140 C.3       6 GLP5        0.0000 
     61 CA          6.5865   27.0810    9.0995 C.3       3 GLC5        0.0000 
     62 CA          8.3140   27.9420    8.2650 C.3       9 GLL5        0.0000 
     63 CA          5.1600   26.6980   10.3630 C.3       6 GLP5        0.0000 
     64 CA         11.5375   28.1810    7.7465 C.3       3 GLC5        0.0000 
     65 CA          9.6530   27.7550    8.6980 C.3       9 GLL5        0.0000 
     66 CA         13.0560   29.1730    7.0040 C.3       6 GLP5        0.0000 
     67 CA         10.4860   27.6115   10.4005 C.3       3 GLC5        0.0000 
     68 CA         10.3850   26.6230    8.2800 C.3       9 GLL5        0.0000 
     69 CA         10.9530   28.0340   12.3120 C.3       6 GLP5        0.0000 
@<TRIPOS>BOND
@<TRIPOS>SUBSTRUCTURE
     1 ALC1       10 GROUP        1 X    ALC  0     ROOT ALC X 1
     2 SEC2        7 GROUP        1 X    SEC  0     **** SEC X 2
     3 GLC5        1 GROUP        1 X    GLC  0     **** GLC X 6
     4 ALP1       12 GROUP        1 Y    ALP  0     ROOT ALP Y 8
     5 SEP2        9 GROUP        1 Y    SEP  0     **** SEP Y 9
     6 GLP5        3 GROUP        1 Y    GLP  0     **** GLP Y 13
     7 ALL1       11 GROUP        1 Z    ALL  0     ROOT ALL Z 15
     8 SEL2        8 GROUP        1 Z    SEL  0     **** SEL Z 16
     9 GLL5        2 GROUP        1 Z    GLL  0     **** GLL Z 20
@<TRIPOS>SET

