#    Name: 1yt9_OIS_1_ligand
#    Modification time : Tue Mar 25 11:15:17 2014

@<TRIPOS>MOLECULE
1yt9_OIS_1_ligand
   94    97     1     0     0
SMALL
NO_CHARGES


@<TRIPOS>ATOM
      1 N6          6.3730   29.4830    8.2730 N.2       1 OIS1000     0.0000 
      2 N1         15.2770   22.0870    5.0540 N.am      1 OIS1000     0.0000 
      3 C2         14.3030   23.0320    5.6630 C.3       1 OIS1000     0.0000 
      4 N2         11.4640   24.3210    5.3300 N.pl3     1 OIS1000     0.0000 
      5 N3         19.6790   17.7690    9.3510 N.2       1 OIS1000     0.0000 
      6 C4         14.9740   23.6050    6.9410 C.3       1 OIS1000     0.0000 
      7 N4         16.8520   19.3490    5.2390 N.am      1 OIS1000     0.0000 
      8 C5         12.7340   25.0610    5.2490 C.3       1 OIS1000     0.0000 
      9 C6         16.3560   18.3530    6.2030 C.3       1 OIS1000     0.0000 
     10 O1         14.9120   24.9260    4.2720 O.3       1 OIS1000     0.0000 
     11 O2          9.7350   23.1750    6.7810 O.2       1 OIS1000     0.0000 
     12 O3         11.7500   24.0110    7.8670 O.2       1 OIS1000     0.0000 
     13 O4         13.7500   20.3470    4.9130 O.2       1 OIS1000     0.0000 
     14 C1         14.8870   20.8020    4.7380 C.2       1 OIS1000     0.0000 
     15 C3         13.8230   24.1230    4.6640 C.3       1 OIS1000     0.0000 
     16 C7         10.6970   23.6990    3.0050 C.3       1 OIS1000     0.0000 
     17 C8         10.5340   24.6010    4.2430 C.3       1 OIS1000     0.0000 
     18 S1         10.6920   24.2350    6.9280 S.o2      1 OIS1000     0.0000 
     19 C11        15.4670   22.5430    7.8850 C.ar      1 OIS1000     0.0000 
     20 C12        16.8390   22.4820    8.2150 C.ar      1 OIS1000     0.0000 
     21 C13        17.3180   21.4890    9.0850 C.ar      1 OIS1000     0.0000 
     22 C14        16.4460   20.5350    9.6420 C.ar      1 OIS1000     0.0000 
     23 C15        15.0690   20.5820    9.3210 C.ar      1 OIS1000     0.0000 
     24 C16        14.5850   21.5820    8.4460 C.ar      1 OIS1000     0.0000 
     25 C17         9.6880   24.0850    1.9260 C.3       1 OIS1000     0.0000 
     26 C18        10.5030   22.2250    3.3860 C.3       1 OIS1000     0.0000 
     27 C19        16.0070   19.8880    4.1370 C.3       1 OIS1000     0.0000 
     28 C20        18.1460   19.6980    5.4850 C.2       1 OIS1000     0.0000 
     29 C21        15.4000   18.7080    3.3060 C.3       1 OIS1000     0.0000 
     30 C22        14.5110   19.1900    2.1480 C.3       1 OIS1000     0.0000 
     31 C23        16.5090   17.8060    2.7270 C.3       1 OIS1000     0.0000 
     32 N5         18.5880   19.0060    6.5610 N.am      1 OIS1000     0.0000 
     33 O5         18.8230   20.5030    4.8510 O.2       1 OIS1000     0.0000 
     34 C31        17.5590   18.1150    7.1140 C.3       1 OIS1000     0.0000 
     35 C32         8.4480   25.8550    6.9890 C.ar      1 OIS1000     0.0000 
     36 C34         7.7120   26.9860    7.4070 C.ar      1 OIS1000     0.0000 
     37 C35         8.3140   27.9420    8.2650 C.ar      1 OIS1000     0.0000 
     38 C36         9.6530   27.7550    8.6980 C.ar      1 OIS1000     0.0000 
     39 C37        10.3850   26.6230    8.2800 C.ar      1 OIS1000     0.0000 
     40 C38         9.7840   25.6760    7.4280 C.ar      1 OIS1000     0.0000 
     41 C40         7.5860   29.1260    8.7280 C.2       1 OIS1000     0.0000 
     42 C10        19.9500   19.1240    7.1220 C.3       1 OIS1000     0.0000 
     43 C24        20.0250   18.9940    8.6170 C.2       1 OIS1000     0.0000 
     44 C9         20.4210   19.9790    9.4390 C.2       1 OIS1000     0.0000 
     45 C28        19.8350   17.9130   10.6740 C.2       1 OIS1000     0.0000 
     46 S2         20.4090   19.5340   11.1270 S.3       1 OIS1000     0.0000 
     47 O7          5.7700   30.6300    8.7830 O.3       1 OIS1000     0.0000 
     48 C25        19.5590   16.8170   11.7020 C.3       1 OIS1000     0.0000 
     49 H          16.2172   22.4332    4.8897 H         1 OIS1000     0.0000 
     50 H          13.4291   22.4612    5.9941 H         1 OIS1000     0.0000 
     51 H          14.2416   24.2489    7.4501 H         1 OIS1000     0.0000 
     52 H          15.8111   24.2461    6.6273 H         1 OIS1000     0.0000 
     53 H          13.0627   25.3841    6.2305 H         1 OIS1000     0.0000 
     54 H          12.6457   25.9206    4.5940 H         1 OIS1000     0.0000 
     55 H          16.1024   17.4391    5.7182 H         1 OIS1000     0.0000 
     56 H          15.5535   18.7440    6.7840 H         1 OIS1000     0.0000 
     57 H          13.3877   23.6182    3.8051 H         1 OIS1000     0.0000 
     58 H          11.6916   23.8254    2.6137 H         1 OIS1000     0.0000 
     59 H          10.6355   25.6553    3.9018 H         1 OIS1000     0.0000 
     60 H           9.4819   24.5005    4.5913 H         1 OIS1000     0.0000 
     61 H          17.4868   23.1689    7.8149 H         1 OIS1000     0.0000 
     62 H          18.3199   21.4574    9.3192 H         1 OIS1000     0.0000 
     63 H          16.7993   19.8170   10.2699 H         1 OIS1000     0.0000 
     64 H          14.4280   19.8973    9.7192 H         1 OIS1000     0.0000 
     65 H          13.5880   21.6155    8.2129 H         1 OIS1000     0.0000 
     66 H          16.6075   20.4892    3.4752 H         1 OIS1000     0.0000 
     67 H          14.7940   18.1006    3.9715 H         1 OIS1000     0.0000 
     68 H          17.8513   17.0925    7.0407 H         1 OIS1000     0.0000 
     69 H          17.2993   18.3935    8.1096 H         1 OIS1000     0.0000 
     70 H           8.0198   25.1654    6.3709 H         1 OIS1000     0.0000 
     71 H           6.7513   27.1172    7.0946 H         1 OIS1000     0.0000 
     72 H          10.0856   28.4453    9.3152 H         1 OIS1000     0.0000 
     73 H          11.3468   26.4921    8.5948 H         1 OIS1000     0.0000 
     74 H           8.0826   29.6972    9.4588 H         1 OIS1000     0.0000 
     75 H          20.3912   20.1033    6.8280 H         1 OIS1000     0.0000 
     76 H          20.6101   18.3524    6.6648 H         1 OIS1000     0.0000 
     77 H          20.7101   20.8726    9.3190 H         1 OIS1000     0.0000 
     78 H           9.8068   25.0322    1.6282 H         1 OIS1000     0.0000 
     79 H           9.7749   23.5091    1.1131 H         1 OIS1000     0.0000 
     80 H           8.7460   23.9954    2.2493 H         1 OIS1000     0.0000 
     81 H          10.6028   21.6208    2.5954 H         1 OIS1000     0.0000 
     82 H          11.1701   21.9270    4.0687 H         1 OIS1000     0.0000 
     83 H           9.5952   22.0571    3.7704 H         1 OIS1000     0.0000 
     84 H          15.0197   19.7575    1.5006 H         1 OIS1000     0.0000 
     85 H          14.1289   18.4249    1.6298 H         1 OIS1000     0.0000 
     86 H          13.7401   19.7370    2.4744 H         1 OIS1000     0.0000 
     87 H          17.1242   18.3142    2.1244 H         1 OIS1000     0.0000 
     88 H          17.0724   17.4013    3.4473 H         1 OIS1000     0.0000 
     89 H          16.1315   17.0508    2.1911 H         1 OIS1000     0.0000 
     90 H          20.1276   16.0094   11.5456 H         1 OIS1000     0.0000 
     91 H          19.7418   17.1280   12.6346 H         1 OIS1000     0.0000 
     92 H          18.6063   16.5143   11.6754 H         1 OIS1000     0.0000 
     93 H          15.2546   25.3295    5.1204 H         1 OIS1000     0.0000 
     94 H           6.3620   31.3830    8.4957 H         1 OIS1000     0.0000 
@<TRIPOS>BOND
     1   41    1 2    
     2   47    1 1    
     3    3    2 1    
     4   14    2 am   
     5   49    2 1    
     6    6    3 1    
     7   15    3 1    
     8   50    3 1    
     9    8    4 1    
    10   17    4 1    
    11   18    4 1    
    12   43    5 1    
    13   45    5 2    
    14   19    6 1    
    15   51    6 1    
    16   52    6 1    
    17    9    7 1    
    18   27    7 1    
    19   28    7 am   
    20   15    8 1    
    21   53    8 1    
    22   54    8 1    
    23   34    9 1    
    24   55    9 1    
    25   56    9 1    
    26   15   10 1    
    27   93   10 1    
    28   18   11 2    
    29   18   12 2    
    30   14   13 2    
    31   27   14 1    
    32   57   15 1    
    33   17   16 1    
    34   25   16 1    
    35   26   16 1    
    36   58   16 1    
    37   59   17 1    
    38   60   17 1    
    39   40   18 1    
    40   20   19 ar   
    41   24   19 ar   
    42   21   20 ar   
    43   61   20 1    
    44   22   21 ar   
    45   62   21 1    
    46   23   22 ar   
    47   63   22 1    
    48   24   23 ar   
    49   64   23 1    
    50   65   24 1    
    51   78   25 1    
    52   79   25 1    
    53   80   25 1    
    54   81   26 1    
    55   82   26 1    
    56   83   26 1    
    57   29   27 1    
    58   66   27 1    
    59   32   28 am   
    60   33   28 2    
    61   30   29 1    
    62   31   29 1    
    63   67   29 1    
    64   84   30 1    
    65   85   30 1    
    66   86   30 1    
    67   87   31 1    
    68   88   31 1    
    69   89   31 1    
    70   34   32 1    
    71   42   32 1    
    72   68   34 1    
    73   69   34 1    
    74   36   35 ar   
    75   40   35 ar   
    76   70   35 1    
    77   37   36 ar   
    78   71   36 1    
    79   38   37 ar   
    80   41   37 1    
    81   39   38 ar   
    82   72   38 1    
    83   40   39 ar   
    84   73   39 1    
    85   74   41 1    
    86   43   42 1    
    87   75   42 1    
    88   76   42 1    
    89   44   43 2    
    90   46   44 1    
    91   77   44 1    
    92   46   45 1    
    93   48   45 1    
    94   94   47 1    
    95   90   48 1    
    96   91   48 1    
    97   92   48 1    
@<TRIPOS>SUBSTRUCTURE
     1 OIS1000     1 GROUP   
@<TRIPOS>SET

