#    Name: 2rlc_CHD_1_INTS_M
#    Modification time : Tue Mar 25 00:04:40 2014

@<TRIPOS>MOLECULE
2rlc_CHD_1_INTS_M
   59     0     9     0     0
SMALL
NO_CHARGES


@<TRIPOS>ATOM
      1 CA         35.1690    2.0745   16.0610 C.3       3 GLC5        0.0000 
      2 CA         36.4930    2.4940   17.5020 C.3       9 GLL5        0.0000 
      3 CA         33.8450    1.6550   14.6200 C.3       6 GLP5        0.0000 
      4 N          36.9110    6.0955   22.5770 N.am      1 SEC2        0.0000 
      5 N          36.8810    6.0200   20.8950 N.am      7 SEL2        0.0000 
      6 N          36.9410    6.1710   24.2590 N.am      4 SEP2        0.0000 
      7 N          37.9075    5.4535   21.8785 N.am      1 SEC2        0.0000 
      8 N          38.9340    4.8870   22.8620 N.am      4 SEP2        0.0000 
      9 CA         37.9830    6.8120   16.7915 C.3       3 GLC5        0.0000 
     10 CA         38.0600    5.8800   18.7420 C.3       9 GLL5        0.0000 
     11 CA         37.9060    7.7440   14.8410 C.3       6 GLP5        0.0000 
     12 CA         39.3025    4.1820   15.5745 C.3       3 GLC5        0.0000 
     13 CA         39.1890    3.8500   17.6650 C.3       9 GLL5        0.0000 
     14 CA         39.4160    4.5140   13.4840 C.3       6 GLP5        0.0000 
     15 CA         41.9035    4.8295   16.4295 C.3       3 GLC5        0.0000 
     16 CA         40.8460    6.4640   17.4580 C.3       9 GLL5        0.0000 
     17 CA         42.9610    3.1950   15.4010 C.3       6 GLP5        0.0000 
     18 CA         39.3760    7.1040   16.1495 C.3       3 GLC5        0.0000 
     19 CA         37.9595    4.5630   14.8895 C.3       3 GLC5        0.0000 
     20 CA         36.5030    4.6120   16.2950 C.3       9 GLL5        0.0000 
     21 CA         35.5100    3.6210   15.0910 C.3       3 GLC5        0.0000 
     22 CA         34.5170    2.6300   13.8870 C.3       6 GLP5        0.0000 
     23 CA         37.2045    6.1780   15.5680 C.3       3 GLC5        0.0000 
     24 CA         35.2430    6.3785   15.8805 C.3       3 GLC5        0.0000 
     25 CA         33.9830    8.1450   15.4660 C.3       6 GLP5        0.0000 
     26 CA         44.5555    3.5995   17.7450 C.3       3 GLC5        0.0000 
     27 CA         43.6740    4.6190   18.9890 C.3       9 GLL5        0.0000 
     28 CA         45.4370    2.5800   16.5010 C.3       6 GLP5        0.0000 
     29 CA         42.1835    5.3675   23.2940 C.3       3 GLC5        0.0000 
     30 CA         43.8410    5.7900   21.9100 C.3       9 GLL5        0.0000 
     31 CA         40.5260    4.9450   24.6780 C.3       6 GLP5        0.0000 
     32 NZ         47.7350    6.7750   21.3530 N.4       2 LYC4        0.0000 
     33 NZ         46.2030    5.8940   22.2040 N.4       8 LYL4        0.0000 
     34 NZ         49.2670    7.6560   20.5020 N.4       5 LYP4        0.0000 
     35 CA         33.4705    2.5905   20.1300 C.3       3 GLC5        0.0000 
     36 CA         35.1560    3.6640   19.8190 C.3       9 GLL5        0.0000 
     37 CA         31.7990    2.2720   20.5550 C.3       6 GLP5        0.0000 
     38 CA         33.7915    5.7397   17.9810 C.3       3 GLC5        0.0000 
     39 CA         35.4020    4.4940   18.5450 C.3       9 GLL5        0.0000 
     40 CA         32.1350    6.2410   17.2320 C.3       6 GLP5        0.0000 
     41 CA         35.7137    8.1893   19.0315 C.3       3 GLC5        0.0000 
     42 CA         35.4940    5.9830   18.9150 C.3       9 GLL5        0.0000 
     43 CA         35.2610   10.1800   18.8480 C.3       6 GLP5        0.0000 
     44 CA         40.8825    2.5533   17.1977 C.3       3 GLC5        0.0000 
     45 CA         41.9220    1.1040   16.3570 C.3       6 GLP5        0.0000 
     46 CA         39.9020    6.5315   22.1178 C.3       3 GLC5        0.0000 
     47 CA         41.2090    7.3820   20.3380 C.3       9 GLL5        0.0000 
     48 CA         39.3600    5.6590   23.9940 C.3       6 GLP5        0.0000 
     49 CA         40.6130    8.6505   21.6378 C.3       3 GLC5        0.0000 
     50 CA         39.6790    7.4260   20.1450 C.3       9 GLL5        0.0000 
     51 CA         40.7820    9.8970   23.0340 C.3       6 GLP5        0.0000 
     52 CA         45.5706    5.5429   19.5074 C.3       3 GLC5        0.0000 
     53 CA         43.1730    5.9900   19.4440 C.3       9 GLL5        0.0000 
     54 CA         47.3950    5.1790   19.1190 C.3       6 GLP5        0.0000 
     55 CA         44.7711    6.6559   18.4539 C.3       3 GLC5        0.0000 
     56 CA         44.0690    6.5090   20.5750 C.3       9 GLL5        0.0000 
     57 CA         45.7960    7.4050   17.0120 C.3       6 GLP5        0.0000 
     58 CA         43.2550    7.3087   22.6583 C.3       3 GLC5        0.0000 
     59 CA         42.5550    8.4680   24.0740 C.3       6 GLP5        0.0000 
@<TRIPOS>BOND
@<TRIPOS>SUBSTRUCTURE
     1 SEC2        4 GROUP        1 X    SEC  0     ROOT SEC X 2
     2 LYC4       32 GROUP        1 X    LYC  0     **** LYC X 4
     3 GLC5        1 GROUP        1 X    GLC  0     **** GLC X 6
     4 SEP2        6 GROUP        1 Y    SEP  0     ROOT SEP Y 9
     5 LYP4       34 GROUP        1 Y    LYP  0     **** LYP Y 11
     6 GLP5        3 GROUP        1 Y    GLP  0     **** GLP Y 13
     7 SEL2        5 GROUP        1 Z    SEL  0     ROOT SEL Z 16
     8 LYL4       33 GROUP        1 Z    LYL  0     **** LYL Z 18
     9 GLL5        2 GROUP        1 Z    GLL  0     **** GLL Z 20
@<TRIPOS>SET

