#    Name: 2rlc_CHD_1_ligand
#    Modification time : Tue Mar 25 00:04:40 2014

@<TRIPOS>MOLECULE
2rlc_CHD_1_ligand
   68    71     1     0     0
SMALL
NO_CHARGES


@<TRIPOS>ATOM
      1 C1         36.4930    2.4940   17.5020 C.3       1 CHD332      0.0000 
      2 C2         36.3530    1.7050   18.8050 C.3       1 CHD332      0.0000 
      3 C3         35.1280    2.1540   19.5910 C.3       1 CHD332      0.0000 
      4 O3         35.1200    1.4930   20.8590 O.3       1 CHD332      0.0000 
      5 C4         35.1560    3.6640   19.8190 C.3       1 CHD332      0.0000 
      6 C5         35.4020    4.4940   18.5450 C.3       1 CHD332      0.0000 
      7 C6         35.4940    5.9830   18.9150 C.3       1 CHD332      0.0000 
      8 C7         36.8390    6.4140   19.5150 C.3       1 CHD332      0.0000 
      9 O7         36.8810    6.0200   20.8950 O.3       1 CHD332      0.0000 
     10 C8         38.0600    5.8800   18.7420 C.3       1 CHD332      0.0000 
     11 C9         37.9330    4.3810   18.3890 C.3       1 CHD332      0.0000 
     12 C10        36.6000    4.0130   17.6990 C.3       1 CHD332      0.0000 
     13 C11        39.1890    3.8500   17.6650 C.3       1 CHD332      0.0000 
     14 C12        40.4970    4.1550   18.4120 C.3       1 CHD332      0.0000 
     15 O12        40.5690    3.3510   19.6000 O.3       1 CHD332      0.0000 
     16 C13        40.6340    5.6520   18.7450 C.3       1 CHD332      0.0000 
     17 C14        39.3770    6.0620   19.5120 C.3       1 CHD332      0.0000 
     18 C15        39.6790    7.4260   20.1450 C.3       1 CHD332      0.0000 
     19 C16        41.2090    7.3820   20.3380 C.3       1 CHD332      0.0000 
     20 C17        41.6740    6.0100   19.8130 C.3       1 CHD332      0.0000 
     21 C18        40.8460    6.4640   17.4580 C.3       1 CHD332      0.0000 
     22 C19        36.5030    4.6120   16.2950 C.3       1 CHD332      0.0000 
     23 C20        43.1730    5.9900   19.4440 C.3       1 CHD332      0.0000 
     24 C21        43.6740    4.6190   18.9890 C.3       1 CHD332      0.0000 
     25 C22        44.0690    6.5090   20.5750 C.3       1 CHD332      0.0000 
     26 C23        43.8410    5.7900   21.9100 C.3       1 CHD332      0.0000 
     27 O25        45.0760    4.4440   23.4140 O.co2     1 CHD332      0.0000 
     28 C24        45.1330    5.3480   22.5510 C.2       1 CHD332      0.0000 
     29 O26        46.2030    5.8940   22.2040 O.co2     1 CHD332      0.0000 
     30 H          35.6246    2.2805   16.8585 H         1 CHD332      0.0000 
     31 H          37.3881    2.1425   16.9645 H         1 CHD332      0.0000 
     32 H          37.2469    1.8555   19.4113 H         1 CHD332      0.0000 
     33 H          36.2639    0.6435   18.5718 H         1 CHD332      0.0000 
     34 H          34.2482    1.9121   19.0224 H         1 CHD332      0.0000 
     35 H          35.9444    3.9034   20.5519 H         1 CHD332      0.0000 
     36 H          34.1976    3.9793   20.2641 H         1 CHD332      0.0000 
     37 H          34.4874    4.3858   17.9159 H         1 CHD332      0.0000 
     38 H          34.6908    6.2196   19.6348 H         1 CHD332      0.0000 
     39 H          35.2980    6.5856   18.0108 H         1 CHD332      0.0000 
     40 H          36.8737    7.5183   19.4550 H         1 CHD332      0.0000 
     41 H          38.1501    6.4273   17.8024 H         1 CHD332      0.0000 
     42 H          37.9175    3.8408   19.3945 H         1 CHD332      0.0000 
     43 H          39.2354    4.2978   16.6647 H         1 CHD332      0.0000 
     44 H          39.0924    2.7644   17.5412 H         1 CHD332      0.0000 
     45 H          41.3208    3.8940   17.7354 H         1 CHD332      0.0000 
     46 H          39.3461    5.3331   20.3968 H         1 CHD332      0.0000 
     47 H          39.2065    7.4989   21.0845 H         1 CHD332      0.0000 
     48 H          39.4301    8.1979   19.4716 H         1 CHD332      0.0000 
     49 H          41.4391    7.4636   21.3770 H         1 CHD332      0.0000 
     50 H          41.6628    8.1574   19.7619 H         1 CHD332      0.0000 
     51 H          41.5070    5.3108   20.6650 H         1 CHD332      0.0000 
     52 H          43.3124    6.6846   18.5871 H         1 CHD332      0.0000 
     53 H          43.8841    7.5831   20.7122 H         1 CHD332      0.0000 
     54 H          45.1205    6.3894   20.2805 H         1 CHD332      0.0000 
     55 H          43.1995    4.9180   21.7339 H         1 CHD332      0.0000 
     56 H          43.3065    6.4676   22.5868 H         1 CHD332      0.0000 
     57 H          40.9340    7.4422   17.6463 H         1 CHD332      0.0000 
     58 H          41.6746    6.1830   16.9738 H         1 CHD332      0.0000 
     59 H          40.0831    6.3557   16.8206 H         1 CHD332      0.0000 
     60 H          36.5627    5.6101   16.3121 H         1 CHD332      0.0000 
     61 H          37.2370    4.2846   15.7000 H         1 CHD332      0.0000 
     62 H          35.6386    4.3777   15.8502 H         1 CHD332      0.0000 
     63 H          44.6476    4.6361   18.7614 H         1 CHD332      0.0000 
     64 H          43.5509    3.9246   19.6979 H         1 CHD332      0.0000 
     65 H          43.1886    4.2972   18.1761 H         1 CHD332      0.0000 
     66 H          34.7797    2.1764   21.5049 H         1 CHD332      0.0000 
     67 H          35.9537    5.7092   21.1036 H         1 CHD332      0.0000 
     68 H          40.1550    3.9116   20.3172 H         1 CHD332      0.0000 
@<TRIPOS>BOND
     1    2    1 1    
     2   12    1 1    
     3   30    1 1    
     4   31    1 1    
     5    3    2 1    
     6   32    2 1    
     7   33    2 1    
     8    4    3 1    
     9    5    3 1    
    10   34    3 1    
    11   66    4 1    
    12    6    5 1    
    13   35    5 1    
    14   36    5 1    
    15    7    6 1    
    16   12    6 1    
    17   37    6 1    
    18    8    7 1    
    19   38    7 1    
    20   39    7 1    
    21    9    8 1    
    22   10    8 1    
    23   40    8 1    
    24   67    9 1    
    25   11   10 1    
    26   17   10 1    
    27   41   10 1    
    28   12   11 1    
    29   13   11 1    
    30   42   11 1    
    31   22   12 1    
    32   14   13 1    
    33   43   13 1    
    34   44   13 1    
    35   15   14 1    
    36   16   14 1    
    37   45   14 1    
    38   68   15 1    
    39   17   16 1    
    40   20   16 1    
    41   21   16 1    
    42   18   17 1    
    43   46   17 1    
    44   19   18 1    
    45   47   18 1    
    46   48   18 1    
    47   20   19 1    
    48   49   19 1    
    49   50   19 1    
    50   23   20 1    
    51   51   20 1    
    52   57   21 1    
    53   58   21 1    
    54   59   21 1    
    55   60   22 1    
    56   61   22 1    
    57   62   22 1    
    58   24   23 1    
    59   25   23 1    
    60   52   23 1    
    61   63   24 1    
    62   64   24 1    
    63   65   24 1    
    64   26   25 1    
    65   53   25 1    
    66   54   25 1    
    67   28   26 1    
    68   55   26 1    
    69   56   26 1    
    70   28   27 ar   
    71   29   28 ar   
@<TRIPOS>SUBSTRUCTURE
     1 CHD332      1 GROUP   
@<TRIPOS>SET

