#    Name: 1ck6_SHA_1_INTS_M
#    Modification time : Mon Mar 24 20:45:46 2014

@<TRIPOS>MOLECULE
1ck6_SHA_1_INTS_M
   29     0     9     0     0
SMALL
NO_CHARGES


@<TRIPOS>ATOM
      1 CA         10.8250   22.6320   32.9405 C.3       3 GLC5        0.0000 
      2 CA         11.0020   22.8220   31.2010 C.3       9 GLL5        0.0000 
      3 CA         10.6480   22.4420   34.6800 C.3       6 GLP5        0.0000 
      4 CA         10.9400   19.1920   28.4290 C.3       3 GLC5        0.0000 
      5 CA         10.4310   20.2100   30.3210 C.3       9 GLL5        0.0000 
      6 CA         11.4490   18.1740   26.5370 C.3       6 GLP5        0.0000 
      7 N          11.9540   18.6255   31.6545 N.am      2 SEC2        0.0000 
      8 N          12.7330   19.6040   30.5930 N.am      8 SEL2        0.0000 
      9 N          11.1750   17.6470   32.7160 N.am      5 SEP2        0.0000 
     10 N          15.2935   20.3245   32.3315 N.am      2 SEC2        0.0000 
     11 N          14.3960   21.5660   31.6900 N.am      8 SEL2        0.0000 
     12 N          16.1910   19.0830   32.9730 N.am      5 SEP2        0.0000 
     13 O          12.9010   24.8540   31.4815 O.2       1 ALC1        0.0000 
     14 O          13.7020   23.6680   31.6290 O.2       7 ALL1        0.0000 
     15 O          12.1000   26.0400   31.3340 O.2       4 ALP1        0.0000 
     16 O          15.1545   23.5785   33.2255 O.2       1 ALC1        0.0000 
     17 O          14.9860   24.0650   31.9900 O.2       7 ALL1        0.0000 
     18 O          15.3230   23.0920   34.4610 O.2       4 ALP1        0.0000 
     19 CA         11.1382   22.9005   29.4183 C.3       3 GLC5        0.0000 
     20 CA         12.0730   21.8900   31.1140 C.3       9 GLL5        0.0000 
     21 CA         10.7390   23.4450   27.6790 C.3       6 GLP5        0.0000 
     22 CA         10.2715   24.2060   30.1803 C.3       3 GLC5        0.0000 
     23 CA         10.1910   25.7650   29.3260 C.3       6 GLP5        0.0000 
     24 CA         10.1478   22.6303   29.1617 C.3       3 GLC5        0.0000 
     25 CA          9.7020   22.4720   30.8680 C.3       9 GLL5        0.0000 
     26 CA         10.9163   21.9140   29.0860 C.3       3 GLC5        0.0000 
     27 CA         11.7560   20.5560   30.6650 C.3       9 GLL5        0.0000 
     28 CA         10.3253   21.1495   32.4394 C.3       3 GLC5        0.0000 
     29 CA         10.2860   21.0330   34.2540 C.3       6 GLP5        0.0000 
@<TRIPOS>BOND
@<TRIPOS>SUBSTRUCTURE
     1 ALC1       13 GROUP        1 X    ALC  0     ROOT ALC X 1
     2 SEC2        7 GROUP        1 X    SEC  0     **** SEC X 2
     3 GLC5        1 GROUP        1 X    GLC  0     **** GLC X 6
     4 ALP1       15 GROUP        1 Y    ALP  0     ROOT ALP Y 8
     5 SEP2        9 GROUP        1 Y    SEP  0     **** SEP Y 9
     6 GLP5        3 GROUP        1 Y    GLP  0     **** GLP Y 13
     7 ALL1       14 GROUP        1 Z    ALL  0     ROOT ALL Z 15
     8 SEL2        8 GROUP        1 Z    SEL  0     **** SEL Z 16
     9 GLL5        2 GROUP        1 Z    GLL  0     **** GLL Z 20
@<TRIPOS>SET

