#    Name: 1ck6_SHA_1_ligand
#    Modification time : Mon Mar 24 20:45:46 2014

@<TRIPOS>MOLECULE
1ck6_SHA_1_ligand
   18    18     1     0     0
SMALL
NO_CHARGES


@<TRIPOS>ATOM
      1 C1         12.0730   21.8900   31.1140 C.ar      1 SHA900      0.0000 
      2 C2         11.0020   22.8220   31.2010 C.ar      1 SHA900      0.0000 
      3 C3          9.7020   22.4720   30.8680 C.ar      1 SHA900      0.0000 
      4 C4          9.4110   21.1590   30.4210 C.ar      1 SHA900      0.0000 
      5 C5         10.4310   20.2100   30.3210 C.ar      1 SHA900      0.0000 
      6 C6         11.7560   20.5560   30.6650 C.ar      1 SHA900      0.0000 
      7 O6         12.7330   19.6040   30.5930 O.3       1 SHA900      0.0000 
      8 C7         13.4430   22.3780   31.4940 C.2       1 SHA900      0.0000 
      9 O7         14.3960   21.5660   31.6900 O.2       1 SHA900      0.0000 
     10 N8         13.7020   23.6680   31.6290 N.am      1 SHA900      0.0000 
     11 O9         14.9860   24.0650   31.9900 O.3       1 SHA900      0.0000 
     12 H          11.2141   23.7834   31.5231 H         1 SHA900      0.0000 
     13 H           8.9404   23.1549   30.9408 H         1 SHA900      0.0000 
     14 H           8.4482   20.9144   30.1730 H         1 SHA900      0.0000 
     15 H          10.2244   19.2600   29.9984 H         1 SHA900      0.0000 
     16 H          12.9837   24.3948   31.4758 H         1 SHA900      0.0000 
     17 H          13.5569   20.0521   30.9401 H         1 SHA900      0.0000 
     18 H          15.0557   23.8587   32.9660 H         1 SHA900      0.0000 
@<TRIPOS>BOND
     1    2    1 ar   
     2    6    1 ar   
     3    8    1 1    
     4    3    2 ar   
     5   12    2 1    
     6    4    3 ar   
     7   13    3 1    
     8    5    4 ar   
     9   14    4 1    
    10    6    5 ar   
    11   15    5 1    
    12    7    6 1    
    13   17    7 1    
    14    9    8 2    
    15   10    8 am   
    16   11   10 1    
    17   16   10 1    
    18   18   11 1    
@<TRIPOS>SUBSTRUCTURE
     1 SHA900      1 GROUP   
@<TRIPOS>SET

