#    Name: 2vo3_M04_1_INTS_M
#    Modification time : Tue Mar 25 02:14:27 2014

@<TRIPOS>MOLECULE
2vo3_M04_1_INTS_M
   93     0    12     0     0
SMALL
NO_CHARGES


@<TRIPOS>ATOM
      1 CA          7.4950    7.3610    3.5730 C.3       4 GLC5        0.0000 
      2 CA          8.0050    8.9220    2.2590 C.3      12 GLL5        0.0000 
      3 CA          6.9850    5.8000    4.8870 C.3       8 GLP5        0.0000 
      4 CA          7.3035    7.4700    1.0080 C.3       4 GLC5        0.0000 
      5 CA          6.6020    6.0180   -0.2430 C.3       8 GLP5        0.0000 
      6 CA          9.1550   11.3670    1.6735 C.3       4 GLC5        0.0000 
      7 CA          9.4630    9.2770    2.0000 C.3      12 GLL5        0.0000 
      8 CA          8.8470   13.4570    1.3470 C.3       8 GLP5        0.0000 
      9 CA          9.9445    6.7485    5.7435 C.3       4 GLC5        0.0000 
     10 CA         10.2900    7.9130    3.9670 C.3      12 GLL5        0.0000 
     11 CA          9.5990    5.5840    7.5200 C.3       8 GLP5        0.0000 
     12 CA          8.6375    6.8565    4.4270 C.3       4 GLC5        0.0000 
     13 OD1        11.3715    7.1375    1.6285 O.co2     3 ASC3        0.0000 
     14 OD1        10.9670    6.8840    3.1310 O.co2    11 ASL3        0.0000 
     15 OD1        11.7760    7.3910    0.1260 O.co2     7 ASP3        0.0000 
     16 OD1        10.4755    6.5475    1.8165 O.co2     3 ASC3        0.0000 
     17 OD1         9.9840    6.2110    0.5020 O.co2     7 ASP3        0.0000 
     18 O          10.9685    5.6880    3.8555 O.2       1 ALC1        0.0000 
     19 O          10.9670    6.8840    3.1310 O.2       9 ALL1        0.0000 
     20 O          10.9700    4.4920    4.5800 O.2       5 ALP1        0.0000 
     21 O          10.4755    6.5475    1.8165 O.2       1 ALC1        0.0000 
     22 O           9.9840    6.2110    0.5020 O.2       5 ALP1        0.0000 
     23 CA         10.6175   11.5205    5.4775 C.3       4 GLC5        0.0000 
     24 CA          9.6010   10.2820    4.2350 C.3      12 GLL5        0.0000 
     25 CA         11.6340   12.7590    6.7200 C.3       8 GLP5        0.0000 
     26 CA          9.0055   12.0920    3.5065 C.3       4 GLC5        0.0000 
     27 CA          8.4100   13.9020    2.7780 C.3       8 GLP5        0.0000 
     28 CA          7.6055   11.4645    5.8965 C.3       4 GLC5        0.0000 
     29 CA          8.1420    9.9290    4.4960 C.3      12 GLL5        0.0000 
     30 CA          7.0690   13.0000    7.2970 C.3       8 GLP5        0.0000 
     31 CA          7.5190   11.7645    3.7575 C.3       4 GLC5        0.0000 
     32 CA          6.8960   13.6000    3.0190 C.3       8 GLP5        0.0000 
     33 CA          7.2180    8.3415    5.3835 C.3       4 GLC5        0.0000 
     34 CA          6.2940    6.7540    6.2710 C.3       8 GLP5        0.0000 
     35 CA          7.1190    9.6760    6.4690 C.3       4 GLC5        0.0000 
     36 CA          6.0960    9.4230    8.4420 C.3       8 GLP5        0.0000 
     37 CA         13.8800   15.9225   -0.4435 C.3       4 GLC5        0.0000 
     38 CA         13.0160   14.1930   -0.7340 C.3      12 GLL5        0.0000 
     39 CA         14.7440   17.6520   -0.1530 C.3       8 GLP5        0.0000 
     40 CA         11.3465   13.7535   -1.4240 C.3       4 GLC5        0.0000 
     41 CA          9.6770   13.3140   -2.1140 C.3       8 GLP5        0.0000 
     42 CA         12.8210   15.0955   -2.1160 C.3       4 GLC5        0.0000 
     43 CA         12.6260   15.9980   -3.4980 C.3       8 GLP5        0.0000 
     44 CA         11.8860   12.4445    4.6450 C.3       4 GLC5        0.0000 
     45 CA         12.1380   12.1300    2.5700 C.3      12 GLL5        0.0000 
     46 CA          4.4200   11.4760    5.7430 C.3       4 GLC5        0.0000 
     47 CA          4.1660    9.8270    4.8510 C.3      12 GLL5        0.0000 
     48 CA          4.6740   13.1250    6.6350 C.3       8 GLP5        0.0000 
     49 CA          3.6030   11.3670    3.6445 C.3       4 GLC5        0.0000 
     50 CA          3.0400   12.9070    2.4380 C.3       8 GLP5        0.0000 
     51 CA          2.8275    8.1525    4.8775 C.3       4 GLC5        0.0000 
     52 CA          1.4890    6.4780    4.9040 C.3       8 GLP5        0.0000 
     53 CA          5.2300    8.2905    5.5610 C.3       4 GLC5        0.0000 
     54 N           1.8285    9.2270    4.3820 N.am      2 SEC2        0.0000 
     55 N           3.2010    9.7210    3.9360 N.am     10 SEL2        0.0000 
     56 N           0.4560    8.7330    4.8280 N.am      6 SEP2        0.0000 
     57 CA          1.6295   10.2045    3.2690 C.3       4 GLC5        0.0000 
     58 CA          3.6990    9.6530    2.6940 C.3      12 GLL5        0.0000 
     59 CA         -0.4400   10.7560    3.8440 C.3       8 GLP5        0.0000 
     60 CA          2.5940    8.0655    3.7990 C.3       4 GLC5        0.0000 
     61 O           1.6245    9.6990    1.3970 O.2       1 ALC1        0.0000 
     62 O           2.9710    9.5290    1.5470 O.2       9 ALL1        0.0000 
     63 O           0.2780    9.8690    1.2470 O.2       5 ALP1        0.0000 
     64 CA          2.2915    8.1845   -0.1040 C.3       4 GLC5        0.0000 
     65 CA          3.8040    9.5030    0.4780 C.3      12 GLL5        0.0000 
     66 CA          0.7790    6.8660   -0.6860 C.3       8 GLP5        0.0000 
     67 CA          2.7925   10.5720   -0.7625 C.3       4 GLC5        0.0000 
     68 CA          1.7810   11.6410   -2.0030 C.3       8 GLP5        0.0000 
     69 CA          5.0435   10.9075   -0.5300 C.3       4 GLC5        0.0000 
     70 CA          5.0960    9.5980    0.9300 C.3      12 GLL5        0.0000 
     71 CA          4.9910   12.2170   -1.9900 C.3       8 GLP5        0.0000 
     72 CA         10.4820   12.0810    1.3882 C.3       4 GLC5        0.0000 
     73 CA         12.0180   10.8310    2.1040 C.3      12 GLL5        0.0000 
     74 CA         10.6997   12.8577    0.7332 C.3       4 GLC5        0.0000 
     75 CA         12.6020   12.9060    0.3540 C.3      12 GLL5        0.0000 
     76 CA         11.1148   12.7862   -0.9972 C.3       4 GLC5        0.0000 
     77 CA         13.4105   13.3130    3.3955 C.3       4 GLC5        0.0000 
     78 CA         12.4260   13.1620    1.7020 C.3      12 GLL5        0.0000 
     79 CA         14.5390   13.9800    4.6550 C.3       8 GLP5        0.0000 
     80 CA         14.5813   13.1884    1.1835 C.3       4 GLC5        0.0000 
     81 CA         16.5450   13.0210    1.6110 C.3       8 GLP5        0.0000 
     82 CA         12.3963   15.0839    1.6270 C.3       4 GLC5        0.0000 
     83 CA         12.1750   16.8120    2.4980 C.3       8 GLP5        0.0000 
     84 CA         10.5645   13.0515    1.7415 C.3       4 GLC5        0.0000 
     85 CA          6.1965   11.6710    2.9497 C.3       4 GLC5        0.0000 
     86 CA          5.9560    9.7860    3.4080 C.3      12 GLL5        0.0000 
     87 CA          5.5520    7.7040    3.3037 C.3       4 GLC5        0.0000 
     88 CA          5.0380    9.6980    2.3530 C.3      12 GLL5        0.0000 
     89 CA          5.6070    5.6660    3.7270 C.3       8 GLP5        0.0000 
     90 CA          3.8190   11.3023    2.6126 C.3       4 GLC5        0.0000 
     91 CA          3.7450   11.2288    1.5710 C.3       4 GLC5        0.0000 
     92 CA          4.9710    7.7726    0.8773 C.3       4 GLC5        0.0000 
     93 CA          5.1980    5.9210    0.2260 C.3       8 GLP5        0.0000 
@<TRIPOS>BOND
@<TRIPOS>SUBSTRUCTURE
     1 ALC1       18 GROUP        1 X    ALC  0     ROOT ALC X 1
     2 SEC2       54 GROUP        1 X    SEC  0     **** SEC X 2
     3 ASC3       13 GROUP        1 X    ASC  0     **** ASC X 3
     4 GLC5        1 GROUP        1 X    GLC  0     **** GLC X 6
     5 ALP1       20 GROUP        1 Y    ALP  0     ROOT ALP Y 8
     6 SEP2       56 GROUP        1 Y    SEP  0     **** SEP Y 9
     7 ASP3       15 GROUP        1 Y    ASP  0     **** ASP Y 10
     8 GLP5        3 GROUP        1 Y    GLP  0     **** GLP Y 13
     9 ALL1       19 GROUP        1 Z    ALL  0     ROOT ALL Z 15
    10 SEL2       55 GROUP        1 Z    SEL  0     **** SEL Z 16
    11 ASL3       14 GROUP        1 Z    ASL  0     **** ASL Z 17
    12 GLL5        2 GROUP        1 Z    GLL  0     **** GLL Z 20
@<TRIPOS>SET

