#    Name: 2vo3_M04_1_ligand
#    Modification time : Tue Mar 25 02:14:27 2014

@<TRIPOS>MOLECULE
2vo3_M04_1_ligand
   48    51     1     0     0
SMALL
NO_CHARGES


@<TRIPOS>ATOM
      1 N1          7.3830    9.8300    3.2380 N.3       1 M041352     0.0000 
      2 C2          8.0050    8.9220    2.2590 C.3       1 M041352     0.0000 
      3 C3          9.4630    9.2770    2.0000 C.3       1 M041352     0.0000 
      4 C5         10.2900    7.9130    3.9670 C.3       1 M041352     0.0000 
      5 N6         10.9670    6.8840    3.1310 N.4       1 M041352     0.0000 
      6 C7          9.6010   10.2820    4.2350 C.3       1 M041352     0.0000 
      7 C8          8.1420    9.9290    4.4960 C.3       1 M041352     0.0000 
      8 C9         12.0180   10.8310    2.1040 C.ar      1 M041352     0.0000 
      9 C10        12.2160   10.5790    0.7550 C.ar      1 M041352     0.0000 
     10 C11        12.5030   11.6110   -0.1150 C.ar      1 M041352     0.0000 
     11 C12        12.6020   12.9060    0.3540 C.ar      1 M041352     0.0000 
     12 CL1        13.0160   14.1930   -0.7340 Cl        1 M041352     0.0000 
     13 C14        12.4260   13.1620    1.7020 C.ar      1 M041352     0.0000 
     14 C15        12.1380   12.1300    2.5700 C.ar      1 M041352     0.0000 
     15 C16         5.9560    9.7860    3.4080 C.ar      1 M041352     0.0000 
     16 N17         5.4900    9.8580    4.6680 N.ar      1 M041352     0.0000 
     17 C13        11.7570    9.6980    3.0590 C.3       1 M041352     0.0000 
     18 C18         4.1660    9.8270    4.8510 C.ar      1 M041352     0.0000 
     19 N19         3.2010    9.7210    3.9360 N.ar      1 M041352     0.0000 
     20 C20         3.6990    9.6530    2.6940 C.ar      1 M041352     0.0000 
     21 N21         2.9710    9.5290    1.5470 N.pl3     1 M041352     0.0000 
     22 C22         3.8040    9.5030    0.4780 C.2       1 M041352     0.0000 
     23 C23         5.0960    9.5980    0.9300 C.2       1 M041352     0.0000 
     24 C24         5.0380    9.6980    2.3530 C.ar      1 M041352     0.0000 
     25 C4         10.2920    9.2950    3.2860 C.3       1 M041352     0.0000 
     26 H           7.4631    8.9613    1.3022 H         1 M041352     0.0000 
     27 H           7.9594    7.8828    2.6177 H         1 M041352     0.0000 
     28 H           9.5164   10.2637    1.5280 H         1 M041352     0.0000 
     29 H           9.8953    8.5468    1.3078 H         1 M041352     0.0000 
     30 H          10.7938    8.0075    4.9357 H         1 M041352     0.0000 
     31 H           9.2494    7.6253    4.1555 H         1 M041352     0.0000 
     32 H          10.1453   10.2977    5.1877 H         1 M041352     0.0000 
     33 H           9.6576   11.2886    3.8020 H         1 M041352     0.0000 
     34 H           8.1076    8.9770    5.0409 H         1 M041352     0.0000 
     35 H           7.7093   10.7005    5.1455 H         1 M041352     0.0000 
     36 H          12.1475    9.6098    0.4012 H         1 M041352     0.0000 
     37 H          12.6441   11.4148   -1.1190 H         1 M041352     0.0000 
     38 H          12.5108   14.1275    2.0566 H         1 M041352     0.0000 
     39 H          12.0100   12.3246    3.5783 H         1 M041352     0.0000 
     40 H          12.2041    9.9460    4.0539 H         1 M041352     0.0000 
     41 H          12.3141    8.7914    2.7142 H         1 M041352     0.0000 
     42 H           3.8266    9.8989    5.9011 H         1 M041352     0.0000 
     43 H           2.0039    9.4689    1.5076 H         1 M041352     0.0000 
     44 H           3.5434    9.4306   -0.4439 H         1 M041352     0.0000 
     45 H           5.8879    9.5999    0.4271 H         1 M041352     0.0000 
     46 H          11.9206    7.1229    2.9479 H         1 M041352     0.0000 
     47 H          10.9693    5.9878    3.5747 H         1 M041352     0.0000 
     48 H          10.5177    6.7711    2.2448 H         1 M041352     0.0000 
@<TRIPOS>BOND
     1    2    1 1    
     2    7    1 1    
     3   15    1 1    
     4    3    2 1    
     5   26    2 1    
     6   27    2 1    
     7   25    3 1    
     8   28    3 1    
     9   29    3 1    
    10    5    4 1    
    11   25    4 1    
    12   30    4 1    
    13   31    4 1    
    14   46    5 1    
    15   47    5 1    
    16   48    5 1    
    17    7    6 1    
    18   25    6 1    
    19   32    6 1    
    20   33    6 1    
    21   34    7 1    
    22   35    7 1    
    23    9    8 ar   
    24   14    8 ar   
    25   17    8 1    
    26   10    9 ar   
    27   36    9 1    
    28   11   10 ar   
    29   37   10 1    
    30   12   11 1    
    31   13   11 ar   
    32   14   13 ar   
    33   38   13 1    
    34   39   14 1    
    35   16   15 ar   
    36   24   15 ar   
    37   18   16 ar   
    38   25   17 1    
    39   40   17 1    
    40   41   17 1    
    41   19   18 ar   
    42   42   18 1    
    43   20   19 ar   
    44   21   20 1    
    45   24   20 ar   
    46   22   21 1    
    47   43   21 1    
    48   23   22 2    
    49   44   22 1    
    50   24   23 1    
    51   45   23 1    
@<TRIPOS>SUBSTRUCTURE
     1 M041352     1 GROUP   
@<TRIPOS>SET

