#    Name: 1w5t_ADP_3_INTS_M
#    Modification time : Tue Mar 25 08:39:34 2014

@<TRIPOS>MOLECULE
1w5t_ADP_3_INTS_M
   80     0    15     0     0
SMALL
NO_CHARGES


@<TRIPOS>ATOM
      1 NZ         56.1420  -15.7330   24.5625 N.4       3 LYC4        0.0000 
      2 NZ         56.7410  -15.7890   26.1660 N.4      13 LYL4        0.0000 
      3 NZ         55.5430  -15.6770   22.9590 N.4       8 LYP4        0.0000 
      4 N          58.0210  -16.1205   25.5850 N.am      2 SEC2        0.0000 
      5 N          56.7410  -15.7890   26.1660 N.am     12 SEL2        0.0000 
      6 N          59.3010  -16.4520   25.0040 N.am      7 SEP2        0.0000 
      7 N          56.1420  -15.7330   24.5625 N.am      2 SEC2        0.0000 
      8 N          55.5430  -15.6770   22.9590 N.am      7 SEP2        0.0000 
      9 N          57.5605  -16.4545   27.5360 N.am      2 SEC2        0.0000 
     10 N          58.3800  -17.1200   28.9060 N.am      7 SEP2        0.0000 
     11 NZ         56.0070  -14.8620   23.6955 N.4       3 LYC4        0.0000 
     12 NZ         56.4710  -14.0470   24.4320 N.4      13 LYL4        0.0000 
     13 N          58.0195  -13.8860   24.3150 N.am      2 SEC2        0.0000 
     14 N          56.4710  -14.0470   24.4320 N.am     12 SEL2        0.0000 
     15 N          59.5680  -13.7250   24.1980 N.am      7 SEP2        0.0000 
     16 N          56.0315  -12.4940   24.2035 N.am      2 SEC2        0.0000 
     17 N          55.5920  -10.9410   23.9750 N.am      7 SEP2        0.0000 
     18 N          56.0070  -14.8620   23.6955 N.am      2 SEC2        0.0000 
     19 NZ         55.2815  -14.8715   24.6900 N.4       3 LYC4        0.0000 
     20 NZ         55.0200  -14.0660   26.4210 N.4      13 LYL4        0.0000 
     21 Zn         54.2295  -14.6860   26.8050 Zn        4 ZIC7        0.0000 
     22 Zn         55.0200  -14.0660   26.4210 Zn       14 ZIL7        0.0000 
     23 Zn         53.4390  -15.3060   27.1890 Zn        9 ZIP7        0.0000 
     24 N          54.2070  -12.6540   26.1925 N.am      2 SEC2        0.0000 
     25 N          55.0200  -14.0660   26.4210 N.am     12 SEL2        0.0000 
     26 N          53.3940  -11.2420   25.9640 N.am      7 SEP2        0.0000 
     27 N          55.3390  -10.1935   27.6880 N.am      2 SEC2        0.0000 
     28 N          56.4360  -11.2300   27.5820 N.am     12 SEL2        0.0000 
     29 N          54.2420   -9.1570   27.7940 N.am      7 SEP2        0.0000 
     30 N          56.5945   -9.9975   28.3695 N.am      2 SEC2        0.0000 
     31 N          56.7530   -8.7650   29.1570 N.am      7 SEP2        0.0000 
     32 N          57.9130  -12.2750   25.6090 N.am      2 SEC2        0.0000 
     33 N          57.4570  -13.3210   26.6140 N.am     12 SEL2        0.0000 
     34 N          58.3690  -11.2290   24.6040 N.am      7 SEP2        0.0000 
     35 CA         59.7575  -14.1385   27.4525 C.3       5 GLC5        0.0000 
     36 CA         59.6060  -12.8050   29.0300 C.3      15 GLL5        0.0000 
     37 CA         59.9090  -15.4720   25.8750 C.3      10 GLP5        0.0000 
     38 CA         60.5940  -14.3965   29.3385 C.3       5 GLC5        0.0000 
     39 CA         61.5820  -15.9880   29.6470 C.3      10 GLP5        0.0000 
     40 CA         61.5380  -13.5275   29.9800 C.3       5 GLC5        0.0000 
     41 CA         60.3100  -12.0250   30.1330 C.3      15 GLL5        0.0000 
     42 CA         62.7660  -15.0300   29.8270 C.3      10 GLP5        0.0000 
     43 CA         57.7105   -8.8840   29.4830 C.3       5 GLC5        0.0000 
     44 CA         59.1820  -10.0030   30.7160 C.3      15 GLL5        0.0000 
     45 CA         56.2390   -7.7650   28.2500 C.3      10 GLP5        0.0000 
     46 N          60.1410   -8.3930   32.2195 N.am      2 SEC2        0.0000 
     47 N          59.0500   -9.1790   31.8320 N.am     12 SEL2        0.0000 
     48 N          61.2320   -7.6070   32.6070 N.am      7 SEP2        0.0000 
     49 CA         62.1400  -10.4035   28.7220 C.3       5 GLC5        0.0000 
     50 CA         60.5190   -9.6710   30.0750 C.3      15 GLL5        0.0000 
     51 CA         63.7610  -11.1360   27.3690 C.3      10 GLP5        0.0000 
     52 CA         61.9830   -9.9545   31.1205 C.3       5 GLC5        0.0000 
     53 CA         63.4470  -10.2380   32.1660 C.3      10 GLP5        0.0000 
     54 N          60.3775   -7.9595   25.4135 N.am      2 SEC2        0.0000 
     55 N          60.0800   -8.1870   26.8110 N.am     12 SEL2        0.0000 
     56 N          60.6750   -7.7320   24.0160 N.am      7 SEP2        0.0000 
     57 CA         59.6320   -4.4080   27.4970 C.3       5 GLC5        0.0000 
     58 CA         60.7340   -5.8090   27.1170 C.3      15 GLL5        0.0000 
     59 CA         58.5300   -3.0070   27.8770 C.3      10 GLP5        0.0000 
     60 CA         61.8485   -5.1665   25.9180 C.3       5 GLC5        0.0000 
     61 CA         62.9630   -4.5240   24.7190 C.3      10 GLP5        0.0000 
     62 O          60.3565   -4.2755   25.1650 O.2       1 ALC1        0.0000 
     63 O          60.3510   -5.4200   25.8890 O.2      11 ALL1        0.0000 
     64 O          60.3620   -3.1310   24.4410 O.2       6 ALP1        0.0000 
     65 O          60.5130   -6.5760   24.9525 O.2       1 ALC1        0.0000 
     66 O          60.6750   -7.7320   24.0160 O.2       6 ALP1        0.0000 
     67 CA         60.3325   -4.4200   30.8470 C.3       5 GLC5        0.0000 
     68 CA         61.4100   -5.3030   29.3780 C.3      15 GLL5        0.0000 
     69 CA         59.2550   -3.5370   32.3160 C.3      10 GLP5        0.0000 
     70 CA         59.9700   -4.1550   28.6275 C.3       5 GLC5        0.0000 
     71 CA         63.0580   -5.7765   28.3260 C.3       5 GLC5        0.0000 
     72 CA         64.7060   -6.2500   27.2740 C.3      10 GLP5        0.0000 
     73 N          61.1955   -7.1120   31.1685 N.am      2 SEC2        0.0000 
     74 N          61.1590   -6.6170   29.7300 N.am     12 SEL2        0.0000 
     75 CA         61.6268  -10.9877   31.3962 C.3       5 GLC5        0.0000 
     76 CA         58.6976   -6.7134   28.4420 C.3       5 GLC5        0.0000 
     77 CA         60.5090   -7.1200   27.5030 C.3      15 GLL5        0.0000 
     78 CA         56.7240   -6.4460   28.8240 C.3      10 GLP5        0.0000 
     79 CA         62.3531   -7.1799   27.2725 C.3       5 GLC5        0.0000 
     80 CA         64.0350   -7.3790   26.4850 C.3      10 GLP5        0.0000 
@<TRIPOS>BOND
@<TRIPOS>SUBSTRUCTURE
     1 ALC1       62 GROUP        1 X    ALC  0     ROOT ALC X 1
     2 SEC2        4 GROUP        1 X    SEC  0     **** SEC X 2
     3 LYC4        1 GROUP        1 X    LYC  0     **** LYC X 4
     4 ZIC7       21 GROUP        1 X    ZIC  0     **** ZIC X 5
     5 GLC5       35 GROUP        1 X    GLC  0     **** GLC X 6
     6 ALP1       64 GROUP        1 Y    ALP  0     ROOT ALP Y 8
     7 SEP2        6 GROUP        1 Y    SEP  0     **** SEP Y 9
     8 LYP4        3 GROUP        1 Y    LYP  0     **** LYP Y 11
     9 ZIP7       23 GROUP        1 Y    ZIP  0     **** ZIP Y 12
    10 GLP5       37 GROUP        1 Y    GLP  0     **** GLP Y 13
    11 ALL1       63 GROUP        1 Z    ALL  0     ROOT ALL Z 15
    12 SEL2        5 GROUP        1 Z    SEL  0     **** SEL Z 16
    13 LYL4        2 GROUP        1 Z    LYL  0     **** LYL Z 18
    14 ZIL7       22 GROUP        1 Z    ZIL  0     **** ZIL Z 19
    15 GLL5       36 GROUP        1 Z    GLL  0     **** GLL Z 20
@<TRIPOS>SET

