#    Name: 1w5t_ADP_3_ligand
#    Modification time : Tue Mar 25 08:39:34 2014

@<TRIPOS>MOLECULE
1w5t_ADP_3_ligand
   39    41     1     0     0
SMALL
NO_CHARGES


@<TRIPOS>ATOM
      1 PB         56.3940  -14.3330   25.9300 P.3       1 ADP700      0.0000 
      2 O1B        56.7410  -15.7890   26.1660 O.co2     1 ADP700      0.0000 
      3 O2B        56.4710  -14.0470   24.4320 O.co2     1 ADP700      0.0000 
      4 O3B        55.0200  -14.0660   26.4210 O.co2     1 ADP700      0.0000 
      5 PA         57.1730  -12.4710   27.9620 P.3       1 ADP700      0.0000 
      6 O1A        56.4360  -11.2300   27.5820 O.co2     1 ADP700      0.0000 
      7 O2A        56.4430  -13.3330   28.9810 O.co2     1 ADP700      0.0000 
      8 O3A        57.4570  -13.3210   26.6140 O.3       1 ADP700      0.0000 
      9 O5'        58.6030  -11.9650   28.5050 O.3       1 ADP700      0.0000 
     10 C5'        59.6060  -12.8050   29.0300 C.3       1 ADP700      0.0000 
     11 C4'        60.3100  -12.0250   30.1330 C.3       1 ADP700      0.0000 
     12 O4'        61.0560  -10.9050   29.6260 O.3       1 ADP700      0.0000 
     13 C3'        59.3030  -11.4500   31.1200 C.3       1 ADP700      0.0000 
     14 O3'        59.9790  -11.4640   32.3470 O.3       1 ADP700      0.0000 
     15 C2'        59.1820  -10.0030   30.7160 C.3       1 ADP700      0.0000 
     16 O2'        59.0500   -9.1790   31.8320 O.3       1 ADP700      0.0000 
     17 C1'        60.5190   -9.6710   30.0750 C.3       1 ADP700      0.0000 
     18 N9         60.4020   -8.8180   28.8890 N.pl3     1 ADP700      0.0000 
     19 C8         60.0180   -9.2420   27.6420 C.2       1 ADP700      0.0000 
     20 N7         60.0800   -8.1870   26.8110 N.2       1 ADP700      0.0000 
     21 C5         60.5090   -7.1200   27.5030 C.ar      1 ADP700      0.0000 
     22 C6         60.7340   -5.8090   27.1170 C.ar      1 ADP700      0.0000 
     23 N6         60.3510   -5.4200   25.8890 N.pl3     1 ADP700      0.0000 
     24 N1         61.1880   -4.8950   28.0740 N.ar      1 ADP700      0.0000 
     25 C2         61.4100   -5.3030   29.3780 C.ar      1 ADP700      0.0000 
     26 N3         61.1590   -6.6170   29.7300 N.ar      1 ADP700      0.0000 
     27 C4         60.7210   -7.4970   28.8100 C.ar      1 ADP700      0.0000 
     28 H          60.3521  -13.0765   28.2860 H         1 ADP700      0.0000 
     29 H          59.1990  -13.7124   29.4716 H         1 ADP700      0.0000 
     30 H          60.9568  -12.6941   30.6825 H         1 ADP700      0.0000 
     31 H          58.4288  -11.9374   31.0774 H         1 ADP700      0.0000 
     32 H          58.4300   -9.8930   29.9952 H         1 ADP700      0.0000 
     33 H          61.1566   -9.2285   30.8039 H         1 ADP700      0.0000 
     34 H          59.7548  -10.1365   27.4190 H         1 ADP700      0.0000 
     35 H          60.3672   -6.1243   25.1794 H         1 ADP700      0.0000 
     36 H          60.0840   -4.4610   25.7945 H         1 ADP700      0.0000 
     37 H          61.7575   -4.6366   30.0767 H         1 ADP700      0.0000 
     38 H          59.8638  -10.5418   32.7164 H         1 ADP700      0.0000 
     39 H          58.2015   -8.6720   31.6804 H         1 ADP700      0.0000 
@<TRIPOS>BOND
     1    2    1 ar   
     2    3    1 ar   
     3    4    1 ar   
     4    8    1 1    
     5    6    5 ar   
     6    7    5 ar   
     7    8    5 1    
     8    9    5 1    
     9   10    9 1    
    10   11   10 1    
    11   28   10 1    
    12   29   10 1    
    13   12   11 1    
    14   13   11 1    
    15   30   11 1    
    16   17   12 1    
    17   14   13 1    
    18   15   13 1    
    19   31   13 1    
    20   38   14 1    
    21   16   15 1    
    22   17   15 1    
    23   32   15 1    
    24   39   16 1    
    25   18   17 1    
    26   33   17 1    
    27   19   18 1    
    28   27   18 1    
    29   20   19 2    
    30   34   19 1    
    31   21   20 1    
    32   22   21 ar   
    33   27   21 ar   
    34   23   22 1    
    35   24   22 ar   
    36   35   23 1    
    37   36   23 1    
    38   25   24 ar   
    39   26   25 ar   
    40   37   25 1    
    41   27   26 ar   
@<TRIPOS>SUBSTRUCTURE
     1 ADP700      1 GROUP   
@<TRIPOS>SET

