#    Name: 1coy_AND_1_INTS_M
#    Modification time : Mon Mar 24 20:51:15 2014

@<TRIPOS>MOLECULE
1coy_AND_1_INTS_M
   57     0     9     0     0
SMALL
NO_CHARGES


@<TRIPOS>ATOM
      1 CA         -8.9790   19.6195   23.2830 C.3       3 GLC5        0.0000 
      2 CA         -7.6210   18.5350   23.9540 C.3       9 GLL5        0.0000 
      3 CA        -10.3370   20.7040   22.6120 C.3       6 GLP5        0.0000 
      4 CA         -9.4775   18.8665   26.0465 C.3       3 GLC5        0.0000 
      5 CA         -8.2360   17.6320   24.9930 C.3       9 GLL5        0.0000 
      6 CA        -10.7190   20.1010   27.1000 C.3       6 GLP5        0.0000 
      7 CA         -9.8295   18.8010   24.0485 C.3       3 GLC5        0.0000 
      8 CA        -11.4230   19.9700   23.1040 C.3       6 GLP5        0.0000 
      9 O          -9.3715   14.9140   25.4435 O.2       1 ALC1        0.0000 
     10 O          -8.1360   15.4170   26.0300 O.2       7 ALL1        0.0000 
     11 O         -10.6070   14.4110   24.8570 O.2       4 ALP1        0.0000 
     12 CA         -5.6185   18.0950   21.4815 C.3       3 GLC5        0.0000 
     13 CA         -5.5300   19.6040   23.0640 C.3       9 GLL5        0.0000 
     14 CA         -5.7070   16.5860   19.8990 C.3       6 GLP5        0.0000 
     15 CA         -7.2865   22.5315   23.5405 C.3       3 GLC5        0.0000 
     16 CA         -6.2350   20.9280   22.7710 C.3       9 GLL5        0.0000 
     17 CA         -8.3380   24.1350   24.3100 C.3       6 GLP5        0.0000 
     18 CA         -6.5100   22.2460   19.9165 C.3       3 GLC5        0.0000 
     19 CA         -5.6600   21.6410   21.5520 C.3       9 GLL5        0.0000 
     20 CA         -7.3600   22.8510   18.2810 C.3       6 GLP5        0.0000 
     21 CA         -0.2215   20.5775   22.3700 C.3       3 GLC5        0.0000 
     22 CA         -2.0600   20.5620   21.5850 C.3       9 GLL5        0.0000 
     23 CA          1.6170   20.5930   23.1550 C.3       6 GLP5        0.0000 
     24 N          -4.4885   24.3800   19.1470 N.am      2 SEC2        0.0000 
     25 N          -3.7950   22.9390   19.4630 N.am      8 SEL2        0.0000 
     26 N          -5.1820   25.8210   18.8310 N.am      5 SEP2        0.0000 
     27 CA         -5.3825   23.3880   24.1060 C.3       3 GLC5        0.0000 
     28 CA         -3.7310   22.8820   22.6760 C.3       9 GLL5        0.0000 
     29 CA         -7.0340   23.8940   25.5360 C.3       6 GLP5        0.0000 
     30 CA         -3.4825   23.7665   24.0835 C.3       3 GLC5        0.0000 
     31 CA         -3.2340   24.6510   25.4910 C.3       6 GLP5        0.0000 
     32 CA         -6.6090   21.9265   25.5235 C.3       3 GLC5        0.0000 
     33 CA         -6.1840   19.9590   25.5110 C.3       9 GLL5        0.0000 
     34 CA         -5.2695   20.7410   26.8115 C.3       3 GLC5        0.0000 
     35 CA         -4.3550   21.5230   28.1120 C.3       6 GLP5        0.0000 
     36 CA         -6.6680   14.6237   25.3290 C.3       3 GLC5        0.0000 
     37 CA         -7.4700   16.3280   25.1090 C.3       9 GLL5        0.0000 
     38 CA         -6.5960   12.8050   25.3420 C.3       6 GLP5        0.0000 
     39 CA         -8.9536   16.2164   23.7141 C.3       3 GLC5        0.0000 
     40 CA        -10.2080   15.2270   22.6370 C.3       6 GLP5        0.0000 
     41 CA         -3.0290   16.5658   22.8140 C.3       3 GLC5        0.0000 
     42 CA         -4.0450   17.5600   24.3990 C.3       9 GLL5        0.0000 
     43 CA         -2.3990   15.1040   21.6910 C.3       6 GLP5        0.0000 
     44 CA         -4.6064   16.9383   26.7295 C.3       3 GLC5        0.0000 
     45 CA         -4.3520   16.5390   28.6980 C.3       6 GLP5        0.0000 
     46 CA         -2.1815   18.3012   25.3155 C.3       3 GLC5        0.0000 
     47 CA         -0.7040   18.5750   26.6940 C.3       6 GLP5        0.0000 
     48 CA         -7.8918   20.8338   21.7557 C.3       3 GLC5        0.0000 
     49 CA         -9.8360   20.3830   21.3500 C.3       6 GLP5        0.0000 
     50 CA         -3.8422   24.1750   21.7467 C.3       3 GLC5        0.0000 
     51 CA         -4.1420   21.7800   21.6330 C.3       9 GLL5        0.0000 
     52 CA         -3.7480   26.0190   21.3390 C.3       6 GLP5        0.0000 
     53 CA         -1.6480   19.2287   19.9953 C.3       3 GLC5        0.0000 
     54 CA         -2.0820   21.4230   20.3020 C.3       9 GLL5        0.0000 
     55 CA         -1.2250   17.4650   19.0470 C.3       6 GLP5        0.0000 
     56 CA         -0.5905   21.5123   20.0548 C.3       3 GLC5        0.0000 
     57 CA          0.8900   22.0320   19.1660 C.3       6 GLP5        0.0000 
@<TRIPOS>BOND
@<TRIPOS>SUBSTRUCTURE
     1 ALC1        9 GROUP        1 X    ALC  0     ROOT ALC X 1
     2 SEC2       24 GROUP        1 X    SEC  0     **** SEC X 2
     3 GLC5        1 GROUP        1 X    GLC  0     **** GLC X 6
     4 ALP1       11 GROUP        1 Y    ALP  0     ROOT ALP Y 8
     5 SEP2       26 GROUP        1 Y    SEP  0     **** SEP Y 9
     6 GLP5        3 GROUP        1 Y    GLP  0     **** GLP Y 13
     7 ALL1       10 GROUP        1 Z    ALL  0     ROOT ALL Z 15
     8 SEL2       25 GROUP        1 Z    SEL  0     **** SEL Z 16
     9 GLL5        2 GROUP        1 Z    GLL  0     **** GLL Z 20
@<TRIPOS>SET

