#    Name: 1coy_AND_1_ligand
#    Modification time : Mon Mar 24 20:51:15 2014

@<TRIPOS>MOLECULE
1coy_AND_1_ligand
   49    52     1     0     0
SMALL
NO_CHARGES


@<TRIPOS>ATOM
      1 C1         -7.6210   18.5350   23.9540 C.3       1 AND508      0.0000 
      2 C2         -8.2360   17.6320   24.9930 C.3       1 AND508      0.0000 
      3 C3         -7.4700   16.3280   25.1090 C.3       1 AND508      0.0000 
      4 O3         -8.1360   15.4170   26.0300 O.3       1 AND508      0.0000 
      5 C4         -6.0100   16.5570   25.5230 C.3       1 AND508      0.0000 
      6 C5         -5.3430   17.6730   24.7230 C.2       1 AND508      0.0000 
      7 C6         -4.0450   17.5600   24.3990 C.2       1 AND508      0.0000 
      8 C7         -3.2730   18.4950   23.4750 C.3       1 AND508      0.0000 
      9 C8         -4.0140   19.7990   23.1650 C.3       1 AND508      0.0000 
     10 C9         -5.5300   19.6040   23.0640 C.3       1 AND508      0.0000 
     11 C10        -6.1550   18.9380   24.3200 C.3       1 AND508      0.0000 
     12 C11        -6.2350   20.9280   22.7710 C.3       1 AND508      0.0000 
     13 C12        -5.6600   21.6410   21.5520 C.3       1 AND508      0.0000 
     14 C13        -4.1420   21.7800   21.6330 C.3       1 AND508      0.0000 
     15 C14        -3.5280   20.3980   21.8780 C.3       1 AND508      0.0000 
     16 C15        -2.0600   20.5620   21.5850 C.3       1 AND508      0.0000 
     17 C16        -2.0820   21.4230   20.3020 C.3       1 AND508      0.0000 
     18 C17        -3.4190   22.1790   20.3540 C.2       1 AND508      0.0000 
     19 O17        -3.7950   22.9390   19.4630 O.2       1 AND508      0.0000 
     20 C18        -3.7310   22.8820   22.6760 C.3       1 AND508      0.0000 
     21 C19        -6.1840   19.9590   25.5110 C.3       1 AND508      0.0000 
     22 H          -8.2077   19.4514   23.8560 H         1 AND508      0.0000 
     23 H          -7.6002   18.0337   22.9835 H         1 AND508      0.0000 
     24 H          -9.2734   17.4161   24.7219 H         1 AND508      0.0000 
     25 H          -8.2344   18.1369   25.9633 H         1 AND508      0.0000 
     26 H          -7.4491   15.8686   24.1046 H         1 AND508      0.0000 
     27 H          -5.4503   15.6262   25.3795 H         1 AND508      0.0000 
     28 H          -5.9787   16.8089   26.5887 H         1 AND508      0.0000 
     29 H          -3.4445   16.7766   24.7826 H         1 AND508      0.0000 
     30 H          -3.0617   17.9732   22.5293 H         1 AND508      0.0000 
     31 H          -2.3040   18.7383   23.9366 H         1 AND508      0.0000 
     32 H          -3.8208   20.5074   23.9680 H         1 AND508      0.0000 
     33 H          -5.7304   18.9351   22.2106 H         1 AND508      0.0000 
     34 H          -6.1446   21.5823   23.6464 H         1 AND508      0.0000 
     35 H          -7.3019   20.7357   22.6053 H         1 AND508      0.0000 
     36 H          -6.1074   22.6367   21.4734 H         1 AND508      0.0000 
     37 H          -5.9208   21.0786   20.6501 H         1 AND508      0.0000 
     38 H          -3.9512   19.7765   21.0212 H         1 AND508      0.0000 
     39 H          -1.6163   19.6306   21.3682 H         1 AND508      0.0000 
     40 H          -1.5837   21.1020   22.3550 H         1 AND508      0.0000 
     41 H          -2.0605   20.7890   19.4505 H         1 AND508      0.0000 
     42 H          -1.2767   22.1148   20.3268 H         1 AND508      0.0000 
     43 H          -2.7381   22.9848   22.7359 H         1 AND508      0.0000 
     44 H          -4.1045   23.7781   22.4361 H         1 AND508      0.0000 
     45 H          -4.0591   22.6642   23.5952 H         1 AND508      0.0000 
     46 H          -5.2637   20.2465   25.7762 H         1 AND508      0.0000 
     47 H          -6.6940   20.7870   25.2780 H         1 AND508      0.0000 
     48 H          -6.6149   19.5685   26.3245 H         1 AND508      0.0000 
     49 H          -8.7481   14.8718   25.4572 H         1 AND508      0.0000 
@<TRIPOS>BOND
     1    2    1 1    
     2   11    1 1    
     3   22    1 1    
     4   23    1 1    
     5    3    2 1    
     6   24    2 1    
     7   25    2 1    
     8    4    3 1    
     9    5    3 1    
    10   26    3 1    
    11   49    4 1    
    12    6    5 1    
    13   27    5 1    
    14   28    5 1    
    15    7    6 2    
    16   11    6 1    
    17    8    7 1    
    18   29    7 1    
    19    9    8 1    
    20   30    8 1    
    21   31    8 1    
    22   10    9 1    
    23   15    9 1    
    24   32    9 1    
    25   11   10 1    
    26   12   10 1    
    27   33   10 1    
    28   21   11 1    
    29   13   12 1    
    30   34   12 1    
    31   35   12 1    
    32   14   13 1    
    33   36   13 1    
    34   37   13 1    
    35   15   14 1    
    36   18   14 1    
    37   20   14 1    
    38   16   15 1    
    39   38   15 1    
    40   17   16 1    
    41   39   16 1    
    42   40   16 1    
    43   18   17 1    
    44   41   17 1    
    45   42   17 1    
    46   19   18 2    
    47   43   20 1    
    48   44   20 1    
    49   45   20 1    
    50   46   21 1    
    51   47   21 1    
    52   48   21 1    
@<TRIPOS>SUBSTRUCTURE
     1 AND508      1 GROUP   
@<TRIPOS>SET

