#    Name: 2iod_MYC_6_INTS_M
#    Modification time : Tue Mar 25 18:27:06 2014

@<TRIPOS>MOLECULE
2iod_MYC_6_INTS_M
   43     0     9     0     0
SMALL
NO_CHARGES


@<TRIPOS>ATOM
      1 CA         13.6320  -26.8980   17.2680 C.3       3 GLC5        0.0000 
      2 CA         11.4320  -27.2240   17.2080 C.3       9 GLL5        0.0000 
      3 CA         15.8320  -26.5720   17.3280 C.3       6 GLP5        0.0000 
      4 CA          7.6020  -36.3015   13.3080 C.3       3 GLC5        0.0000 
      5 CA          7.1990  -34.2920   14.1900 C.3       9 GLL5        0.0000 
      6 CA          8.0050  -38.3110   12.4260 C.3       6 GLP5        0.0000 
      7 CA          4.8340  -35.8160   14.9800 C.3       3 GLC5        0.0000 
      8 CA          6.7090  -34.7260   15.4060 C.3       9 GLL5        0.0000 
      9 CA          2.9590  -36.9060   14.5540 C.3       6 GLP5        0.0000 
     10 N           6.1005  -36.4185   16.6210 N.am      2 SEC2        0.0000 
     11 N           5.8960  -35.7980   15.6550 N.am      8 SEL2        0.0000 
     12 N           6.3050  -37.0390   17.5870 N.am      5 SEP2        0.0000 
     13 N           6.3685  -36.8730   14.3955 N.am      2 SEC2        0.0000 
     14 N           6.8410  -37.9480   13.1360 N.am      5 SEP2        0.0000 
     15 O           6.8670  -36.4295   13.0795 O.2       1 ALC1        0.0000 
     16 O           6.8930  -34.9110   13.0230 O.2       7 ALL1        0.0000 
     17 O           6.8410  -37.9480   13.1360 O.2       4 ALP1        0.0000 
     18 CA          8.5478  -29.0190   16.6445 C.3       3 GLC5        0.0000 
     19 CA         10.6970  -28.9510   15.7370 C.3       9 GLL5        0.0000 
     20 CA          6.7500  -28.7780   17.0350 C.3       6 GLP5        0.0000 
     21 CA          8.5680  -28.6097   17.5835 C.3       3 GLC5        0.0000 
     22 CA         10.0300  -29.0290   18.0220 C.3       9 GLL5        0.0000 
     23 CA          9.9147  -26.2041   17.4539 C.3       3 GLC5        0.0000 
     24 CA         10.7420  -27.8540   18.2420 C.3       9 GLL5        0.0000 
     25 CA          8.7490  -24.7380   17.4980 C.3       6 GLP5        0.0000 
     26 CA         10.9030  -29.4772   19.3746 C.3       3 GLC5        0.0000 
     27 CA         11.4290  -30.3780   20.9300 C.3       6 GLP5        0.0000 
     28 CA          7.7135  -30.5055   14.1547 C.3       3 GLC5        0.0000 
     29 CA          9.2440  -31.3240   15.3560 C.3       9 GLL5        0.0000 
     30 CA          5.8590  -29.9700   13.5030 C.3       6 GLP5        0.0000 
     31 CA          6.3273  -32.3612   14.6050 C.3       3 GLC5        0.0000 
     32 CA          8.3870  -32.5480   15.3450 C.3       9 GLL5        0.0000 
     33 CA          4.4480  -31.8670   14.4620 C.3       6 GLP5        0.0000 
     34 CA          8.2598  -34.2758   12.2662 C.3       3 GLC5        0.0000 
     35 CA          8.0260  -33.1630   14.1510 C.3       9 GLL5        0.0000 
     36 CA          8.9070  -34.8240   10.3620 C.3       6 GLP5        0.0000 
     37 CA          5.7010  -33.1880   14.6300 C.3       3 GLC5        0.0000 
     38 CA          6.2755  -36.3260   16.5717 C.3       3 GLC5        0.0000 
     39 CA          5.6760  -38.2270   17.1560 C.3       6 GLP5        0.0000 
     40 CA          5.9508  -32.7160   15.5182 C.3       3 GLC5        0.0000 
     41 CA          7.0410  -34.1240   16.5690 C.3       9 GLL5        0.0000 
     42 CA          7.5454  -30.6245   16.5001 C.3       3 GLC5        0.0000 
     43 CA          7.8660  -33.0060   16.5800 C.3       9 GLL5        0.0000 
@<TRIPOS>BOND
@<TRIPOS>SUBSTRUCTURE
     1 ALC1       15 GROUP        1 X    ALC  0     ROOT ALC X 1
     2 SEC2       10 GROUP        1 X    SEC  0     **** SEC X 2
     3 GLC5        1 GROUP        1 X    GLC  0     **** GLC X 6
     4 ALP1       17 GROUP        1 Y    ALP  0     ROOT ALP Y 8
     5 SEP2       12 GROUP        1 Y    SEP  0     **** SEP Y 9
     6 GLP5        3 GROUP        1 Y    GLP  0     **** GLP Y 13
     7 ALL1       16 GROUP        1 Z    ALL  0     ROOT ALL Z 15
     8 SEL2       11 GROUP        1 Z    SEL  0     **** SEL Z 16
     9 GLL5        2 GROUP        1 Z    GLL  0     **** GLL Z 20
@<TRIPOS>SET

