#    Name: 2iod_MYC_6_ligand
#    Modification time : Tue Mar 25 18:27:06 2014

@<TRIPOS>MOLECULE
2iod_MYC_6_ligand
   33    35     1     0     0
SMALL
NO_CHARGES


@<TRIPOS>ATOM
      1 C1         11.4320  -27.2240   17.2080 C.ar      1 MYC3342     0.0000 
      2 C2         11.4060  -27.7490   15.9470 C.ar      1 MYC3342     0.0000 
      3 C3         10.6970  -28.9510   15.7370 C.ar      1 MYC3342     0.0000 
      4 C4          9.9940  -29.5690   16.7710 C.ar      1 MYC3342     0.0000 
      5 C5         10.0300  -29.0290   18.0220 C.ar      1 MYC3342     0.0000 
      6 C6         10.7420  -27.8540   18.2420 C.ar      1 MYC3342     0.0000 
      7 C9         10.6420  -29.5920   14.4330 C.2       1 MYC3342     0.0000 
      8 C10         9.8920  -30.7580   14.2570 C.2       1 MYC3342     0.0000 
      9 C11         9.2440  -31.3240   15.3560 C.2       1 MYC3342     0.0000 
     10 C14         8.3870  -32.5480   15.3450 C.ar      1 MYC3342     0.0000 
     11 C15         8.0260  -33.1630   14.1510 C.ar      1 MYC3342     0.0000 
     12 C16         7.1990  -34.2920   14.1900 C.ar      1 MYC3342     0.0000 
     13 C17         6.7090  -34.7260   15.4060 C.ar      1 MYC3342     0.0000 
     14 C18         7.0410  -34.1240   16.5690 C.ar      1 MYC3342     0.0000 
     15 C19         7.8660  -33.0060   16.5800 C.ar      1 MYC3342     0.0000 
     16 O12         9.2980  -30.7220   16.6000 O.3       1 MYC3342     0.0000 
     17 O13        11.2250  -29.0610   13.4620 O.2       1 MYC3342     0.0000 
     18 O23         6.4350  -34.7640   17.6060 O.3       1 MYC3342     0.0000 
     19 O24         5.8960  -35.7980   15.6550 O.3       1 MYC3342     0.0000 
     20 O25         6.8930  -34.9110   13.0230 O.3       1 MYC3342     0.0000 
     21 O27         9.8900  -31.2670   12.9880 O.3       1 MYC3342     0.0000 
     22 O29        10.7360  -27.3450   19.4990 O.3       1 MYC3342     0.0000 
     23 O30        12.0960  -27.1150   14.9540 O.3       1 MYC3342     0.0000 
     24 H          11.9602  -26.3594   17.4078 H         1 MYC3342     0.0000 
     25 H           9.5379  -29.4777   18.8073 H         1 MYC3342     0.0000 
     26 H           8.3570  -32.7998   13.2569 H         1 MYC3342     0.0000 
     27 H           8.0955  -32.5241   17.4388 H         1 MYC3342     0.0000 
     28 H           7.1205  -34.7841   18.3337 H         1 MYC3342     0.0000 
     29 H           4.9658  -35.4495   15.5395 H         1 MYC3342     0.0000 
     30 H           6.8738  -35.8859   13.2446 H         1 MYC3342     0.0000 
     31 H          10.3527  -30.5768   12.4317 H         1 MYC3342     0.0000 
     32 H           9.8815  -27.6688   19.9051 H         1 MYC3342     0.0000 
     33 H          11.9343  -27.6652   14.1347 H         1 MYC3342     0.0000 
@<TRIPOS>BOND
     1    2    1 ar   
     2    6    1 ar   
     3   24    1 1    
     4    3    2 ar   
     5   23    2 1    
     6    4    3 ar   
     7    7    3 1    
     8    5    4 ar   
     9   16    4 1    
    10    6    5 ar   
    11   25    5 1    
    12   22    6 1    
    13    8    7 1    
    14   17    7 2    
    15    9    8 2    
    16   21    8 1    
    17   10    9 1    
    18   16    9 1    
    19   11   10 ar   
    20   15   10 ar   
    21   12   11 ar   
    22   26   11 1    
    23   13   12 ar   
    24   20   12 1    
    25   14   13 ar   
    26   19   13 1    
    27   15   14 ar   
    28   18   14 1    
    29   27   15 1    
    30   28   18 1    
    31   29   19 1    
    32   30   20 1    
    33   31   21 1    
    34   32   22 1    
    35   33   23 1    
@<TRIPOS>SUBSTRUCTURE
     1 MYC3342     1 GROUP   
@<TRIPOS>SET

