#    Name: 3rk7_08Z_1_INTS_M
#    Modification time : Tue Mar 25 11:35:48 2014

@<TRIPOS>MOLECULE
3rk7_08Z_1_INTS_M
   52     0     9     0     0
SMALL
NO_CHARGES


@<TRIPOS>ATOM
      1 O          89.8975  119.0230  -49.6325 O.2       1 ALC1        0.0000 
      2 O          90.8270  118.5070  -48.8550 O.2       7 ALL1        0.0000 
      3 O          88.9680  119.5390  -50.4100 O.2       4 ALP1        0.0000 
      4 N          91.2215  118.7940  -51.6970 N.am      2 SEC2        0.0000 
      5 N          92.2760  118.0470  -50.6280 N.am      8 SEL2        0.0000 
      6 N          90.1670  119.5410  -52.7660 N.am      5 SEP2        0.0000 
      7 CA         93.2715  118.6120  -47.6800 C.3       3 GLC5        0.0000 
      8 CA         92.9550  116.7230  -48.4980 C.3       9 GLL5        0.0000 
      9 CA         93.5880  120.5010  -46.8620 C.3       6 GLP5        0.0000 
     10 CA         94.8845  117.5880  -47.7670 C.3       3 GLC5        0.0000 
     11 CA         96.8140  118.4530  -47.0360 C.3       6 GLP5        0.0000 
     12 CA         92.2200  115.7435  -50.0480 C.3       3 GLC5        0.0000 
     13 CA         91.4850  114.7640  -51.5980 C.3       6 GLP5        0.0000 
     14 O          93.7275  118.0900  -53.2785 O.2       1 ALC1        0.0000 
     15 O          93.8390  117.3380  -52.1350 O.2       7 ALL1        0.0000 
     16 O          93.6160  118.8420  -54.4220 O.2       4 ALP1        0.0000 
     17 CA         96.1310  116.5775  -47.9945 C.3       3 GLC5        0.0000 
     18 CA         95.4480  114.7020  -48.9530 C.3       9 GLL5        0.0000 
     19 CA         92.3505  113.9690  -48.8640 C.3       3 GLC5        0.0000 
     20 CA         94.4710  113.9440  -48.1900 C.3       9 GLL5        0.0000 
     21 CA         90.2300  113.9940  -49.5380 C.3       6 GLP5        0.0000 
     22 CA         97.0270  114.7850  -46.2420 C.3       3 GLC5        0.0000 
     23 CA         96.2550  112.9450  -46.8720 C.3       9 GLL5        0.0000 
     24 CA         97.7990  116.6250  -45.6120 C.3       6 GLP5        0.0000 
     25 CA         98.2890  113.3580  -46.9875 C.3       3 GLC5        0.0000 
     26 CA        100.3230  113.7710  -47.1030 C.3       6 GLP5        0.0000 
     27 CA         97.3105  115.5805  -47.1255 C.3       3 GLC5        0.0000 
     28 CA         96.8220  114.5360  -48.6390 C.3       9 GLL5        0.0000 
     29 CA         98.5725  114.1535  -47.8710 C.3       3 GLC5        0.0000 
     30 CA         87.9735  119.9660  -48.5645 C.3       3 GLC5        0.0000 
     31 CA         89.5510  119.5920  -47.1060 C.3       9 GLL5        0.0000 
     32 CA         86.3960  120.3400  -50.0230 C.3       6 GLP5        0.0000 
     33 CA         90.2855  115.6315  -48.1480 C.3       3 GLC5        0.0000 
     34 CA         90.3410  117.2690  -46.7580 C.3       9 GLL5        0.0000 
     35 CA         91.7490  119.7583  -47.1075 C.3       3 GLC5        0.0000 
     36 CA         90.2690  118.4390  -47.6000 C.3       9 GLL5        0.0000 
     37 CA         94.5810  118.4240  -50.5670 C.3       3 GLC5        0.0000 
     38 CA         93.8360  116.5240  -49.9360 C.3       9 GLL5        0.0000 
     39 CA         95.5700  119.9300  -50.6850 C.3       6 GLP5        0.0000 
     40 CA         92.5385  115.8410  -51.0235 C.3       3 GLC5        0.0000 
     41 CA         93.3480  117.3120  -50.9620 C.3       9 GLL5        0.0000 
     42 CA         94.3887  113.1225  -50.1083 C.3       3 GLC5        0.0000 
     43 CA         93.8180  111.9220  -51.6450 C.3       6 GLP5        0.0000 
     44 CA         96.3780  111.4322  -48.1320 C.3       3 GLC5        0.0000 
     45 CA         94.8730  113.0720  -47.1520 C.3       9 GLL5        0.0000 
     46 CA         97.1920  109.8560  -49.2520 C.3       6 GLP5        0.0000 
     47 CA         90.9080  119.8047  -44.9105 C.3       3 GLC5        0.0000 
     48 CA         89.0190  118.3950  -44.9930 C.3       9 GLL5        0.0000 
     49 CA         92.8370  120.6270  -44.4130 C.3       6 GLP5        0.0000 
     50 CA         89.0530  115.3317  -46.3265 C.3       3 GLC5        0.0000 
     51 CA         89.7270  117.2500  -45.4780 C.3       9 GLL5        0.0000 
     52 CA         88.0720  113.4040  -46.5350 C.3       6 GLP5        0.0000 
@<TRIPOS>BOND
@<TRIPOS>SUBSTRUCTURE
     1 ALC1        1 GROUP        1 X    ALC  0     ROOT ALC X 1
     2 SEC2        4 GROUP        1 X    SEC  0     **** SEC X 2
     3 GLC5        7 GROUP        1 X    GLC  0     **** GLC X 6
     4 ALP1        3 GROUP        1 Y    ALP  0     ROOT ALP Y 8
     5 SEP2        6 GROUP        1 Y    SEP  0     **** SEP Y 9
     6 GLP5        9 GROUP        1 Y    GLP  0     **** GLP Y 13
     7 ALL1        2 GROUP        1 Z    ALL  0     ROOT ALL Z 15
     8 SEL2        5 GROUP        1 Z    SEL  0     **** SEL Z 16
     9 GLL5        8 GROUP        1 Z    GLL  0     **** GLL Z 20
@<TRIPOS>SET

