#    Name: 3rk7_08Z_1_ligand
#    Modification time : Tue Mar 25 11:35:48 2014

@<TRIPOS>MOLECULE
3rk7_08Z_1_ligand
   37    39     1     0     0
SMALL
NO_CHARGES


@<TRIPOS>ATOM
      1 C1         90.2690  118.4390  -47.6000 C.ar      1 08Z467      0.0000 
      2 N2         90.8270  118.5070  -48.8550 N.pl3     1 08Z467      0.0000 
      3 C3         91.9270  117.8440  -49.3480 C.2       1 08Z467      0.0000 
      4 N4         92.2760  118.0470  -50.6280 N.2       1 08Z467      0.0000 
      5 C5         93.3480  117.3120  -50.9620 C.2       1 08Z467      0.0000 
      6 C6         93.8360  116.5240  -49.9360 C.2       1 08Z467      0.0000 
      7 S7         92.9550  116.7230  -48.4980 S.3       1 08Z467      0.0000 
      8 N8         93.8390  117.3380  -52.1350 N.pl3     1 08Z467      0.0000 
      9 C9         94.9960  115.5970  -50.0580 C.2       1 08Z467      0.0000 
     10 C10        95.4480  114.7020  -48.9530 C.ar      1 08Z467      0.0000 
     11 C11        94.4710  113.9440  -48.1900 C.ar      1 08Z467      0.0000 
     12 C12        94.8730  113.0720  -47.1520 C.ar      1 08Z467      0.0000 
     13 C13        96.2550  112.9450  -46.8720 C.ar      1 08Z467      0.0000 
     14 N14        97.1790  113.6680  -47.6110 N.ar      1 08Z467      0.0000 
     15 C15        96.8220  114.5360  -48.6390 C.ar      1 08Z467      0.0000 
     16 O16        95.6430  115.5510  -51.2240 O.2       1 08Z467      0.0000 
     17 C17        89.5510  119.5920  -47.1060 C.ar      1 08Z467      0.0000 
     18 C18        88.9390  119.5700  -45.8230 C.ar      1 08Z467      0.0000 
     19 C19        89.0190  118.3950  -44.9930 C.ar      1 08Z467      0.0000 
     20 C20        89.7270  117.2500  -45.4780 C.ar      1 08Z467      0.0000 
     21 C21        90.3410  117.2690  -46.7580 C.ar      1 08Z467      0.0000 
     22 C22        88.3620  118.3870  -43.6490 C.2       1 08Z467      0.0000 
     23 O23        87.7050  119.4950  -43.2390 O.2       1 08Z467      0.0000 
     24 N24        88.4010  117.3480  -42.8650 N.am      1 08Z467      0.0000 
     25 H          90.3270  119.1819  -49.5593 H         1 08Z467      0.0000 
     26 H          94.6534  116.7771  -52.2836 H         1 08Z467      0.0000 
     27 H          93.3643  117.9169  -52.7980 H         1 08Z467      0.0000 
     28 H          93.4816  114.0545  -48.4201 H         1 08Z467      0.0000 
     29 H          94.1898  112.5508  -46.6214 H         1 08Z467      0.0000 
     30 H          96.5585  112.3169  -46.1224 H         1 08Z467      0.0000 
     31 H          97.5251  115.0486  -49.1639 H         1 08Z467      0.0000 
     32 H          89.4887  120.4239  -47.6909 H         1 08Z467      0.0000 
     33 H          88.4376  120.3879  -45.4799 H         1 08Z467      0.0000 
     34 H          89.7884  116.4143  -44.8948 H         1 08Z467      0.0000 
     35 H          90.8440  116.4467  -47.0975 H         1 08Z467      0.0000 
     36 H          87.9012  117.4285  -42.0026 H         1 08Z467      0.0000 
     37 H          88.9272  116.5654  -43.1975 H         1 08Z467      0.0000 
@<TRIPOS>BOND
     1    2    1 1    
     2   17    1 ar   
     3   21    1 ar   
     4    3    2 1    
     5   25    2 1    
     6    4    3 2    
     7    7    3 1    
     8    5    4 1    
     9    6    5 2    
    10    8    5 1    
    11    7    6 1    
    12    9    6 1    
    13   26    8 1    
    14   27    8 1    
    15   10    9 1    
    16   16    9 2    
    17   11   10 ar   
    18   15   10 ar   
    19   12   11 ar   
    20   28   11 1    
    21   13   12 ar   
    22   29   12 1    
    23   14   13 ar   
    24   30   13 1    
    25   15   14 ar   
    26   31   15 1    
    27   18   17 ar   
    28   32   17 1    
    29   19   18 ar   
    30   33   18 1    
    31   20   19 ar   
    32   22   19 1    
    33   21   20 ar   
    34   34   20 1    
    35   35   21 1    
    36   23   22 2    
    37   24   22 am   
    38   36   24 1    
    39   37   24 1    
@<TRIPOS>SUBSTRUCTURE
     1 08Z467      1 GROUP   
@<TRIPOS>SET

