#    Name: 4bxk_1IU_2_INTS_M
#    Modification time : Tue Mar 25 08:31:01 2014

@<TRIPOS>MOLECULE
4bxk_1IU_2_INTS_M
   73     0    12     0     0
SMALL
NO_CHARGES


@<TRIPOS>ATOM
      1 O          -2.7490   12.2295   29.5750 O.2       1 ALC1        0.0000 
      2 O          -2.9020   11.4420   28.6000 O.2       9 ALL1        0.0000 
      3 O          -2.5960   13.0170   30.5500 O.2       5 ALP1        0.0000 
      4 CA         -3.4030   14.0210   26.8845 C.3       4 GLC5        0.0000 
      5 CA         -2.1860   12.5090   26.4050 C.3      12 GLL5        0.0000 
      6 CA         -4.6200   15.5330   27.3640 C.3       8 GLP5        0.0000 
      7 CA         -1.2625   14.7745   28.4065 C.3       4 GLC5        0.0000 
      8 CA         -0.9140   12.9580   27.1400 C.3      12 GLL5        0.0000 
      9 CA         -1.6110   16.5910   29.6730 C.3       8 GLP5        0.0000 
     10 CA         -2.3955   14.5760   26.7920 C.3       4 GLC5        0.0000 
     11 CA         -3.8770   16.1940   26.4440 C.3       8 GLP5        0.0000 
     12 N           0.7230   15.5875   27.8430 N.am      2 SEC2        0.0000 
     13 N           0.7730   14.6000   26.8750 N.am     10 SEL2        0.0000 
     14 N           0.6730   16.5750   28.8110 N.am      6 SEP2        0.0000 
     15 O          -0.5500   12.7380   23.9690 O.2       1 ALC1        0.0000 
     16 O          -0.0390   13.7480   24.9260 O.2       9 ALL1        0.0000 
     17 O          -1.0610   11.7280   23.0120 O.2       5 ALP1        0.0000 
     18 CA          1.5415   15.9730   25.6440 C.3       4 GLC5        0.0000 
     19 CA          0.7400   14.6770   24.0890 C.3      12 GLL5        0.0000 
     20 CA          2.3430   17.2690   27.1990 C.3       8 GLP5        0.0000 
     21 CA          2.9405   15.4640   22.2265 C.3       4 GLC5        0.0000 
     22 CA          1.5660   13.9340   23.0510 C.3      12 GLL5        0.0000 
     23 CA          4.3150   16.9940   21.4020 C.3       8 GLP5        0.0000 
     24 CA          4.0125   15.4370   22.8135 C.3       4 GLC5        0.0000 
     25 CA          3.7100   13.8800   24.2250 C.3      12 GLL5        0.0000 
     26 Zn         -2.3250   16.0040   23.8425 Zn        3 ZIC7        0.0000 
     27 Zn         -1.3680   16.4990   24.4070 Zn       11 ZIL7        0.0000 
     28 Zn         -3.2820   15.5090   23.2780 Zn        7 ZIP7        0.0000 
     29 N          -1.1130   17.5535   25.2915 N.am      2 SEC2        0.0000 
     30 N          -1.3680   16.4990   24.4070 N.am     10 SEL2        0.0000 
     31 N          -0.8580   18.6080   26.1760 N.am      6 SEP2        0.0000 
     32 Zn         -2.3585   15.3420   22.7950 Zn        3 ZIC7        0.0000 
     33 Zn         -1.4350   15.1750   22.3120 Zn       11 ZIL7        0.0000 
     34 N          -1.1540   14.2945   21.3885 N.am      2 SEC2        0.0000 
     35 N          -1.4350   15.1750   22.3120 N.am     10 SEL2        0.0000 
     36 N          -0.8730   13.4140   20.4650 N.am      6 SEP2        0.0000 
     37 CA          2.3755   17.1045   21.9695 C.3       4 GLC5        0.0000 
     38 CA          0.4360   17.2150   22.5370 C.3      12 GLL5        0.0000 
     39 CA          1.4155   19.0025   23.3950 C.3       4 GLC5        0.0000 
     40 CA          2.3950   20.7900   24.2530 C.3       8 GLP5        0.0000 
     41 CA          1.2110   19.9840   22.6340 C.3       4 GLC5        0.0000 
     42 CA          0.0270   19.1780   21.0150 C.3      12 GLL5        0.0000 
     43 CA         -0.3720   21.1845   21.7850 C.3       4 GLC5        0.0000 
     44 CA         -0.7710   23.1910   22.5550 C.3       8 GLP5        0.0000 
     45 N           2.1840   16.5190   20.0570 N.am      2 SEC2        0.0000 
     46 N           0.7890   16.0930   19.8720 N.am     10 SEL2        0.0000 
     47 N           3.5790   16.9450   20.2420 N.am      6 SEP2        0.0000 
     48 CA         -1.8750   15.3080   18.5395 C.3       4 GLC5        0.0000 
     49 CA         -0.8120   16.5630   17.6590 C.3      12 GLL5        0.0000 
     50 CA         -2.9380   14.0530   19.4200 C.3       8 GLP5        0.0000 
     51 CA         -2.3960   16.6470   14.8365 C.3       4 GLC5        0.0000 
     52 CA         -1.9850   16.9460   16.7600 C.3      12 GLL5        0.0000 
     53 CA         -2.8070   16.3480   12.9130 C.3       8 GLP5        0.0000 
     54 CA         -2.8975   15.4605   17.5440 C.3       4 GLC5        0.0000 
     55 CA         -3.8100   13.9750   18.3280 C.3       8 GLP5        0.0000 
     56 N           0.7355   17.3385   15.0950 N.am      2 SEC2        0.0000 
     57 N           1.1290   16.2700   16.2360 N.am     10 SEL2        0.0000 
     58 N           0.3420   18.4070   13.9540 N.am      6 SEP2        0.0000 
     59 N           2.4080   16.4245   15.5640 N.am      2 SEC2        0.0000 
     60 N           3.6870   16.5790   14.8920 N.am      6 SEP2        0.0000 
     61 N           1.8110   15.2390   17.2425 N.am      2 SEC2        0.0000 
     62 N           2.4930   14.2080   18.2490 N.am      6 SEP2        0.0000 
     63 N           0.5075   15.5285   15.2240 N.am      2 SEC2        0.0000 
     64 N          -0.1140   14.7870   14.2120 N.am      6 SEP2        0.0000 
     65 CA          3.4188   10.5220   22.7668 C.3       4 GLC5        0.0000 
     66 CA          2.4670   11.8430   23.9610 C.3      12 GLL5        0.0000 
     67 CA          3.8720    9.5430   21.2270 C.3       8 GLP5        0.0000 
     68 CA          3.8320   14.8825   25.9678 C.3       4 GLC5        0.0000 
     69 CA          4.7180   13.1920   24.9040 C.3      12 GLL5        0.0000 
     70 CA          3.4500   16.2290   27.3710 C.3       8 GLP5        0.0000 
     71 CA         -2.0365   18.4835   22.1235 C.3       4 GLC5        0.0000 
     72 CA         -0.3730   17.7020   21.2990 C.3      12 GLL5        0.0000 
     73 CA         -3.9000   18.5270   23.0900 C.3       8 GLP5        0.0000 
@<TRIPOS>BOND
@<TRIPOS>SUBSTRUCTURE
     1 ALC1        1 GROUP        1 X    ALC  0     ROOT ALC X 1
     2 SEC2       12 GROUP        1 X    SEC  0     **** SEC X 2
     3 ZIC7       26 GROUP        1 X    ZIC  0     **** ZIC X 5
     4 GLC5        4 GROUP        1 X    GLC  0     **** GLC X 6
     5 ALP1        3 GROUP        1 Y    ALP  0     ROOT ALP Y 8
     6 SEP2       14 GROUP        1 Y    SEP  0     **** SEP Y 9
     7 ZIP7       28 GROUP        1 Y    ZIP  0     **** ZIP Y 12
     8 GLP5        6 GROUP        1 Y    GLP  0     **** GLP Y 13
     9 ALL1        2 GROUP        1 Z    ALL  0     ROOT ALL Z 15
    10 SEL2       13 GROUP        1 Z    SEL  0     **** SEL Z 16
    11 ZIL7       27 GROUP        1 Z    ZIL  0     **** ZIL Z 19
    12 GLL5        5 GROUP        1 Z    GLL  0     **** GLL Z 20
@<TRIPOS>SET

