#    Name: 4bxk_1IU_2_ligand
#    Modification time : Tue Mar 25 08:31:01 2014

@<TRIPOS>MOLECULE
4bxk_1IU_2_ligand
   62    63     1     0     0
SMALL
NO_CHARGES


@<TRIPOS>ATOM
      1 NAS        -3.8290   10.6350   26.8070 N.2       1 1IU1001     0.0000 
      2 NAR        -4.2500   10.0120   27.8520 N.2       1 1IU1001     0.0000 
      3 NAW        -3.6900   10.5070   28.9180 N.2       1 1IU1001     0.0000 
      4 NAT        -2.9020   11.4420   28.6000 N.pl3     1 1IU1001     0.0000 
      5 CBB        -2.9740   11.5380   27.2710 C.2       1 1IU1001     0.0000 
      6 CAP        -2.1860   12.5090   26.4050 C.3       1 1IU1001     0.0000 
      7 CBE        -0.9140   12.9580   27.1400 C.3       1 1IU1001     0.0000 
      8 NAD        -0.1630   11.8510   27.6980 N.4       1 1IU1001     0.0000 
      9 CAZ         0.0160   13.8310   26.2790 C.2       1 1IU1001     0.0000 
     10 OAG         0.7730   14.6000   26.8750 O.2       1 1IU1001     0.0000 
     11 NAV        -0.0390   13.7480   24.9260 N.am      1 1IU1001     0.0000 
     12 CBF         0.7400   14.6770   24.0890 C.3       1 1IU1001     0.0000 
     13 CAO         1.5660   13.9340   23.0510 C.3       1 1IU1001     0.0000 
     14 CBA         2.5770   13.2190   23.7470 C.ar      1 1IU1001     0.0000 
     15 CAM         2.4670   11.8430   23.9610 C.ar      1 1IU1001     0.0000 
     16 CAK         3.4640   11.1590   24.6520 C.ar      1 1IU1001     0.0000 
     17 CAJ         4.5980   11.8210   25.1180 C.ar      1 1IU1001     0.0000 
     18 CAL         4.7180   13.1920   24.9040 C.ar      1 1IU1001     0.0000 
     19 CAN         3.7100   13.8800   24.2250 C.ar      1 1IU1001     0.0000 
     20 PBG        -0.4970   15.8580   23.2760 P.3       1 1IU1001     0.0000 
     21 OAI        -1.3680   16.4990   24.4070 O.co2     1 1IU1001     0.0000 
     22 OAH        -1.4350   15.1750   22.3120 O.co2     1 1IU1001     0.0000 
     23 CAQ         0.4360   17.2150   22.5370 C.3       1 1IU1001     0.0000 
     24 CBC        -0.3730   17.7020   21.2990 C.3       1 1IU1001     0.0000 
     25 CAA         0.0270   19.1780   21.0150 C.3       1 1IU1001     0.0000 
     26 CAY        -0.1290   16.8880   19.9920 C.2       1 1IU1001     0.0000 
     27 OAF         0.7890   16.0930   19.8720 O.2       1 1IU1001     0.0000 
     28 N          -0.9500   17.1830   18.9880 N.am      1 1IU1001     0.0000 
     29 CA         -0.8120   16.5630   17.6590 C.3       1 1IU1001     0.0000 
     30 CB         -1.9850   16.9460   16.7600 C.3       1 1IU1001     0.0000 
     31 C           0.4910   17.0250   16.9770 C.2       1 1IU1001     0.0000 
     32 O           1.1290   16.2700   16.2360 O.2       1 1IU1001     0.0000 
     33 NAC         0.8430   18.2820   17.2110 N.am      1 1IU1001     0.0000 
     34 H          -2.3448   11.9975   29.1662 H         1 1IU1001     0.0000 
     35 H          -2.7952   13.3805   26.1873 H         1 1IU1001     0.0000 
     36 H          -1.9050   12.0235   25.4758 H         1 1IU1001     0.0000 
     37 H          -1.2473   13.6132   27.9851 H         1 1IU1001     0.0000 
     38 H          -0.6099   13.0535   24.4346 H         1 1IU1001     0.0000 
     39 H           1.3136   15.3630   24.6596 H         1 1IU1001     0.0000 
     40 H           1.9825   14.6676   22.3638 H         1 1IU1001     0.0000 
     41 H           0.9001   13.2714   22.5018 H         1 1IU1001     0.0000 
     42 H           1.6461   11.3350   23.6063 H         1 1IU1001     0.0000 
     43 H           3.3614   10.1436   24.8221 H         1 1IU1001     0.0000 
     44 H           5.3311   11.3077   25.6098 H         1 1IU1001     0.0000 
     45 H           5.5439   13.6967   25.2435 H         1 1IU1001     0.0000 
     46 H           3.8050   14.8997   24.0733 H         1 1IU1001     0.0000 
     47 H           1.3448   16.7674   22.2812 H         1 1IU1001     0.0000 
     48 H           0.4745   17.9230   23.3044 H         1 1IU1001     0.0000 
     49 H          -1.4193   17.6929   21.5309 H         1 1IU1001     0.0000 
     50 H          -1.7314   17.8638   19.0828 H         1 1IU1001     0.0000 
     51 H          -0.7814   15.4903   17.7390 H         1 1IU1001     0.0000 
     52 H           0.2161   18.8162   17.7782 H         1 1IU1001     0.0000 
     53 H           1.7034   18.5820   16.7991 H         1 1IU1001     0.0000 
     54 H           0.1324   11.2086   26.9908 H         1 1IU1001     0.0000 
     55 H           0.6599   12.1625   28.1732 H         1 1IU1001     0.0000 
     56 H          -0.7040   11.3309   28.3589 H         1 1IU1001     0.0000 
     57 H           1.0037   19.2671   20.8200 H         1 1IU1001     0.0000 
     58 H          -0.4643   19.5511   20.2279 H         1 1IU1001     0.0000 
     59 H          -0.1720   19.7731   21.7936 H         1 1IU1001     0.0000 
     60 H          -2.0444   17.9355   16.6284 H         1 1IU1001     0.0000 
     61 H          -1.9073   16.5337   15.8523 H         1 1IU1001     0.0000 
     62 H          -2.8593   16.6483   17.1433 H         1 1IU1001     0.0000 
@<TRIPOS>BOND
     1    2    1 1    
     2    5    1 2    
     3    3    2 2    
     4    4    3 1    
     5    5    4 1    
     6   34    4 1    
     7    6    5 1    
     8    7    6 1    
     9   35    6 1    
    10   36    6 1    
    11    8    7 1    
    12    9    7 1    
    13   37    7 1    
    14   54    8 1    
    15   55    8 1    
    16   56    8 1    
    17   10    9 2    
    18   11    9 am   
    19   12   11 1    
    20   38   11 1    
    21   13   12 1    
    22   20   12 1    
    23   39   12 1    
    24   14   13 1    
    25   40   13 1    
    26   41   13 1    
    27   15   14 ar   
    28   19   14 ar   
    29   16   15 ar   
    30   42   15 1    
    31   17   16 ar   
    32   43   16 1    
    33   18   17 ar   
    34   44   17 1    
    35   19   18 ar   
    36   45   18 1    
    37   46   19 1    
    38   21   20 ar   
    39   22   20 ar   
    40   23   20 1    
    41   24   23 1    
    42   47   23 1    
    43   48   23 1    
    44   25   24 1    
    45   26   24 1    
    46   49   24 1    
    47   57   25 1    
    48   58   25 1    
    49   59   25 1    
    50   27   26 2    
    51   28   26 am   
    52   29   28 1    
    53   50   28 1    
    54   30   29 1    
    55   31   29 1    
    56   51   29 1    
    57   60   30 1    
    58   61   30 1    
    59   62   30 1    
    60   32   31 2    
    61   33   31 am   
    62   52   33 1    
    63   53   33 1    
@<TRIPOS>SUBSTRUCTURE
     1 1IU1001     1 GROUP   
@<TRIPOS>SET

