#    Name: 2j9l_ATP_2_INTS_M
#    Modification time : Tue Mar 25 19:46:17 2014

@<TRIPOS>MOLECULE
2j9l_ATP_2_INTS_M
   49     0    12     0     0
SMALL
NO_CHARGES


@<TRIPOS>ATOM
      1 NZ         37.8730   43.6885   40.3715 N.4       3 LYC4        0.0000 
      2 NZ         36.5180   43.7100   40.1400 N.4      11 LYL4        0.0000 
      3 NZ         39.2280   43.6670   40.6030 N.4       7 LYP4        0.0000 
      4 N          37.8730   43.6885   40.3715 N.am      2 SEC2        0.0000 
      5 N          36.5180   43.7100   40.1400 N.am     10 SEL2        0.0000 
      6 N          39.2280   43.6670   40.6030 N.am      6 SEP2        0.0000 
      7 N          30.8750   44.4800   35.6520 N.am      2 SEC2        0.0000 
      8 N          31.7580   45.5580   35.9810 N.am     10 SEL2        0.0000 
      9 N          29.9920   43.4020   35.3230 N.am      6 SEP2        0.0000 
     10 N          37.0980   50.5990   33.5695 N.am      2 SEC2        0.0000 
     11 N          36.1420   50.1630   34.4250 N.am     10 SEL2        0.0000 
     12 N          38.0540   51.0350   32.7140 N.am      6 SEP2        0.0000 
     13 O          36.6515   50.6980   35.5620 O.2       1 ALC1        0.0000 
     14 O          36.1420   50.1630   34.4250 O.2       9 ALL1        0.0000 
     15 O          37.1610   51.2330   36.6990 O.2       5 ALP1        0.0000 
     16 O          34.4175   51.4630   35.8400 O.2       1 ALC1        0.0000 
     17 O          33.7530   50.9850   34.8810 O.2       9 ALL1        0.0000 
     18 O          35.0820   51.9410   36.7990 O.2       5 ALP1        0.0000 
     19 CA         33.1165   47.8440   31.8175 C.3       4 GLC5        0.0000 
     20 CA         33.5050   49.2720   33.1870 C.3      12 GLL5        0.0000 
     21 CA         32.7280   46.4160   30.4480 C.3       8 GLP5        0.0000 
     22 CA         28.2880   48.0540   29.5040 C.3       4 GLC5        0.0000 
     23 CA         29.0430   48.7120   31.3610 C.3      12 GLL5        0.0000 
     24 CA         27.5330   47.3960   27.6470 C.3       8 GLP5        0.0000 
     25 O          26.7340   48.3565   30.6365 O.2       1 ALC1        0.0000 
     26 O          27.8310   48.2550   31.6420 O.2       9 ALL1        0.0000 
     27 O          25.6370   48.4580   29.6310 O.2       5 ALP1        0.0000 
     28 O          27.3440   47.2330   32.7815 O.2       1 ALC1        0.0000 
     29 O          26.8570   46.2110   33.9210 O.2       5 ALP1        0.0000 
     30 N          28.4450   49.5605   28.9945 N.am      2 SEC2        0.0000 
     31 N          29.3120   49.2520   30.1650 N.am     10 SEL2        0.0000 
     32 N          27.5780   49.8690   27.8240 N.am      6 SEP2        0.0000 
     33 CA         29.5940   51.0565   30.2840 C.3       4 GLC5        0.0000 
     34 CA         30.5230   49.7080   29.8900 C.3      12 GLL5        0.0000 
     35 CA         28.6650   52.4050   30.6780 C.3       8 GLP5        0.0000 
     36 CA         29.0280   48.5520   28.7685 C.3       4 GLC5        0.0000 
     37 CA         33.4225   49.4555   36.3842 C.3       4 GLC5        0.0000 
     38 CA         33.8120   49.5780   34.6490 C.3      12 GLL5        0.0000 
     39 CA         32.3140   49.5650   38.0400 C.3       8 GLP5        0.0000 
     40 CA         32.0793   50.8030   33.9095 C.3       4 GLC5        0.0000 
     41 CA         30.5000   52.1810   33.9010 C.3       8 GLP5        0.0000 
     42 CA         34.7265   50.9750   33.2649 C.3       4 GLC5        0.0000 
     43 CA         35.4350   52.6410   32.5720 C.3       8 GLP5        0.0000 
     44 CA         29.7330   46.6953   32.0992 C.3       4 GLC5        0.0000 
     45 CA         29.9230   44.7190   32.3660 C.3       8 GLP5        0.0000 
     46 CA         30.5847   50.5265   33.0240 C.3       4 GLC5        0.0000 
     47 CA         30.0430   48.6310   32.3040 C.3      12 GLL5        0.0000 
     48 CA         29.5422   50.6486   31.2946 C.3       4 GLC5        0.0000 
     49 CA         31.2960   49.1130   31.9900 C.3      12 GLL5        0.0000 
@<TRIPOS>BOND
@<TRIPOS>SUBSTRUCTURE
     1 ALC1       13 GROUP        1 X    ALC  0     ROOT ALC X 1
     2 SEC2        4 GROUP        1 X    SEC  0     **** SEC X 2
     3 LYC4        1 GROUP        1 X    LYC  0     **** LYC X 4
     4 GLC5       19 GROUP        1 X    GLC  0     **** GLC X 6
     5 ALP1       15 GROUP        1 Y    ALP  0     ROOT ALP Y 8
     6 SEP2        6 GROUP        1 Y    SEP  0     **** SEP Y 9
     7 LYP4        3 GROUP        1 Y    LYP  0     **** LYP Y 11
     8 GLP5       21 GROUP        1 Y    GLP  0     **** GLP Y 13
     9 ALL1       14 GROUP        1 Z    ALL  0     ROOT ALL Z 15
    10 SEL2        5 GROUP        1 Z    SEL  0     **** SEL Z 16
    11 LYL4        2 GROUP        1 Z    LYL  0     **** LYL Z 18
    12 GLL5       20 GROUP        1 Z    GLL  0     **** GLL Z 20
@<TRIPOS>SET

