#    Name: 2j9l_ATP_2_ligand
#    Modification time : Tue Mar 25 19:46:17 2014

@<TRIPOS>MOLECULE
2j9l_ATP_2_ligand
   43    45     1     0     0
SMALL
NO_CHARGES


@<TRIPOS>ATOM
      1 PG         35.4220   43.1420   39.0990 P.3       1 ATP1754     0.0000 
      2 O1G        36.5180   43.7100   40.1400 O.co2     1 ATP1754     0.0000 
      3 O2G        34.0000   43.2000   39.8920 O.co2     1 ATP1754     0.0000 
      4 O3G        35.7790   41.7750   38.6310 O.co2     1 ATP1754     0.0000 
      5 PB         35.0240   45.7080   38.2410 P.3       1 ATP1754     0.0000 
      6 O1B        36.1080   46.5610   37.7320 O.co2     1 ATP1754     0.0000 
      7 O2B        34.6660   45.7510   39.6610 O.co2     1 ATP1754     0.0000 
      8 O3B        35.3460   44.2090   37.8970 O.3       1 ATP1754     0.0000 
      9 PA         33.2230   45.4910   35.9990 P.3       1 ATP1754     0.0000 
     10 O1A        33.9100   44.2360   35.6900 O.co2     1 ATP1754     0.0000 
     11 O2A        31.7580   45.5580   35.9810 O.co2     1 ATP1754     0.0000 
     12 O3A        33.6750   46.0550   37.4410 O.3       1 ATP1754     0.0000 
     13 O5'        33.7520   46.5830   34.9940 O.3       1 ATP1754     0.0000 
     14 C5'        35.1250   46.6570   34.6150 C.3       1 ATP1754     0.0000 
     15 C4'        35.3590   47.9540   33.8220 C.3       1 ATP1754     0.0000 
     16 O4'        34.2770   48.1000   32.8620 O.3       1 ATP1754     0.0000 
     17 C3'        35.2500   49.1140   34.8080 C.3       1 ATP1754     0.0000 
     18 O3'        36.1420   50.1630   34.4250 O.3       1 ATP1754     0.0000 
     19 C2'        33.8120   49.5780   34.6490 C.3       1 ATP1754     0.0000 
     20 O2'        33.7530   50.9850   34.8810 O.3       1 ATP1754     0.0000 
     21 C1'        33.5050   49.2720   33.1870 C.3       1 ATP1754     0.0000 
     22 N9         32.0740   48.9130   33.0560 N.pl3     1 ATP1754     0.0000 
     23 C8         31.3310   48.3320   34.0000 C.2       1 ATP1754     0.0000 
     24 N7         30.0900   48.1590   33.5440 N.2       1 ATP1754     0.0000 
     25 C5         30.0430   48.6310   32.3040 C.ar      1 ATP1754     0.0000 
     26 C6         29.0430   48.7120   31.3610 C.ar      1 ATP1754     0.0000 
     27 N6         27.8310   48.2550   31.6420 N.pl3     1 ATP1754     0.0000 
     28 N1         29.3120   49.2520   30.1650 N.ar      1 ATP1754     0.0000 
     29 C2         30.5230   49.7080   29.8900 C.ar      1 ATP1754     0.0000 
     30 N3         31.5030   49.6460   30.7770 N.ar      1 ATP1754     0.0000 
     31 C4         31.2960   49.1130   31.9900 C.ar      1 ATP1754     0.0000 
     32 H          35.4196   45.8219   33.9748 H         1 ATP1754     0.0000 
     33 H          35.7896   46.6768   35.4822 H         1 ATP1754     0.0000 
     34 H          36.2972   47.9410   33.3817 H         1 ATP1754     0.0000 
     35 H          35.3934   48.7548   35.7780 H         1 ATP1754     0.0000 
     36 H          33.1945   49.0079   35.2622 H         1 ATP1754     0.0000 
     37 H          33.7567   50.0893   32.5933 H         1 ATP1754     0.0000 
     38 H          31.6481   48.0734   34.8885 H         1 ATP1754     0.0000 
     39 H          27.1458   48.3520   30.9201 H         1 ATP1754     0.0000 
     40 H          27.7114   47.8545   32.5505 H         1 ATP1754     0.0000 
     41 H          30.7129   50.1330   28.9368 H         1 ATP1754     0.0000 
     42 H          36.5265   50.5020   35.2836 H         1 ATP1754     0.0000 
     43 H          33.9117   51.0922   35.8625 H         1 ATP1754     0.0000 
@<TRIPOS>BOND
     1    2    1 ar   
     2    3    1 ar   
     3    4    1 ar   
     4    8    1 1    
     5    6    5 ar   
     6    7    5 ar   
     7    8    5 1    
     8   12    5 1    
     9   10    9 ar   
    10   11    9 ar   
    11   12    9 1    
    12   13    9 1    
    13   14   13 1    
    14   15   14 1    
    15   32   14 1    
    16   33   14 1    
    17   16   15 1    
    18   17   15 1    
    19   34   15 1    
    20   21   16 1    
    21   18   17 1    
    22   19   17 1    
    23   35   17 1    
    24   42   18 1    
    25   20   19 1    
    26   21   19 1    
    27   36   19 1    
    28   43   20 1    
    29   22   21 1    
    30   37   21 1    
    31   23   22 1    
    32   31   22 1    
    33   24   23 2    
    34   38   23 1    
    35   25   24 1    
    36   26   25 ar   
    37   31   25 ar   
    38   27   26 1    
    39   28   26 ar   
    40   39   27 1    
    41   40   27 1    
    42   29   28 ar   
    43   30   29 ar   
    44   41   29 1    
    45   31   30 ar   
@<TRIPOS>SUBSTRUCTURE
     1 ATP1754     1 GROUP   
@<TRIPOS>SET

