#    Name: 2qnv_CDZ_1_INTS_M
#    Modification time : Mon Mar 24 22:32:30 2014

@<TRIPOS>MOLECULE
2qnv_CDZ_1_INTS_M
   74     0     6     0     0
SMALL
NO_CHARGES


@<TRIPOS>ATOM
      1 CA         15.5275   17.0065   22.5030 C.3       2 GLC5        0.0000 
      2 CA         14.1340   17.9240   21.0720 C.3       6 GLL5        0.0000 
      3 CA         16.9210   16.0890   23.9340 C.3       4 GLP5        0.0000 
      4 CA         13.0290   21.5190   23.1845 C.3       2 GLC5        0.0000 
      5 CA         12.8750   20.0130   22.0870 C.3       6 GLL5        0.0000 
      6 CA         13.1830   23.0250   24.2820 C.3       4 GLP5        0.0000 
      7 CA         12.9305   20.1470   20.3005 C.3       2 GLC5        0.0000 
      8 CA         12.9860   20.2810   18.5140 C.3       4 GLP5        0.0000 
      9 CA         12.4215   21.8985   21.3205 C.3       2 GLC5        0.0000 
     10 CA         11.9680   23.7840   20.5540 C.3       4 GLP5        0.0000 
     11 CA          9.8695   16.8475   18.8995 C.3       2 GLC5        0.0000 
     12 CA         11.3890   16.9020   20.3640 C.3       6 GLL5        0.0000 
     13 CA          8.3500   16.7930   17.4350 C.3       4 GLP5        0.0000 
     14 CA          8.9870   16.0850   19.3670 C.3       2 GLC5        0.0000 
     15 CA          9.6240   15.3770   21.2990 C.3       6 GLL5        0.0000 
     16 CA          9.6815   14.1615   24.3190 C.3       2 GLC5        0.0000 
     17 CA          9.3250   14.3250   22.1620 C.3       6 GLL5        0.0000 
     18 CA         10.0380   13.9980   26.4760 C.3       4 GLP5        0.0000 
     19 CA          8.2655   12.2620   19.3065 C.3       2 GLC5        0.0000 
     20 CA          7.7220   13.0780   20.6350 C.3       6 GLL5        0.0000 
     21 CA          8.8090   11.4460   17.9780 C.3       4 GLP5        0.0000 
     22 CA          8.9060   12.4040   24.9480 C.3       2 GLC5        0.0000 
     23 CA          8.3100   12.1980   23.0590 C.3       6 GLL5        0.0000 
     24 CA          9.5020   12.6100   26.8370 C.3       4 GLP5        0.0000 
     25 CA          6.9450   11.3285   24.4525 C.3       2 GLC5        0.0000 
     26 CA          5.5800   10.4590   25.8460 C.3       4 GLP5        0.0000 
     27 CA          6.2800   12.9745   23.3425 C.3       2 GLC5        0.0000 
     28 CA          4.2500   13.7510   23.6260 C.3       4 GLP5        0.0000 
     29 N          12.0695   14.5050   18.2960 N.am      1 SEC2        0.0000 
     30 N          11.4650   14.0760   19.4410 N.am      5 SEL2        0.0000 
     31 N          12.6740   14.9340   17.1510 N.am      3 SEP2        0.0000 
     32 CA         13.4185   13.8675   17.1230 C.3       2 GLC5        0.0000 
     33 CA         14.5310   12.4750   18.3830 C.3       6 GLL5        0.0000 
     34 CA         12.3060   15.2600   15.8630 C.3       4 GLP5        0.0000 
     35 CA         14.4960   11.3905   16.7955 C.3       2 GLC5        0.0000 
     36 CA         14.4610   10.3060   15.2080 C.3       4 GLP5        0.0000 
     37 CA         13.7330   10.5135   17.2895 C.3       2 GLC5        0.0000 
     38 CA         13.0050   10.7210   19.3710 C.3       6 GLL5        0.0000 
     39 CA         13.7420    9.1480   19.5580 C.3       2 GLC5        0.0000 
     40 CA         14.4790    7.5750   19.7450 C.3       4 GLP5        0.0000 
     41 CA         14.9010   14.1170   23.7820 C.3       2 GLC5        0.0000 
     42 CA         13.3510   14.3660   22.5720 C.3       6 GLL5        0.0000 
     43 CA         16.4510   13.8680   24.9920 C.3       4 GLP5        0.0000 
     44 CA         11.7580   15.0230   25.4675 C.3       2 GLC5        0.0000 
     45 CA         13.4780   16.0480   24.4590 C.3       6 GLL5        0.0000 
     46 CA         14.0260   18.0355   27.5925 C.3       2 GLC5        0.0000 
     47 CA         12.4560   17.5200   26.1910 C.3       6 GLL5        0.0000 
     48 CA         15.5960   18.5510   28.9940 C.3       4 GLP5        0.0000 
     49 CA         14.4555   16.3840   27.7810 C.3       2 GLC5        0.0000 
     50 CA         12.6670   16.5140   27.3250 C.3       6 GLL5        0.0000 
     51 CA         16.2440   16.2540   28.2370 C.3       4 GLP5        0.0000 
     52 CA         11.8080   15.5210   28.1750 C.3       2 GLC5        0.0000 
     53 CA         10.9490   14.5280   29.0250 C.3       4 GLP5        0.0000 
     54 CA         11.8380   17.2665   29.0655 C.3       2 GLC5        0.0000 
     55 CA         11.0090   18.0190   30.8060 C.3       4 GLP5        0.0000 
     56 CA         10.6190   20.0450   25.8970 C.3       2 GLC5        0.0000 
     57 CA         11.7930   18.8660   26.4920 C.3       6 GLL5        0.0000 
     58 CA          9.4450   21.2240   25.3020 C.3       4 GLP5        0.0000 
     59 CA         12.5480   20.6600   26.7755 C.3       2 GLC5        0.0000 
     60 CA         13.3030   22.4540   27.0590 C.3       4 GLP5        0.0000 
     61 CA         11.9400   19.5555   28.4055 C.3       2 GLC5        0.0000 
     62 CA         12.0870   20.2450   30.3190 C.3       4 GLP5        0.0000 
     63 CA         13.2333   19.2870   19.8672 C.3       2 GLC5        0.0000 
     64 CA         12.8270   18.6620   21.3690 C.3       6 GLL5        0.0000 
     65 CA         12.2400   18.8955   19.5998 C.3       2 GLC5        0.0000 
     66 CA         11.5990   18.1180   21.0070 C.3       6 GLL5        0.0000 
     67 CA          9.2323   11.3175   21.0563 C.3       2 GLC5        0.0000 
     68 CA          8.4790   13.2420   21.9540 C.3       6 GLL5        0.0000 
     69 CA         10.0700    9.9150   19.6060 C.3       4 GLP5        0.0000 
     70 CA         11.6212   10.6910   19.4728 C.3       2 GLC5        0.0000 
     71 CA         14.9610   16.2899   24.1509 C.3       2 GLC5        0.0000 
     72 CA         12.7880   15.4710   23.2200 C.3       6 GLL5        0.0000 
     73 CA         10.9902   16.6945   27.0762 C.3       2 GLC5        0.0000 
     74 CA          9.8560   15.1960   27.8110 C.3       4 GLP5        0.0000 
@<TRIPOS>BOND
@<TRIPOS>SUBSTRUCTURE
     1 SEC2       29 GROUP        1 X    SEC  0     ROOT SEC X 2
     2 GLC5        1 GROUP        1 X    GLC  0     **** GLC X 6
     3 SEP2       31 GROUP        1 Y    SEP  0     ROOT SEP Y 9
     4 GLP5        3 GROUP        1 Y    GLP  0     **** GLP Y 13
     5 SEL2       30 GROUP        1 Z    SEL  0     ROOT SEL Z 16
     6 GLL5        2 GROUP        1 Z    GLL  0     **** GLL Z 20
@<TRIPOS>SET

