#    Name: 2qnv_CDZ_1_ligand
#    Modification time : Mon Mar 24 22:32:30 2014

@<TRIPOS>MOLECULE
2qnv_CDZ_1_ligand
   64    64     1     0     0
SMALL
NO_CHARGES


@<TRIPOS>ATOM
      1 CAC        14.1340   17.9240   21.0720 C.3       1 CDZ1        0.0000 
      2 CAT        12.8270   18.6620   21.3690 C.2       1 CDZ1        0.0000 
      3 CAD        12.8750   20.0130   22.0870 C.3       1 CDZ1        0.0000 
      4 CAN        11.5990   18.1180   21.0070 C.2       1 CDZ1        0.0000 
      5 CAQ        11.3890   16.9020   20.3640 C.3       1 CDZ1        0.0000 
      6 CBC        11.1220   15.7050   21.2870 C.3       1 CDZ1        0.0000 
      7 CAR         9.6240   15.3770   21.2990 C.3       1 CDZ1        0.0000 
      8 CAO         9.3250   14.3250   22.1620 C.2       1 CDZ1        0.0000 
      9 CAU         8.4790   13.2420   21.9540 C.2       1 CDZ1        0.0000 
     10 CAF         7.7220   13.0780   20.6350 C.3       1 CDZ1        0.0000 
     11 CAE         8.3100   12.1980   23.0590 C.3       1 CDZ1        0.0000 
     12 CAW        11.5840   15.9600   22.7280 C.2       1 CDZ1        0.0000 
     13 OAJ        10.8360   16.5900   23.4820 O.3       1 CDZ1        0.0000 
     14 CAY        11.8590   14.5150   20.6670 C.2       1 CDZ1        0.0000 
     15 OAL        11.4650   14.0760   19.4410 O.2       1 CDZ1        0.0000 
     16 CBA        12.9250   13.9070   21.3320 C.2       1 CDZ1        0.0000 
     17 CAV        13.6880   12.7330   20.7050 C.2       1 CDZ1        0.0000 
     18 OAI        14.6200   12.2210   21.3220 O.2       1 CDZ1        0.0000 
     19 CBB        13.3400   12.2130   19.3080 C.3       1 CDZ1        0.0000 
     20 CAH        14.5310   12.4750   18.3830 C.3       1 CDZ1        0.0000 
     21 CAG        13.0050   10.7210   19.3710 C.3       1 CDZ1        0.0000 
     22 CAX        13.3510   14.3660   22.5720 C.2       1 CDZ1        0.0000 
     23 OAK        14.3660   13.7090   23.1920 O.co2     1 CDZ1        0.0000 
     24 CAZ        12.7880   15.4710   23.2200 C.2       1 CDZ1        0.0000 
     25 CAP        13.4780   16.0480   24.4590 C.3       1 CDZ1        0.0000 
     26 CAM        12.8690   17.2220   24.8960 C.2       1 CDZ1        0.0000 
     27 CAS        12.4560   17.5200   26.1910 C.2       1 CDZ1        0.0000 
     28 CAB        12.6670   16.5140   27.3250 C.3       1 CDZ1        0.0000 
     29 CAA        11.7930   18.8660   26.4920 C.3       1 CDZ1        0.0000 
     30 H          10.7248   18.6945   21.2480 H         1 CDZ1        0.0000 
     31 H          12.2613   16.6128   19.7157 H         1 CDZ1        0.0000 
     32 H          10.5227   16.9487   19.6483 H         1 CDZ1        0.0000 
     33 H           9.3351   15.1586   20.2498 H         1 CDZ1        0.0000 
     34 H           9.0930   16.3126   21.5726 H         1 CDZ1        0.0000 
     35 H           9.8228   14.3566   23.1321 H         1 CDZ1        0.0000 
     36 H          12.4894   12.7546   18.9428 H         1 CDZ1        0.0000 
     37 H          14.5447   16.1992   24.1923 H         1 CDZ1        0.0000 
     38 H          13.4671   15.2528   25.2331 H         1 CDZ1        0.0000 
     39 H          12.6995   17.9814   24.1501 H         1 CDZ1        0.0000 
     40 H          14.7434   18.4661   20.4934 H         1 CDZ1        0.0000 
     41 H          14.6380   17.7098   21.9087 H         1 CDZ1        0.0000 
     42 H          13.9724   17.0587   20.5976 H         1 CDZ1        0.0000 
     43 H          13.2986   19.9389   22.9898 H         1 CDZ1        0.0000 
     44 H          13.4008   20.6893   21.5711 H         1 CDZ1        0.0000 
     45 H          11.9605   20.3941   22.2227 H         1 CDZ1        0.0000 
     46 H           8.3446   13.0099   19.8554 H         1 CDZ1        0.0000 
     47 H           7.1565   12.2533   20.6314 H         1 CDZ1        0.0000 
     48 H           7.1135   13.8514   20.4574 H         1 CDZ1        0.0000 
     49 H           9.1783   11.7604   23.2924 H         1 CDZ1        0.0000 
     50 H           7.9501   12.6022   23.8999 H         1 CDZ1        0.0000 
     51 H           7.6785   11.4710   22.7896 H         1 CDZ1        0.0000 
     52 H          15.3573   12.0099   18.7007 H         1 CDZ1        0.0000 
     53 H          14.3550   12.1563   17.4516 H         1 CDZ1        0.0000 
     54 H          14.7476   13.4494   18.3234 H         1 CDZ1        0.0000 
     55 H          13.7718   10.1826   19.7204 H         1 CDZ1        0.0000 
     56 H          12.2238   10.5407   19.9687 H         1 CDZ1        0.0000 
     57 H          12.7754   10.3535   18.4697 H         1 CDZ1        0.0000 
     58 H          13.6348   16.2985   27.4550 H         1 CDZ1        0.0000 
     59 H          12.3242   16.8611   28.1979 H         1 CDZ1        0.0000 
     60 H          12.1956   15.6501   27.1476 H         1 CDZ1        0.0000 
     61 H          12.3965   19.6337   26.2764 H         1 CDZ1        0.0000 
     62 H          10.9549   18.9940   25.9617 H         1 CDZ1        0.0000 
     63 H          11.5449   18.9502   27.4571 H         1 CDZ1        0.0000 
     64 H          11.2277   17.5091   23.5263 H         1 CDZ1        0.0000 
@<TRIPOS>BOND
     1    2    1 1    
     2   40    1 1    
     3   41    1 1    
     4   42    1 1    
     5    3    2 1    
     6    4    2 2    
     7   43    3 1    
     8   44    3 1    
     9   45    3 1    
    10    5    4 1    
    11   30    4 1    
    12    6    5 1    
    13   31    5 1    
    14   32    5 1    
    15    7    6 1    
    16   12    6 1    
    17   14    6 1    
    18    8    7 1    
    19   33    7 1    
    20   34    7 1    
    21    9    8 2    
    22   35    8 1    
    23   10    9 1    
    24   11    9 1    
    25   46   10 1    
    26   47   10 1    
    27   48   10 1    
    28   49   11 1    
    29   50   11 1    
    30   51   11 1    
    31   13   12 1    
    32   24   12 2    
    33   64   13 1    
    34   15   14 2    
    35   16   14 1    
    36   17   16 1    
    37   22   16 2    
    38   18   17 2    
    39   19   17 1    
    40   20   19 1    
    41   21   19 1    
    42   36   19 1    
    43   52   20 1    
    44   53   20 1    
    45   54   20 1    
    46   55   21 1    
    47   56   21 1    
    48   57   21 1    
    49   23   22 1    
    50   24   22 1    
    51   25   24 1    
    52   26   25 1    
    53   37   25 1    
    54   38   25 1    
    55   27   26 2    
    56   39   26 1    
    57   28   27 1    
    58   29   27 1    
    59   58   28 1    
    60   59   28 1    
    61   60   28 1    
    62   61   29 1    
    63   62   29 1    
    64   63   29 1    
@<TRIPOS>SUBSTRUCTURE
     1 CDZ1        1 GROUP   
@<TRIPOS>SET

