#    Name: 4djq_M86_1_INTS_M
#    Modification time : Mon Apr  7 22:47:32 2014

@<TRIPOS>MOLECULE
4djq_M86_1_INTS_M
   87     0     9     0     0
SMALL
NO_CHARGES


@<TRIPOS>ATOM
      1 CA        -10.1040   -2.0165  -15.3565 C.3       3 GLC5        0.0000 
      2 CA         -9.2550   -3.7150  -16.4510 C.3       9 GLL5        0.0000 
      3 CA        -10.9530   -0.3180  -14.2620 C.3       6 GLP5        0.0000 
      4 CA         -9.9910   -7.8340  -15.6325 C.3       3 GLC5        0.0000 
      5 CA         -8.7710   -6.4470  -16.6910 C.3       9 GLL5        0.0000 
      6 CA        -11.2110   -9.2210  -14.5740 C.3       6 GLP5        0.0000 
      7 CA         -8.9830   -4.1790  -18.7465 C.3       3 GLC5        0.0000 
      8 CA         -9.7520   -5.8520  -17.4840 C.3       9 GLL5        0.0000 
      9 CA         -8.2140   -2.5060  -20.0090 C.3       6 GLP5        0.0000 
     10 CA        -11.0480   -6.4095  -15.8675 C.3       3 GLC5        0.0000 
     11 CA        -12.3440   -6.9670  -14.2510 C.3       6 GLP5        0.0000 
     12 N         -10.9575   -5.8320  -19.8090 N.am      2 SEC2        0.0000 
     13 N         -10.4760   -6.5740  -18.4060 N.am      8 SEL2        0.0000 
     14 N         -11.4390   -5.0900  -21.2120 N.am      5 SEP2        0.0000 
     15 CA         -9.5950   -7.3635  -20.4355 C.3       3 GLC5        0.0000 
     16 CA        -10.0910   -7.9340  -18.6570 C.3       9 GLL5        0.0000 
     17 CA         -9.0990   -6.7930  -22.2140 C.3       6 GLP5        0.0000 
     18 CA        -11.7145   -7.1255  -19.4685 C.3       3 GLC5        0.0000 
     19 CA        -13.3380   -6.3170  -20.2800 C.3       6 GLP5        0.0000 
     20 CA        -11.1460   -8.8100  -17.1490 C.3       3 GLC5        0.0000 
     21 CA        -12.2010   -9.6860  -15.6410 C.3       6 GLP5        0.0000 
     22 CA         -4.0830   -5.0245  -13.5415 C.3       3 GLC5        0.0000 
     23 CA         -3.1840   -3.4540  -14.7870 C.3       9 GLL5        0.0000 
     24 CA         -4.9820   -6.5950  -12.2960 C.3       6 GLP5        0.0000 
     25 CA         -2.0375   -3.4990  -12.8630 C.3       3 GLC5        0.0000 
     26 CA         -0.8910   -3.5440  -10.9390 C.3       6 GLP5        0.0000 
     27 CA         -2.4765   -3.8360  -18.8990 C.3       3 GLC5        0.0000 
     28 CA         -3.0910   -4.4400  -17.1290 C.3       9 GLL5        0.0000 
     29 CA         -1.8620   -3.2320  -20.6690 C.3       6 GLP5        0.0000 
     30 CA         -1.2965   -3.3450  -17.1925 C.3       3 GLC5        0.0000 
     31 CA          0.4980   -2.2500  -17.2560 C.3       6 GLP5        0.0000 
     32 CA         -2.3740   -6.6760  -15.1245 C.3       3 GLC5        0.0000 
     33 CA         -3.2490   -5.8830  -16.7340 C.3       9 GLL5        0.0000 
     34 CA         -1.4990   -7.4690  -13.5150 C.3       6 GLP5        0.0000 
     35 CA         -7.8355   -1.5835  -17.7615 C.3       3 GLC5        0.0000 
     36 CA         -6.3600   -1.5050  -16.1660 C.3       9 GLL5        0.0000 
     37 CA         -9.3110   -1.6620  -19.3570 C.3       6 GLP5        0.0000 
     38 N          -6.0500    1.2085  -17.7535 N.am      2 SEC2        0.0000 
     39 N          -5.5240    0.7600  -16.4640 N.am      8 SEL2        0.0000 
     40 N          -6.5760    1.6570  -19.0430 N.am      5 SEP2        0.0000 
     41 O          -4.6485    1.0885  -17.3635 O.2       1 ALC1        0.0000 
     42 O          -5.5240    0.7600  -16.4640 O.2       7 ALL1        0.0000 
     43 O          -3.7730    1.4170  -18.2630 O.2       4 ALP1        0.0000 
     44 O          -3.9930    0.3285  -16.9070 O.2       1 ALC1        0.0000 
     45 O          -2.4620   -0.1030  -17.3500 O.2       4 ALP1        0.0000 
     46 CA         -8.2870   -1.8380  -11.2295 C.3       3 GLC5        0.0000 
     47 CA         -7.8910    0.1330  -11.7350 C.3       9 GLL5        0.0000 
     48 CA         -8.6830   -3.8090  -10.7240 C.3       6 GLP5        0.0000 
     49 CA         -6.5530   -0.5900   -9.4640 C.3       3 GLC5        0.0000 
     50 CA         -8.1300    0.4240  -10.3920 C.3       9 GLL5        0.0000 
     51 CA         -4.9760   -1.6040   -8.5360 C.3       6 GLP5        0.0000 
     52 CA         -8.1810   -1.4450   -9.8565 C.3       3 GLC5        0.0000 
     53 CA         -8.2320   -3.3140   -9.3210 C.3       6 GLP5        0.0000 
     54 CA         -8.2020    3.6200  -13.3580 C.3       3 GLC5        0.0000 
     55 CA         -7.1550    2.3960  -12.0810 C.3       9 GLL5        0.0000 
     56 CA         -9.2490    4.8440  -14.6350 C.3       6 GLP5        0.0000 
     57 O          -5.0290    2.3525  -14.1495 O.2       1 ALC1        0.0000 
     58 O          -4.7520    0.8960  -13.6600 O.2       7 ALL1        0.0000 
     59 O          -5.3060    3.8090  -14.6390 O.2       4 ALP1        0.0000 
     60 CA         -1.7865    2.1615  -13.2860 C.3       3 GLC5        0.0000 
     61 CA         -2.0510    1.4940  -11.2680 C.3       9 GLL5        0.0000 
     62 CA         -1.5220    2.8290  -15.3040 C.3       6 GLP5        0.0000 
     63 CA         -1.2505   -0.3275  -11.2480 C.3       3 GLC5        0.0000 
     64 CA         -0.4500   -2.1490  -11.2280 C.3       6 GLP5        0.0000 
     65 CA         -2.1555    3.3960  -12.8350 C.3       3 GLC5        0.0000 
     66 CA         -1.7670    2.8880  -10.7090 C.3       9 GLL5        0.0000 
     67 CA         -2.5440    3.9040  -14.9610 C.3       6 GLP5        0.0000 
     68 N          -2.7680    5.3550  -12.6225 N.am      2 SEC2        0.0000 
     69 N          -3.7090    4.9140  -11.6540 N.am      8 SEL2        0.0000 
     70 N          -1.8270    5.7960  -13.5910 N.am      5 SEP2        0.0000 
     71 CA         -9.7335   -3.9635  -14.1690 C.3       3 GLC5        0.0000 
     72 CA         -8.2690   -4.2950  -15.6490 C.3       9 GLL5        0.0000 
     73 CA        -10.7050   -3.9220  -12.2880 C.3       6 GLP5        0.0000 
     74 CA         -9.4663   -2.8830  -18.1313 C.3       3 GLC5        0.0000 
     75 CA        -11.5449   -4.4610  -16.5619 C.3       3 GLC5        0.0000 
     76 CA         -9.9880   -4.4930  -17.3600 C.3       9 GLL5        0.0000 
     77 CA        -13.4030   -3.9440  -15.9290 C.3       6 GLP5        0.0000 
     78 CA         -9.3038    1.6427  -11.9215 C.3       3 GLC5        0.0000 
     79 CA         -7.4020    1.1200  -12.5850 C.3       9 GLL5        0.0000 
     80 CA        -10.9610    2.6590  -11.6830 C.3       6 GLP5        0.0000 
     81 CA         -9.2666    0.1144  -13.3938 C.3       3 GLC5        0.0000 
     82 CA         -9.2900    0.8333   -8.8232 C.3       3 GLC5        0.0000 
     83 CA        -10.5760    0.6070   -7.5050 C.3       6 GLP5        0.0000 
     84 CA         -9.4825    1.8592  -10.9123 C.3       3 GLC5        0.0000 
     85 CA         -7.8780    1.6950   -9.8910 C.3       9 GLL5        0.0000 
     86 CA         -9.1160    2.5985  -11.5463 C.3       3 GLC5        0.0000 
     87 CA         -7.3870    2.6800  -10.7380 C.3       9 GLL5        0.0000 
@<TRIPOS>BOND
@<TRIPOS>SUBSTRUCTURE
     1 ALC1       41 GROUP        1 X    ALC  0     ROOT ALC X 1
     2 SEC2       12 GROUP        1 X    SEC  0     **** SEC X 2
     3 GLC5        1 GROUP        1 X    GLC  0     **** GLC X 6
     4 ALP1       43 GROUP        1 Y    ALP  0     ROOT ALP Y 8
     5 SEP2       14 GROUP        1 Y    SEP  0     **** SEP Y 9
     6 GLP5        3 GROUP        1 Y    GLP  0     **** GLP Y 13
     7 ALL1       42 GROUP        1 Z    ALL  0     ROOT ALL Z 15
     8 SEL2       13 GROUP        1 Z    SEL  0     **** SEL Z 16
     9 GLL5        2 GROUP        1 Z    GLL  0     **** GLL Z 20
@<TRIPOS>SET

