#    Name: 4djq_M86_1_ligand
#    Modification time : Mon Apr  7 22:47:33 2014

@<TRIPOS>MOLECULE
4djq_M86_1_ligand
   80    82     1     0     0
SMALL
NO_CHARGES


@<TRIPOS>ATOM
      1 O10        -8.1590   -2.3030  -14.1170 O.2       1 M86200      0.0000 
      2 S8         -7.3710   -3.3730  -14.6280 S.o2      1 M86200      0.0000 
      3 O9         -6.7960   -4.2250  -13.6000 O.2       1 M86200      0.0000 
      4 C5         -8.2690   -4.2950  -15.6490 C.ar      1 M86200      0.0000 
      5 C6         -9.2550   -3.7150  -16.4510 C.ar      1 M86200      0.0000 
      6 C7         -9.9880   -4.4930  -17.3600 C.ar      1 M86200      0.0000 
      7 C4         -8.0450   -5.6690  -15.7850 C.ar      1 M86200      0.0000 
      8 C3         -8.7710   -6.4470  -16.6910 C.ar      1 M86200      0.0000 
      9 C2         -9.7520   -5.8520  -17.4840 C.ar      1 M86200      0.0000 
     10 O1        -10.4760   -6.5740  -18.4060 O.3       1 M86200      0.0000 
     11 C1        -10.0910   -7.9340  -18.6570 C.3       1 M86200      0.0000 
     12 N11        -6.0830   -2.7400  -15.3950 N.pl3     1 M86200      0.0000 
     13 C12        -5.3110   -3.7560  -16.1620 C.3       1 M86200      0.0000 
     14 C13        -3.8070   -3.4620  -16.1810 C.3       1 M86200      0.0000 
     15 C14        -3.1840   -3.4540  -14.7870 C.3       1 M86200      0.0000 
     16 C15        -3.0910   -4.4400  -17.1290 C.3       1 M86200      0.0000 
     17 C18        -3.2490   -5.8830  -16.7340 C.3       1 M86200      0.0000 
     18 C16        -6.3600   -1.5050  -16.1660 C.3       1 M86200      0.0000 
     19 C17        -5.4540   -0.3950  -15.6030 C.3       1 M86200      0.0000 
     20 O18        -5.5240    0.7600  -16.4640 O.3       1 M86200      0.0000 
     21 C19        -5.8100    0.0360  -14.1730 C.3       1 M86200      0.0000 
     22 C32        -7.1370    0.8010  -14.0470 C.3       1 M86200      0.0000 
     23 C38        -7.4020    1.1200  -12.5850 C.ar      1 M86200      0.0000 
     24 C37        -7.8910    0.1330  -11.7350 C.ar      1 M86200      0.0000 
     25 C36        -8.1300    0.4240  -10.3920 C.ar      1 M86200      0.0000 
     26 C35        -7.8780    1.6950   -9.8910 C.ar      1 M86200      0.0000 
     27 C34        -7.3870    2.6800  -10.7380 C.ar      1 M86200      0.0000 
     28 C33        -7.1550    2.3960  -12.0810 C.ar      1 M86200      0.0000 
     29 N20        -4.7520    0.8960  -13.6600 N.am      1 M86200      0.0000 
     30 C21        -3.8710    0.5570  -12.7310 C.2       1 M86200      0.0000 
     31 O22        -3.7370   -0.5290  -12.2020 O.2       1 M86200      0.0000 
     32 O23        -3.0190    1.6460  -12.3160 O.3       1 M86200      0.0000 
     33 C22        -2.0510    1.4940  -11.2680 C.3       1 M86200      0.0000 
     34 C23        -1.7670    2.8880  -10.7090 C.3       1 M86200      0.0000 
     35 N24        -2.9900    3.3650  -10.0260 N.am      1 M86200      0.0000 
     36 C25        -2.8470    3.6220   -8.5750 C.3       1 M86200      0.0000 
     37 C28        -3.7300    4.4840  -10.5130 C.2       1 M86200      0.0000 
     38 O29        -3.7090    4.9140  -11.6540 O.2       1 M86200      0.0000 
     39 N27        -4.4530    5.0010   -9.5320 N.am      1 M86200      0.0000 
     40 C26        -4.1350    4.3900   -8.2590 C.3       1 M86200      0.0000 
     41 H          -9.4479   -2.7060  -16.3763 H         1 M86200      0.0000 
     42 H         -10.7116   -4.0385  -17.9409 H         1 M86200      0.0000 
     43 H          -7.3196   -6.1227  -15.1967 H         1 M86200      0.0000 
     44 H          -8.5823   -7.4510  -16.7714 H         1 M86200      0.0000 
     45 H          -5.6688   -3.7963  -17.2017 H         1 M86200      0.0000 
     46 H          -5.4629   -4.7544  -15.7253 H         1 M86200      0.0000 
     47 H          -3.6796   -2.4506  -16.6139 H         1 M86200      0.0000 
     48 H          -2.0213   -4.1771  -17.1549 H         1 M86200      0.0000 
     49 H          -3.4858   -4.2882  -18.1464 H         1 M86200      0.0000 
     50 H          -7.3886   -1.2010  -16.0486 H         1 M86200      0.0000 
     51 H          -6.1255   -1.6428  -17.2101 H         1 M86200      0.0000 
     52 H          -4.4294   -0.7748  -15.5908 H         1 M86200      0.0000 
     53 H          -5.8742   -0.8544  -13.5515 H         1 M86200      0.0000 
     54 H          -7.9380    0.1857  -14.4380 H         1 M86200      0.0000 
     55 H          -7.0702    1.7204  -14.6156 H         1 M86200      0.0000 
     56 H          -8.0767   -0.8113  -12.0953 H         1 M86200      0.0000 
     57 H          -8.4963   -0.3111   -9.7686 H         1 M86200      0.0000 
     58 H          -8.0534    1.9043   -8.9024 H         1 M86200      0.0000 
     59 H          -7.1936    3.6231  -10.3733 H         1 M86200      0.0000 
     60 H          -6.7986    3.1328  -12.7068 H         1 M86200      0.0000 
     61 H          -4.7281    1.8682  -14.1015 H         1 M86200      0.0000 
     62 H          -1.1172    1.0822  -11.6362 H         1 M86200      0.0000 
     63 H          -2.4249    0.8763  -10.4583 H         1 M86200      0.0000 
     64 H          -1.5055    3.5448  -11.5288 H         1 M86200      0.0000 
     65 H          -0.9408    2.8218  -10.0127 H         1 M86200      0.0000 
     66 H          -2.0151    4.2459   -8.3768 H         1 M86200      0.0000 
     67 H          -2.8400    2.7176   -8.0249 H         1 M86200      0.0000 
     68 H          -5.1268    5.7017   -9.5900 H         1 M86200      0.0000 
     69 H          -3.9210    5.1155   -7.5103 H         1 M86200      0.0000 
     70 H          -4.8786    3.6922   -7.9542 H         1 M86200      0.0000 
     71 H          -9.1514   -7.9980  -18.9933 H         1 M86200      0.0000 
     72 H         -10.1452   -8.4940  -17.8302 H         1 M86200      0.0000 
     73 H         -10.6776   -8.3656  -19.3423 H         1 M86200      0.0000 
     74 H          -2.2033   -3.2614  -14.8196 H         1 M86200      0.0000 
     75 H          -3.5995   -2.7605  -14.1985 H         1 M86200      0.0000 
     76 H          -3.2946   -4.3343  -14.3257 H         1 M86200      0.0000 
     77 H          -2.7743   -6.4953  -17.3663 H         1 M86200      0.0000 
     78 H          -2.8804   -6.0608  -15.8216 H         1 M86200      0.0000 
     79 H          -4.2093   -6.1617  -16.7216 H         1 M86200      0.0000 
     80 H          -4.6181    0.8262  -16.8822 H         1 M86200      0.0000 
@<TRIPOS>BOND
     1    2    1 2    
     2    3    2 2    
     3    4    2 1    
     4   12    2 1    
     5    5    4 ar   
     6    7    4 ar   
     7    6    5 ar   
     8   41    5 1    
     9    9    6 ar   
    10   42    6 1    
    11    8    7 ar   
    12   43    7 1    
    13    9    8 ar   
    14   44    8 1    
    15   10    9 1    
    16   11   10 1    
    17   71   11 1    
    18   72   11 1    
    19   73   11 1    
    20   13   12 1    
    21   18   12 1    
    22   14   13 1    
    23   45   13 1    
    24   46   13 1    
    25   15   14 1    
    26   16   14 1    
    27   47   14 1    
    28   74   15 1    
    29   75   15 1    
    30   76   15 1    
    31   17   16 1    
    32   48   16 1    
    33   49   16 1    
    34   77   17 1    
    35   78   17 1    
    36   79   17 1    
    37   19   18 1    
    38   50   18 1    
    39   51   18 1    
    40   20   19 1    
    41   21   19 1    
    42   52   19 1    
    43   80   20 1    
    44   22   21 1    
    45   29   21 1    
    46   53   21 1    
    47   23   22 1    
    48   54   22 1    
    49   55   22 1    
    50   24   23 ar   
    51   28   23 ar   
    52   25   24 ar   
    53   56   24 1    
    54   26   25 ar   
    55   57   25 1    
    56   27   26 ar   
    57   58   26 1    
    58   28   27 ar   
    59   59   27 1    
    60   60   28 1    
    61   30   29 am   
    62   61   29 1    
    63   31   30 2    
    64   32   30 1    
    65   33   32 1    
    66   34   33 1    
    67   62   33 1    
    68   63   33 1    
    69   35   34 1    
    70   64   34 1    
    71   65   34 1    
    72   36   35 1    
    73   37   35 am   
    74   40   36 1    
    75   66   36 1    
    76   67   36 1    
    77   38   37 2    
    78   39   37 am   
    79   40   39 1    
    80   68   39 1    
    81   69   40 1    
    82   70   40 1    
@<TRIPOS>SUBSTRUCTURE
     1 M86200      1 GROUP   
@<TRIPOS>SET

