#    Name: 4but_31F_1_INTS_M
#    Modification time : Tue Mar 25 08:25:17 2014

@<TRIPOS>MOLECULE
4but_31F_1_INTS_M
   41     0     9     0     0
SMALL
NO_CHARGES


@<TRIPOS>ATOM
      1 CA        -36.7380   -9.8220    7.9225 C.3       3 GLC5        0.0000 
      2 CA        -38.6540   -9.9170    8.7460 C.3       9 GLL5        0.0000 
      3 CA        -34.8220   -9.7270    7.0990 C.3       6 GLP5        0.0000 
      4 CA        -39.5455  -15.5285   16.4060 C.3       3 GLC5        0.0000 
      5 CA        -41.0450  -14.2980   15.6510 C.3       9 GLL5        0.0000 
      6 CA        -38.0460  -16.7590   17.1610 C.3       6 GLP5        0.0000 
      7 CA        -41.1335  -14.4580   18.2710 C.3       3 GLC5        0.0000 
      8 CA        -40.3030  -13.5770   16.5940 C.3       9 GLL5        0.0000 
      9 CA        -41.9640  -15.3390   19.9480 C.3       6 GLP5        0.0000 
     10 CA        -40.3035  -10.8815   17.0440 C.3       3 GLC5        0.0000 
     11 CA        -39.4360  -12.5560   16.1780 C.3       9 GLL5        0.0000 
     12 CA        -41.1710   -9.2070   17.9100 C.3       6 GLP5        0.0000 
     13 CA        -37.2120  -12.5100   16.3585 C.3       3 GLC5        0.0000 
     14 CA        -34.9880  -12.4640   16.5390 C.3       6 GLP5        0.0000 
     15 O         -37.2370  -10.3425   12.4685 O.2       1 ALC1        0.0000 
     16 O         -38.3420  -11.0340   12.9520 O.2       7 ALL1        0.0000 
     17 O         -36.1320   -9.6510   11.9850 O.2       4 ALP1        0.0000 
     18 N         -36.5085   -9.6835   14.7590 N.am      2 SEC2        0.0000 
     19 N         -37.6080  -10.5340   15.0070 N.am      8 SEL2        0.0000 
     20 N         -35.4090   -8.8330   14.5110 N.am      5 SEP2        0.0000 
     21 N         -36.9720  -10.6250   16.2995 N.am      2 SEC2        0.0000 
     22 N         -36.3360  -10.7160   17.5920 N.am      5 SEP2        0.0000 
     23 CA        -37.2480   -8.7242    9.5918 C.3       3 GLC5        0.0000 
     24 CA        -38.6140  -10.2160   10.1270 C.3       9 GLL5        0.0000 
     25 CA        -35.8620   -7.3820    9.7470 C.3       6 GLP5        0.0000 
     26 CA        -37.2223  -11.9127   10.9328 C.3       3 GLC5        0.0000 
     27 CA        -35.5970  -12.9890   11.4900 C.3       6 GLP5        0.0000 
     28 CA        -41.5183  -12.2465    9.1650 C.3       3 GLC5        0.0000 
     29 CA        -39.6950  -12.3150    9.7030 C.3       9 GLL5        0.0000 
     30 CA        -43.3300  -12.3360    9.3070 C.3       6 GLP5        0.0000 
     31 CA        -39.3498  -13.7085    7.7480 C.3       3 GLC5        0.0000 
     32 CA        -38.9930  -15.2600    6.4730 C.3       6 GLP5        0.0000 
     33 CA        -41.6658  -12.4085   14.1250 C.3       3 GLC5        0.0000 
     34 CA        -40.0550  -13.0330   13.8380 C.3       9 GLL5        0.0000 
     35 CA        -42.8550  -11.2820   14.1890 C.3       6 GLP5        0.0000 
     36 CA        -41.7645  -12.6098   15.1558 C.3       3 GLC5        0.0000 
     37 CA        -39.1878  -12.7748   18.1455 C.3       3 GLC5        0.0000 
     38 CA        -38.5060  -12.4830   19.9050 C.3       6 GLP5        0.0000 
     39 CA        -38.9337  -14.3723   17.3170 C.3       3 GLC5        0.0000 
     40 CA        -37.9980  -15.6780   18.2480 C.3       6 GLP5        0.0000 
     41 CA        -41.1103  -11.8438   14.8465 C.3       3 GLC5        0.0000 
@<TRIPOS>BOND
@<TRIPOS>SUBSTRUCTURE
     1 ALC1       15 GROUP        1 X    ALC  0     ROOT ALC X 1
     2 SEC2       18 GROUP        1 X    SEC  0     **** SEC X 2
     3 GLC5        1 GROUP        1 X    GLC  0     **** GLC X 6
     4 ALP1       17 GROUP        1 Y    ALP  0     ROOT ALP Y 8
     5 SEP2       20 GROUP        1 Y    SEP  0     **** SEP Y 9
     6 GLP5        3 GROUP        1 Y    GLP  0     **** GLP Y 13
     7 ALL1       16 GROUP        1 Z    ALL  0     ROOT ALL Z 15
     8 SEL2       19 GROUP        1 Z    SEL  0     **** SEL Z 16
     9 GLL5        2 GROUP        1 Z    GLL  0     **** GLL Z 20
@<TRIPOS>SET

