#    Name: 4but_31F_1_ligand
#    Modification time : Tue Mar 25 08:25:17 2014

@<TRIPOS>MOLECULE
4but_31F_1_ligand
   32    34     1     0     0
SMALL
NO_CHARGES


@<TRIPOS>ATOM
      1 OAB       -40.1380  -11.3740    5.5000 O.2       1 31F3165     0.0000 
      2 OAD       -37.9760  -10.6040    5.6600 O.2       1 31F3165     0.0000 
      3 CAE       -39.2210  -10.8020    7.8410 C.ar      1 31F3165     0.0000 
      4 CAJ       -38.6540   -9.9170    8.7460 C.ar      1 31F3165     0.0000 
      5 CAI       -38.6140  -10.2160   10.1270 C.ar      1 31F3165     0.0000 
      6 CAF       -39.7180  -11.9990    8.3430 C.ar      1 31F3165     0.0000 
      7 CAG       -39.6950  -12.3150    9.7030 C.ar      1 31F3165     0.0000 
      8 CAH       -39.0810  -11.4570   10.6240 C.ar      1 31F3165     0.0000 
      9 CAK       -39.0930  -11.7600   12.0880 C.2       1 31F3165     0.0000 
     10 CAT       -40.0550  -13.0330   13.8380 C.ar      1 31F3165     0.0000 
     11 CAS       -40.8980  -14.0370   14.2840 C.ar      1 31F3165     0.0000 
     12 CAR       -41.0450  -14.2980   15.6510 C.ar      1 31F3165     0.0000 
     13 CAQ       -40.3030  -13.5770   16.5940 C.ar      1 31F3165     0.0000 
     14 CAP       -39.4360  -12.5560   16.1780 C.ar      1 31F3165     0.0000 
     15 CAO       -39.2950  -12.2550   14.8300 C.ar      1 31F3165     0.0000 
     16 CAM       -38.3560  -11.2270   14.2690 C.2       1 31F3165     0.0000 
     17 N1        -38.3420  -11.0340   12.9520 N.am      1 31F3165     0.0000 
     18 N         -39.8340   -8.9620    6.0900 N.pl3     1 31F3165     0.0000 
     19 OAN       -37.6080  -10.5340   15.0070 O.2       1 31F3165     0.0000 
     20 N         -39.9410  -12.7270   12.5280 N.2       1 31F3165     0.0000 
     21 S         -39.2790  -10.4690    6.2240 S.o2      1 31F3165     0.0000 
     22 H         -38.2527   -9.0249    8.4182 H         1 31F3165     0.0000 
     23 H         -38.2385   -9.5191   10.7847 H         1 31F3165     0.0000 
     24 H         -40.1271  -12.6943    7.6761 H         1 31F3165     0.0000 
     25 H         -40.1330  -13.1865   10.0336 H         1 31F3165     0.0000 
     26 H         -41.4291  -14.6054   13.6025 H         1 31F3165     0.0000 
     27 H         -41.7021  -15.0239   15.9649 H         1 31F3165     0.0000 
     28 H         -40.3928  -13.7951   17.5925 H         1 31F3165     0.0000 
     29 H         -38.9017  -12.0282   16.8839 H         1 31F3165     0.0000 
     30 H         -37.7134  -10.2745   12.5473 H         1 31F3165     0.0000 
     31 H         -39.2761   -8.2483    6.5136 H         1 31F3165     0.0000 
     32 H         -40.6949   -8.8527    5.5932 H         1 31F3165     0.0000 
@<TRIPOS>BOND
     1   21    1 2    
     2   21    2 2    
     3    4    3 ar   
     4    6    3 ar   
     5   21    3 1    
     6    5    4 ar   
     7   22    4 1    
     8    8    5 ar   
     9   23    5 1    
    10    7    6 ar   
    11   24    6 1    
    12    8    7 ar   
    13   25    7 1    
    14    9    8 1    
    15   17    9 1    
    16   20    9 2    
    17   11   10 ar   
    18   15   10 ar   
    19   20   10 1    
    20   12   11 ar   
    21   26   11 1    
    22   13   12 ar   
    23   27   12 1    
    24   14   13 ar   
    25   28   13 1    
    26   15   14 ar   
    27   29   14 1    
    28   16   15 1    
    29   17   16 am   
    30   19   16 2    
    31   30   17 1    
    32   21   18 1    
    33   31   18 1    
    34   32   18 1    
@<TRIPOS>SUBSTRUCTURE
     1 31F3165     1 GROUP   
@<TRIPOS>SET

