#    Name: 1W1V_2_CAVITY_N1_6.mol2
#    Modification time : Mon Mar 10 15:01:13 2014

@<TRIPOS>MOLECULE
1W1V_2_CAVITY_N1_6.mol2
  138     0     6     0     0
SMALL
NO_CHARGES


@<TRIPOS>ATOM
      1 OG         45.9510   72.6369   51.2280 O.2       1 SER1        0.0000 
      2 CZ         45.4953   73.1150   52.5748 C.ar      4 PHE5        0.0000 
      3 CA         45.0396   73.5931   53.9215 C.3       5 GLY6        0.0000 
      4 NZ         44.5839   74.0712   55.2683 N.2       3 LYS4        0.0000 
      5 CA         44.9187   73.5044   50.5708 C.3       5 GLY6        0.0000 
      6 CA         44.4630   73.9824   51.9175 C.3       5 GLY6        0.0000 
      7 CA         44.0073   74.4605   53.2643 C.3       5 GLY6        0.0000 
      8 NZ         43.5516   74.9386   54.6111 N.2       3 LYS4        0.0000 
      9 CZ         43.4307   74.8498   51.2603 C.ar      4 PHE5        0.0000 
     10 NZ         42.9750   75.3279   52.6071 N.2       3 LYS4        0.0000 
     11 CZ         42.3984   75.7173   50.6031 C.ar      4 PHE5        0.0000 
     12 CZ         41.9427   76.1953   51.9499 C.ar      4 PHE5        0.0000 
     13 CZ         52.7102   73.1137   58.3579 C.ar      4 PHE5        0.0000 
     14 O          52.1336   73.5030   56.3540 O.2       2 ALA2        0.0000 
     15 CZ         51.6779   73.9811   57.7007 C.ar      4 PHE5        0.0000 
     16 O          52.0127   73.4143   53.0032 O.2       2 ALA2        0.0000 
     17 O          51.1013   74.3704   55.6967 O.2       2 ALA2        0.0000 
     18 O          50.6456   74.8485   57.0435 O.2       2 ALA2        0.0000 
     19 CA         51.4362   73.8036   50.9992 C.3       5 GLY6        0.0000 
     20 O          50.9804   74.2817   52.3460 O.2       2 ALA2        0.0000 
     21 O          50.5247   74.7597   53.6927 O.2       2 ALA2        0.0000 
     22 O          50.0690   75.2378   55.0395 O.2       2 ALA2        0.0000 
     23 DU         49.6133   75.7159   56.3863 H         6 CUB7        0.0000 
     24 O          50.8596   74.1929   48.9952 O.2       2 ALA2        0.0000 
     25 CA         50.4038   74.6710   50.3420 C.3       5 GLY6        0.0000 
     26 DU         49.9481   75.1491   51.6888 H         6 CUB7        0.0000 
     27 DU         49.4924   75.6272   53.0355 H         6 CUB7        0.0000 
     28 DU         49.0367   76.1052   54.3823 H         6 CUB7        0.0000 
     29 CA         48.5810   76.5833   55.7291 C.3       5 GLY6        0.0000 
     30 CA         48.1253   77.0614   57.0758 C.3       5 GLY6        0.0000 
     31 O          49.8273   75.0603   48.3380 O.2       2 ALA2        0.0000 
     32 O          49.3715   75.5384   49.6848 O.2       2 ALA2        0.0000 
     33 O          48.9158   76.0165   51.0315 O.2       2 ALA2        0.0000 
     34 DU         48.4601   76.4946   52.3783 H         6 CUB7        0.0000 
     35 DU         48.0044   76.9726   53.7251 H         6 CUB7        0.0000 
     36 CA         47.5487   77.4507   55.0718 C.3       5 GLY6        0.0000 
     37 CZ         47.8835   76.8839   50.3743 C.ar      4 PHE5        0.0000 
     38 CZ         47.4278   77.3620   51.7211 C.ar      4 PHE5        0.0000 
     39 DU         46.9721   77.8401   53.0678 H         6 CUB7        0.0000 
     40 CA         46.5164   78.3181   54.4146 C.3       5 GLY6        0.0000 
     41 CZ         46.3955   78.2294   51.0639 C.ar      4 PHE5        0.0000 
     42 DU         45.9398   78.7075   52.4106 H         6 CUB7        0.0000 
     43 CA         45.4841   79.1855   53.7574 C.3       5 GLY6        0.0000 
     44 CZ         44.9075   79.5749   51.7534 C.ar      4 PHE5        0.0000 
     45 O          44.4518   80.0530   53.1002 O.2       2 ALA2        0.0000 
     46 CZ         43.4195   80.9204   52.4429 C.ar      4 PHE5        0.0000 
     47 O          54.6099   73.2840   55.5989 O.2       2 ALA2        0.0000 
     48 O          54.1542   73.7621   56.9457 O.2       2 ALA2        0.0000 
     49 O          54.0333   73.6734   53.5949 O.2       2 ALA2        0.0000 
     50 O          53.5776   74.1514   54.9417 O.2       2 ALA2        0.0000 
     51 NZ         53.1219   74.6295   56.2885 N.2       3 LYS4        0.0000 
     52 NZ         52.6662   75.1076   57.6352 N.2       3 LYS4        0.0000 
     53 CA         53.0010   74.5408   52.9377 C.3       5 GLY6        0.0000 
     54 O          52.5453   75.0188   54.2845 O.2       2 ALA2        0.0000 
     55 NZ         52.0896   75.4969   55.6312 N.2       3 LYS4        0.0000 
     56 NZ         51.6339   75.9750   56.9780 N.2       3 LYS4        0.0000 
     57 CA         52.4244   74.9301   50.9337 C.3       5 GLY6        0.0000 
     58 CA         51.9687   75.4082   52.2805 C.3       5 GLY6        0.0000 
     59 DU         51.5130   75.8863   53.6273 H         6 CUB7        0.0000 
     60 O          55.5982   74.4105   55.5334 O.2       2 ALA2        0.0000 
     61 O          55.1425   74.8886   56.8802 O.2       2 ALA2        0.0000 
     62 CA         55.0216   74.7999   53.5295 C.3       5 GLY6        0.0000 
     63 NZ         54.5659   75.2780   54.8762 N.2       3 LYS4        0.0000 
     64 CA         53.9893   75.6673   52.8722 C.3       5 GLY6        0.0000 
     65 NZ         53.5336   76.1454   54.2190 N.2       3 LYS4        0.0000 
     66 CA         52.9570   76.5347   52.2150 C.3       5 GLY6        0.0000 
     67 DU         52.5013   77.0128   53.5618 H         6 CUB7        0.0000 
     68 NZ         52.0456   77.4909   54.9085 N.2       3 LYS4        0.0000 
     69 DU         51.9247   77.4021   51.5578 H         6 CUB7        0.0000 
     70 DU         51.0132   78.3583   54.2513 H         6 CUB7        0.0000 
     71 DU         47.9163   80.9605   52.2797 H         6 CUB7        0.0000 
     72 CZ         50.4479   72.6771   51.0647 C.ar      4 PHE5        0.0000 
     73 O          49.9922   73.1552   52.4115 O.2       2 ALA2        0.0000 
     74 O          49.0808   74.1113   55.1050 O.2       2 ALA2        0.0000 
     75 CZ         49.4156   73.5445   50.4075 C.ar      4 PHE5        0.0000 
     76 OG         48.9599   74.0226   51.7542 O.2       1 SER1        0.0000 
     77 O          48.5042   74.5006   53.1010 O.2       2 ALA2        0.0000 
     78 NZ         48.0484   74.9787   54.4478 N.2       3 LYS4        0.0000 
     79 DU         47.5927   75.4568   55.7945 H         6 CUB7        0.0000 
     80 O          47.9276   74.8900   51.0970 O.2       2 ALA2        0.0000 
     81 DU         47.4719   75.3680   52.4438 H         6 CUB7        0.0000 
     82 DU         47.0161   75.8461   53.7906 H         6 CUB7        0.0000 
     83 CA         46.5604   76.3242   55.1373 C.3       5 GLY6        0.0000 
     84 CZ         46.4395   76.2355   51.7866 C.ar      4 PHE5        0.0000 
     85 DU         45.9838   76.7135   53.1333 H         6 CUB7        0.0000 
     86 CA         45.5281   77.1916   54.4801 C.3       5 GLY6        0.0000 
     87 CZ         45.4072   77.1029   51.1293 C.ar      4 PHE5        0.0000 
     88 DU         44.9515   77.5809   52.4761 H         6 CUB7        0.0000 
     89 O          44.4958   78.0590   53.8229 O.2       2 ALA2        0.0000 
     90 CZ         43.9192   78.4484   51.8189 C.ar      4 PHE5        0.0000 
     91 O          43.4635   78.9264   53.1657 O.2       2 ALA2        0.0000 
     92 OG         47.9716   72.8960   51.8197 O.2       1 SER1        0.0000 
     93 NZ         47.5159   73.3741   53.1665 N.2       3 LYS4        0.0000 
     94 NZ         47.0602   73.8522   54.5133 N.2       3 LYS4        0.0000 
     95 NZ         46.6045   74.3303   55.8600 N.2       3 LYS4        0.0000 
     96 O          46.9393   73.7635   51.1625 O.2       2 ALA2        0.0000 
     97 NZ         46.4836   74.2415   52.5093 N.2       3 LYS4        0.0000 
     98 NZ         46.0279   74.7196   53.8560 N.2       3 LYS4        0.0000 
     99 CA         45.5722   75.1977   55.2028 C.3       5 GLY6        0.0000 
    100 CZ         45.4513   75.1089   51.8521 C.ar      4 PHE5        0.0000 
    101 DU         44.9956   75.5870   53.1988 H         6 CUB7        0.0000 
    102 CA         44.5399   76.0651   54.5456 C.3       5 GLY6        0.0000 
    103 CZ         44.4190   75.9764   51.1948 C.ar      4 PHE5        0.0000 
    104 DU         43.9633   76.4544   52.5416 H         6 CUB7        0.0000 
    105 O          43.5075   76.9325   53.8884 O.2       2 ALA2        0.0000 
    106 CZ         42.9310   77.3218   51.8844 C.ar      4 PHE5        0.0000 
    107 O          42.4752   77.7999   53.2311 O.2       2 ALA2        0.0000 
    108 NZ         54.9775   76.7938   52.8067 N.2       3 LYS4        0.0000 
    109 NZ         54.5218   77.2719   54.1535 N.2       3 LYS4        0.0000 
    110 CA         53.9452   77.6612   52.1495 C.3       5 GLY6        0.0000 
    111 NZ         53.4895   78.1393   53.4963 N.2       3 LYS4        0.0000 
    112 NZ         51.0573   76.3643   54.9740 N.2       3 LYS4        0.0000 
    113 NZ         50.6016   76.8424   56.3208 N.2       3 LYS4        0.0000 
    114 DU         50.9364   76.2756   51.6233 H         6 CUB7        0.0000 
    115 DU         50.0250   77.2317   54.3168 H         6 CUB7        0.0000 
    116 DU         49.9041   77.1430   50.9661 H         6 CUB7        0.0000 
    117 CA         48.5370   78.5772   55.0063 C.3       5 GLY6        0.0000 
    118 CZ         48.8718   78.0104   50.3088 C.ar      4 PHE5        0.0000 
    119 DU         48.4161   78.4885   51.6556 H         6 CUB7        0.0000 
    120 DU         47.5047   79.4446   54.3491 H         6 CUB7        0.0000 
    121 CZ         47.3838   79.3559   50.9984 C.ar      4 PHE5        0.0000 
    122 DU         46.9281   79.8340   52.3451 H         6 CUB7        0.0000 
    123 CA         46.4723   80.3121   53.6919 C.3       5 GLY6        0.0000 
    124 CZ         45.8958   80.7014   51.6879 C.ar      4 PHE5        0.0000 
    125 CA         45.4400   81.1795   53.0347 C.3       5 GLY6        0.0000 
    126 CZ         44.8634   81.5688   51.0307 C.ar      4 PHE5        0.0000 
    127 CZ         44.4077   82.0469   52.3775 C.ar      4 PHE5        0.0000 
    128 CA         43.9520   82.5250   53.7242 C.3       5 GLY6        0.0000 
    129 NZ         54.9335   78.7877   52.0840 N.2       3 LYS4        0.0000 
    130 OG         40.4219   73.4642   50.7341 O.2       1 SER1        0.0000 
    131 CA         39.9662   73.9423   52.0808 C.3       5 GLY6        0.0000 
    132 CA         43.4747   72.8559   51.9830 C.3       5 GLY6        0.0000 
    133 OG         42.4424   73.7233   51.3258 O.2       1 SER1        0.0000 
    134 CA         41.9867   74.2014   52.6726 C.3       5 GLY6        0.0000 
    135 CZ         41.4101   74.5907   50.6686 C.ar      4 PHE5        0.0000 
    136 NZ         40.9544   75.0688   52.0153 N.2       3 LYS4        0.0000 
    137 CZ         40.3778   75.4581   50.0114 C.ar      4 PHE5        0.0000 
    138 NZ         39.9221   75.9362   51.3581 N.2       3 LYS4        0.0000 
@<TRIPOS>BOND
@<TRIPOS>SUBSTRUCTURE
     1 SER1        1 GROUP   
     2 ALA2       14 GROUP   
     3 LYS4        4 GROUP   
     4 PHE5        2 GROUP   
     5 GLY6        3 GROUP   
     6 CUB7       23 GROUP   
@<TRIPOS>SET

