#    Name: 1w1v_ALJ_2_INTS_M
#    Modification time : Tue Mar 25 08:27:33 2014

@<TRIPOS>MOLECULE
1w1v_ALJ_2_INTS_M
   45     0     6     0     0
SMALL
NO_CHARGES


@<TRIPOS>ATOM
      1 N          43.3470   71.8050   50.5140 N.am      1 SEC2        0.0000 
      2 N          44.1480   72.8110   50.7890 N.am      5 SEL2        0.0000 
      3 N          42.5460   70.7990   50.2390 N.am      3 SEP2        0.0000 
      4 CA         40.2650   73.9000   49.2745 C.3       2 GLC5        0.0000 
      5 CA         41.3060   73.7940   51.0170 C.3       6 GLL5        0.0000 
      6 CA         39.2240   74.0060   47.5320 C.3       4 GLP5        0.0000 
      7 CA         41.7180   73.0005   52.6575 C.3       2 GLC5        0.0000 
      8 CA         42.1300   72.2070   54.2980 C.3       4 GLP5        0.0000 
      9 CA         40.2675   72.0070   50.1870 C.3       2 GLC5        0.0000 
     10 CA         39.2290   70.2200   49.3570 C.3       4 GLP5        0.0000 
     11 CA         42.3915   74.7315   49.4885 C.3       2 GLC5        0.0000 
     12 CA         43.4770   75.6690   47.9600 C.3       4 GLP5        0.0000 
     13 CA         39.5050   75.0395   49.6705 C.3       2 GLC5        0.0000 
     14 CA         40.3030   74.9420   51.1620 C.3       6 GLL5        0.0000 
     15 CA         38.7070   75.1370   48.1790 C.3       4 GLP5        0.0000 
     16 CA         38.6075   74.2550   51.9230 C.3       2 GLC5        0.0000 
     17 CA         36.9120   73.5680   52.6840 C.3       4 GLP5        0.0000 
     18 CA         40.8255   77.6190   53.2090 C.3       2 GLC5        0.0000 
     19 CA         40.9470   75.7310   52.3020 C.3       6 GLL5        0.0000 
     20 CA         40.7040   79.5070   54.1160 C.3       4 GLP5        0.0000 
     21 CA         42.2500   74.0055   53.0230 C.3       2 GLC5        0.0000 
     22 CA         42.3700   75.8040   51.7480 C.3       6 GLL5        0.0000 
     23 CA         42.8770   76.4160   49.9565 C.3       2 GLC5        0.0000 
     24 CA         43.3840   77.0280   48.1650 C.3       4 GLP5        0.0000 
     25 N          42.8225   77.8930   54.6680 N.am      1 SEC2        0.0000 
     26 N          43.0790   76.8990   53.7720 N.am      5 SEL2        0.0000 
     27 N          42.5660   78.8870   55.5640 N.am      3 SEP2        0.0000 
     28 CA         45.4810   75.3765   49.9140 C.3       2 GLC5        0.0000 
     29 CA         45.0850   74.8980   51.5270 C.3       6 GLL5        0.0000 
     30 CA         45.8770   75.8550   48.3010 C.3       4 GLP5        0.0000 
     31 CA         46.4620   73.9310   49.9245 C.3       2 GLC5        0.0000 
     32 CA         46.3770   74.1240   51.7990 C.3       6 GLL5        0.0000 
     33 CA         46.5470   73.7380   48.0500 C.3       4 GLP5        0.0000 
     34 CA         46.7130   75.4805   50.0170 C.3       2 GLC5        0.0000 
     35 CA         47.5490   75.1060   51.7330 C.3       6 GLL5        0.0000 
     36 CA         48.8965   72.4440   51.0000 C.3       2 GLC5        0.0000 
     37 CA         48.8910   74.3840   51.5890 C.3       6 GLL5        0.0000 
     38 CA         48.9020   70.5040   50.4110 C.3       4 GLP5        0.0000 
     39 CA         47.7190   74.0610   49.8195 C.3       2 GLC5        0.0000 
     40 CA         38.9270   76.3552   52.4955 C.3       2 GLC5        0.0000 
     41 CA         37.2290   77.3740   53.2590 C.3       4 GLP5        0.0000 
     42 CA         40.4855   73.8007   53.0780 C.3       2 GLC5        0.0000 
     43 CA         40.3460   72.2650   54.4240 C.3       4 GLP5        0.0000 
     44 CA         41.3307   77.2971   51.1400 C.3       2 GLC5        0.0000 
     45 CA         41.1640   79.0240   50.5400 C.3       4 GLP5        0.0000 
@<TRIPOS>BOND
@<TRIPOS>SUBSTRUCTURE
     1 SEC2        1 GROUP        1 X    SEC  0     ROOT SEC X 2
     2 GLC5        4 GROUP        1 X    GLC  0     **** GLC X 6
     3 SEP2        3 GROUP        1 Y    SEP  0     ROOT SEP Y 9
     4 GLP5        6 GROUP        1 Y    GLP  0     **** GLP Y 13
     5 SEL2        2 GROUP        1 Z    SEL  0     ROOT SEL Z 16
     6 GLL5        5 GROUP        1 Z    GLL  0     **** GLL Z 20
@<TRIPOS>SET

