#    Name: 1w1v_ALJ_2_ligand
#    Modification time : Tue Mar 25 08:27:33 2014

@<TRIPOS>MOLECULE
1w1v_ALJ_2_ligand
   38    39     1     0     0
SMALL
NO_CHARGES


@<TRIPOS>ATOM
      1 O          44.1480   72.8110   50.7890 O.2       1 ALJ1513     0.0000 
      2 C          43.9300   73.9550   51.1810 C.2       1 ALJ1513     0.0000 
      3 NP         42.6180   74.4340   51.2720 N.am      1 ALJ1513     0.0000 
      4 CDP        41.3060   73.7940   51.0170 C.3       1 ALJ1513     0.0000 
      5 CGP        40.3030   74.9420   51.1620 C.3       1 ALJ1513     0.0000 
      6 CBP        40.9470   75.7310   52.3020 C.3       1 ALJ1513     0.0000 
      7 CAP        42.3700   75.8040   51.7480 C.3       1 ALJ1513     0.0000 
      8 CP         43.3960   76.1860   52.8200 C.2       1 ALJ1513     0.0000 
      9 OP         43.0790   76.8990   53.7720 O.2       1 ALJ1513     0.0000 
     10 N          44.7130   75.7270   52.6840 N.am      1 ALJ1513     0.0000 
     11 CA         45.0850   74.8980   51.5270 C.3       1 ALJ1513     0.0000 
     12 CB         46.3770   74.1240   51.7990 C.3       1 ALJ1513     0.0000 
     13 CG         47.5490   75.1060   51.7330 C.3       1 ALJ1513     0.0000 
     14 CD         48.8910   74.3840   51.5890 C.3       1 ALJ1513     0.0000 
     15 NE         49.8950   75.3700   51.1640 N.pl3     1 ALJ1513     0.0000 
     16 CZ         50.8510   75.7890   51.9890 C.cat     1 ALJ1513     0.0000 
     17 NH1        50.9320   75.3210   53.2330 N.pl3     1 ALJ1513     0.0000 
     18 NH2        51.7330   76.6860   51.5560 N.pl3     1 ALJ1513     0.0000 
     19 H          41.0930   73.0522   51.7518 H         1 ALJ1513     0.0000 
     20 H          41.2539   73.4109   50.0240 H         1 ALJ1513     0.0000 
     21 H          39.3737   74.5669   51.4663 H         1 ALJ1513     0.0000 
     22 H          40.2931   75.5190   50.2880 H         1 ALJ1513     0.0000 
     23 H          40.9339   75.1680   53.1767 H         1 ALJ1513     0.0000 
     24 H          40.5350   76.6849   52.3521 H         1 ALJ1513     0.0000 
     25 H          42.3936   76.4834   50.9419 H         1 ALJ1513     0.0000 
     26 H          45.4300   75.9486   53.3642 H         1 ALJ1513     0.0000 
     27 H          45.2544   75.5422   50.6621 H         1 ALJ1513     0.0000 
     28 H          46.5042   73.3619   51.0477 H         1 ALJ1513     0.0000 
     29 H          46.3320   73.6839   52.7817 H         1 ALJ1513     0.0000 
     30 H          47.5628   75.7090   52.6441 H         1 ALJ1513     0.0000 
     31 H          47.4087   75.7744   50.8800 H         1 ALJ1513     0.0000 
     32 H          48.7818   73.5984   50.8507 H         1 ALJ1513     0.0000 
     33 H          49.1536   73.9511   52.5470 H         1 ALJ1513     0.0000 
     34 H          49.8050   75.7103   50.1879 H         1 ALJ1513     0.0000 
     35 H          51.6562   75.7093   53.8029 H         1 ALJ1513     0.0000 
     36 H          50.2614   74.6234   53.4852 H         1 ALJ1513     0.0000 
     37 H          51.6404   76.9688   50.6013 H         1 ALJ1513     0.0000 
     38 H          52.4090   76.9966   52.2243 H         1 ALJ1513     0.0000 
@<TRIPOS>BOND
     1    2    1 2    
     2    3    2 am   
     3   11    2 1    
     4    4    3 1    
     5    7    3 1    
     6    5    4 1    
     7   19    4 1    
     8   20    4 1    
     9    6    5 1    
    10   21    5 1    
    11   22    5 1    
    12    7    6 1    
    13   23    6 1    
    14   24    6 1    
    15    8    7 1    
    16   25    7 1    
    17    9    8 2    
    18   10    8 am   
    19   11   10 1    
    20   26   10 1    
    21   12   11 1    
    22   27   11 1    
    23   13   12 1    
    24   28   12 1    
    25   29   12 1    
    26   14   13 1    
    27   30   13 1    
    28   31   13 1    
    29   15   14 1    
    30   32   14 1    
    31   33   14 1    
    32   16   15 ar   
    33   34   15 1    
    34   17   16 ar   
    35   18   16 ar   
    36   35   17 1    
    37   36   17 1    
    38   37   18 1    
    39   38   18 1    
@<TRIPOS>SUBSTRUCTURE
     1 ALJ1513     1 GROUP   
@<TRIPOS>SET

