#    Name: 3gc7_B45_1_INTS_M
#    Modification time : Tue Mar 25 07:27:37 2014

@<TRIPOS>MOLECULE
3gc7_B45_1_INTS_M
   89     0    12     0     0
SMALL
NO_CHARGES


@<TRIPOS>ATOM
      1 CA         15.3195   14.1530   28.3540 C.3       4 GLC5        0.0000 
      2 CA         16.6440   13.6790   30.0000 C.3      12 GLL5        0.0000 
      3 CA         13.9950   14.6270   26.7080 C.3       8 GLP5        0.0000 
      4 CA         24.7845   11.0235   35.6865 C.3       4 GLC5        0.0000 
      5 CA         25.6380   10.2580   33.8250 C.3      12 GLL5        0.0000 
      6 CA         23.9310   11.7890   37.5480 C.3       8 GLP5        0.0000 
      7 CA         16.1285   14.8460   31.9590 C.3       4 GLC5        0.0000 
      8 CA         15.7740   13.0700   30.8790 C.3      12 GLL5        0.0000 
      9 CA         16.4830   16.6220   33.0390 C.3       8 GLP5        0.0000 
     10 CA         25.4000    8.5250   32.6560 C.3       4 GLC5        0.0000 
     11 CA         24.3600   10.3100   33.3120 C.3      12 GLL5        0.0000 
     12 CA         26.4400    6.7400   32.0000 C.3       8 GLP5        0.0000 
     13 CA         18.5125   10.1890   30.5465 C.3       4 GLC5        0.0000 
     14 CA         20.0510   10.7410   30.9680 C.3      12 GLL5        0.0000 
     15 CA         16.9740    9.6370   30.1250 C.3       8 GLP5        0.0000 
     16 CA         20.7945   15.4915   34.8990 C.3       4 GLC5        0.0000 
     17 CA         21.7900   16.6160   33.5240 C.3      12 GLL5        0.0000 
     18 CA         19.7990   14.3670   36.2740 C.3       8 GLP5        0.0000 
     19 CA         22.4825   20.6580   34.9585 C.3       4 GLC5        0.0000 
     20 CA         23.2630   20.6440   33.5090 C.3      12 GLL5        0.0000 
     21 CA         21.7020   20.6720   36.4080 C.3       8 GLP5        0.0000 
     22 O          20.2470    8.3670   30.3770 O.2       1 ALC1        0.0000 
     23 O          20.9360    9.6190   30.7580 O.2       9 ALL1        0.0000 
     24 O          19.5580    7.1150   29.9960 O.2       5 ALP1        0.0000 
     25 OD1        22.7290   18.5145   30.7930 O.co2     3 ASC3        0.0000 
     26 OD1        23.2240   18.3720   32.5070 O.co2    11 ASL3        0.0000 
     27 OD1        22.2340   18.6570   29.0790 O.co2     7 ASP3        0.0000 
     28 N          22.9105    7.3130   30.5285 N.am      2 SEC2        0.0000 
     29 N          22.9440    8.5980   30.9530 N.am     10 SEL2        0.0000 
     30 N          22.8770    6.0280   30.1040 N.am      6 SEP2        0.0000 
     31 N          24.1815    7.6940   30.9515 N.am      2 SEC2        0.0000 
     32 N          25.4190    6.7900   30.9500 N.am      6 SEP2        0.0000 
     33 CA         12.6425   12.3165   30.2185 C.3       4 GLC5        0.0000 
     34 CA         14.4540   13.0350   30.6270 C.3      12 GLL5        0.0000 
     35 CA         10.8310   11.5980   29.8100 C.3       8 GLP5        0.0000 
     36 CA         23.4770   10.7830   35.9050 C.3       4 GLC5        0.0000 
     37 CA         23.0230    9.7770   34.2620 C.3      12 GLL5        0.0000 
     38 CA         21.7465   10.8780   35.3560 C.3       4 GLC5        0.0000 
     39 CA         20.4700   11.9790   36.4500 C.3       8 GLP5        0.0000 
     40 CA         21.1830    9.1605   33.9870 C.3       4 GLC5        0.0000 
     41 CA         19.3430    8.5440   33.7120 C.3       8 GLP5        0.0000 
     42 CA         22.8400    7.9965   34.2060 C.3       4 GLC5        0.0000 
     43 CA         22.6570    6.2160   34.1500 C.3       8 GLP5        0.0000 
     44 CA         26.8030   12.5260   28.8115 C.3       4 GLC5        0.0000 
     45 CA         24.9330   11.8040   29.7070 C.3      12 GLL5        0.0000 
     46 CA         28.6730   13.2480   27.9160 C.3       8 GLP5        0.0000 
     47 CA         24.4970   11.0730   28.1305 C.3       4 GLC5        0.0000 
     48 CA         24.0610   10.3420   26.5540 C.3       8 GLP5        0.0000 
     49 CA         23.2165   12.6250   28.9275 C.3       4 GLC5        0.0000 
     50 CA         21.5000   13.4460   28.1480 C.3       8 GLP5        0.0000 
     51 CA         19.2865   11.8735   35.0925 C.3       4 GLC5        0.0000 
     52 CA         18.1030   11.7680   33.7350 C.3      12 GLL5        0.0000 
     53 CA         18.7230   10.1560   33.7235 C.3       4 GLC5        0.0000 
     54 CA         16.9050   10.8200   35.0550 C.3       4 GLC5        0.0000 
     55 CA         15.7070    9.8720   36.3750 C.3       8 GLP5        0.0000 
     56 CA         16.9895   13.1415   34.4530 C.3       4 GLC5        0.0000 
     57 CA         15.8760   14.5150   35.1710 C.3       8 GLP5        0.0000 
     58 CA         17.5385   10.7025   31.9300 C.3       4 GLC5        0.0000 
     59 CA         17.1472   11.6638   30.1290 C.3       4 GLC5        0.0000 
     60 CA         19.8738   13.4288   29.4945 C.3       4 GLC5        0.0000 
     61 CA         17.9970   13.7020   30.2660 C.3      12 GLL5        0.0000 
     62 CA         26.3850    8.7817   32.3091 C.3       4 GLC5        0.0000 
     63 CA         26.4910   11.1720   31.7910 C.3      12 GLL5        0.0000 
     64 CA         20.5175   14.3313   34.2597 C.3       4 GLC5        0.0000 
     65 CA         21.9150   14.3100   32.3720 C.3      12 GLL5        0.0000 
     66 CA         20.8727   13.5762   30.0205 C.3       4 GLC5        0.0000 
     67 CA         20.5570   14.2810   32.1190 C.3      12 GLL5        0.0000 
     68 CA         21.8933   13.5907   30.2097 C.3       4 GLC5        0.0000 
     69 CA         16.3978   13.5100   33.6638 C.3       4 GLC5        0.0000 
     70 CA         17.5960   12.5240   32.2800 C.3      12 GLL5        0.0000 
     71 CA         17.1961   15.0139   31.9067 C.3       4 GLC5        0.0000 
     72 CA         18.4980   13.1210   31.4160 C.3      12 GLL5        0.0000 
     73 CA         17.5105   11.2298   30.9865 C.3       4 GLC5        0.0000 
     74 CA         19.8597    9.9555   32.4640 C.3       4 GLC5        0.0000 
     75 CA         13.9935   14.2652   29.7700 C.3       4 GLC5        0.0000 
     76 CA         12.8730   15.4780   28.7870 C.3       8 GLP5        0.0000 
     77 CA         16.8221   12.5776   28.6775 C.3       4 GLC5        0.0000 
     78 CA         17.0970   11.7750   26.8490 C.3       8 GLP5        0.0000 
     79 CA         27.4109   10.0515   31.0529 C.3       4 GLC5        0.0000 
     80 CA         25.2080   11.2100   31.2890 C.3      12 GLL5        0.0000 
     81 CA         28.9200    9.0320   30.2470 C.3       8 GLP5        0.0000 
     82 CA         21.1082   12.4075   29.7144 C.3       4 GLC5        0.0000 
     83 CA         20.7020   11.9930   31.4640 C.3      12 GLL5        0.0000 
     84 CA         21.6310   17.6388   35.3308 C.3       4 GLC5        0.0000 
     85 CA         21.0570   18.0310   37.0070 C.3       8 GLP5        0.0000 
     86 CA         13.6826   13.2003   32.0307 C.3       4 GLC5        0.0000 
     87 CA         16.2430   12.4860   32.0330 C.3      12 GLL5        0.0000 
     88 CA         12.1340   13.4940   33.0200 C.3       8 GLP5        0.0000 
     89 CA         16.1026   11.2718   30.5832 C.3       4 GLC5        0.0000 
@<TRIPOS>BOND
@<TRIPOS>SUBSTRUCTURE
     1 ALC1       22 GROUP        1 X    ALC  0     ROOT ALC X 1
     2 SEC2       28 GROUP        1 X    SEC  0     **** SEC X 2
     3 ASC3       25 GROUP        1 X    ASC  0     **** ASC X 3
     4 GLC5        1 GROUP        1 X    GLC  0     **** GLC X 6
     5 ALP1       24 GROUP        1 Y    ALP  0     ROOT ALP Y 8
     6 SEP2       30 GROUP        1 Y    SEP  0     **** SEP Y 9
     7 ASP3       27 GROUP        1 Y    ASP  0     **** ASP Y 10
     8 GLP5        3 GROUP        1 Y    GLP  0     **** GLP Y 13
     9 ALL1       23 GROUP        1 Z    ALL  0     ROOT ALL Z 15
    10 SEL2       29 GROUP        1 Z    SEL  0     **** SEL Z 16
    11 ASL3       26 GROUP        1 Z    ASL  0     **** ASL Z 17
    12 GLL5        2 GROUP        1 Z    GLL  0     **** GLL Z 20
@<TRIPOS>SET

