#    Name: 3gc7_B45_1_ligand
#    Modification time : Tue Mar 25 07:27:37 2014

@<TRIPOS>MOLECULE
3gc7_B45_1_ligand
   64    68     1     0     0
SMALL
NO_CHARGES


@<TRIPOS>ATOM
      1 C6         26.7000   10.6920   33.0660 C.ar      1 B45361      0.0000 
      2 C21        17.9970   13.7020   30.2660 C.ar      1 B45361      0.0000 
      3 C22        16.6440   13.6790   30.0000 C.ar      1 B45361      0.0000 
      4 C1         25.6380   10.2580   33.8250 C.ar      1 B45361      0.0000 
      5 C5         26.4910   11.1720   31.7910 C.ar      1 B45361      0.0000 
      6 C17        20.5570   14.2810   32.1190 C.ar      1 B45361      0.0000 
      7 C19        22.6580   13.1610   32.1710 C.ar      1 B45361      0.0000 
      8 C24        16.2430   12.4860   32.0330 C.ar      1 B45361      0.0000 
      9 C20        18.4980   13.1210   31.4160 C.ar      1 B45361      0.0000 
     10 C16        19.9340   13.1320   31.6670 C.ar      1 B45361      0.0000 
     11 C18        21.9150   14.3100   32.3720 C.ar      1 B45361      0.0000 
     12 C13        20.7020   11.9930   31.4640 C.ar      1 B45361      0.0000 
     13 C14        22.0620   12.0010   31.7230 C.ar      1 B45361      0.0000 
     14 C3         24.1370   10.7870   32.0420 C.ar      1 B45361      0.0000 
     15 C23        15.7740   13.0700   30.8790 C.ar      1 B45361      0.0000 
     16 C2         24.3600   10.3100   33.3120 C.ar      1 B45361      0.0000 
     17 C4         25.2080   11.2100   31.2890 C.ar      1 B45361      0.0000 
     18 C25        17.5960   12.5240   32.2800 C.ar      1 B45361      0.0000 
     19 C10        22.2840    9.6250   31.0730 C.2       1 B45361      0.0000 
     20 C12        20.0510   10.7410   30.9680 C.3       1 B45361      0.0000 
     21 C29        23.2340   16.1420   31.5880 C.3       1 B45361      0.0000 
     22 C33        21.7900   16.6160   33.5240 C.3       1 B45361      0.0000 
     23 C30        24.1040   17.3380   31.8980 C.3       1 B45361      0.0000 
     24 C32        22.6200   17.8770   33.7850 C.3       1 B45361      0.0000 
     25 C28        22.6360   15.5490   32.8430 C.3       1 B45361      0.0000 
     26 C35        23.2630   20.6440   33.5090 C.3       1 B45361      0.0000 
     27 C36        23.9290   20.3170   31.2060 C.3       1 B45361      0.0000 
     28 C34        23.9550   19.6850   32.5770 C.3       1 B45361      0.0000 
     29 N11        20.9360    9.6190   30.7580 N.am      1 B45361      0.0000 
     30 N9         22.8270   10.8250   31.5100 N.am      1 B45361      0.0000 
     31 N31        23.2240   18.3720   32.5070 N.4       1 B45361      0.0000 
     32 O15        22.9440    8.5980   30.9530 O.2       1 B45361      0.0000 
     33 F27        14.4540   13.0350   30.6270 F         1 B45361      0.0000 
     34 CL8        23.0230    9.7770   34.2620 Cl        1 B45361      0.0000 
     35 CL7        24.9330   11.8040   29.7070 Cl        1 B45361      0.0000 
     36 CL26       18.1030   11.7680   33.7350 Cl        1 B45361      0.0000 
     37 H          27.6589   10.6585   33.4522 H         1 B45361      0.0000 
     38 H          18.6448   14.1583   29.5991 H         1 B45361      0.0000 
     39 H          16.2811   14.1201   29.1383 H         1 B45361      0.0000 
     40 H          25.7969    9.8937   34.7776 H         1 B45361      0.0000 
     41 H          27.2815   11.4973   31.2221 H         1 B45361      0.0000 
     42 H          19.9912   15.1406   32.2714 H         1 B45361      0.0000 
     43 H          23.6784   13.1738   32.3605 H         1 B45361      0.0000 
     44 H          15.6032   12.0357   32.6897 H         1 B45361      0.0000 
     45 H          19.5054   10.9849   30.0181 H         1 B45361      0.0000 
     46 H          19.2384   10.4614   31.6898 H         1 B45361      0.0000 
     47 H          23.8336   15.3802   31.0775 H         1 B45361      0.0000 
     48 H          22.4277   16.4460   30.9112 H         1 B45361      0.0000 
     49 H          20.9459   16.8710   32.8868 H         1 B45361      0.0000 
     50 H          21.4168   16.2330   34.4715 H         1 B45361      0.0000 
     51 H          24.5415   17.7094   30.9836 H         1 B45361      0.0000 
     52 H          24.8777   17.0478   32.5927 H         1 B45361      0.0000 
     53 H          23.4041   17.6376   34.5018 H         1 B45361      0.0000 
     54 H          21.9718   18.6402   34.2132 H         1 B45361      0.0000 
     55 H          23.4570   15.2646   33.4815 H         1 B45361      0.0000 
     56 H          24.9579   19.5410   32.8775 H         1 B45361      0.0000 
     57 H          20.5073    8.7568   30.3394 H         1 B45361      0.0000 
     58 H          22.3748   18.5168   31.7750 H         1 B45361      0.0000 
     59 H          23.2399   20.2987   34.4472 H         1 B45361      0.0000 
     60 H          23.7211   21.5325   33.5349 H         1 B45361      0.0000 
     61 H          22.3159   20.8104   33.2346 H         1 B45361      0.0000 
     62 H          24.3999   21.1991   31.1947 H         1 B45361      0.0000 
     63 H          24.3735   19.7387   30.5220 H         1 B45361      0.0000 
     64 H          22.9944   20.4796   30.8897 H         1 B45361      0.0000 
@<TRIPOS>BOND
     1    4    1 ar   
     2    5    1 ar   
     3   37    1 1    
     4    3    2 ar   
     5    9    2 ar   
     6   38    2 1    
     7   15    3 ar   
     8   39    3 1    
     9   16    4 ar   
    10   40    4 1    
    11   17    5 ar   
    12   41    5 1    
    13   10    6 ar   
    14   11    6 ar   
    15   42    6 1    
    16   11    7 ar   
    17   13    7 ar   
    18   43    7 1    
    19   15    8 ar   
    20   18    8 ar   
    21   44    8 1    
    22   10    9 1    
    23   18    9 ar   
    24   12   10 ar   
    25   25   11 1    
    26   13   12 ar   
    27   20   12 1    
    28   30   13 1    
    29   16   14 ar   
    30   17   14 ar   
    31   30   14 1    
    32   33   15 1    
    33   34   16 1    
    34   35   17 1    
    35   36   18 1    
    36   29   19 am   
    37   30   19 am   
    38   32   19 2    
    39   29   20 1    
    40   45   20 1    
    41   46   20 1    
    42   23   21 1    
    43   25   21 1    
    44   47   21 1    
    45   48   21 1    
    46   24   22 1    
    47   25   22 1    
    48   49   22 1    
    49   50   22 1    
    50   31   23 1    
    51   51   23 1    
    52   52   23 1    
    53   31   24 1    
    54   53   24 1    
    55   54   24 1    
    56   55   25 1    
    57   28   26 1    
    58   59   26 1    
    59   60   26 1    
    60   61   26 1    
    61   28   27 1    
    62   62   27 1    
    63   63   27 1    
    64   64   27 1    
    65   31   28 1    
    66   56   28 1    
    67   57   29 1    
    68   58   31 1    
@<TRIPOS>SUBSTRUCTURE
     1 B45361      1 GROUP   
@<TRIPOS>SET

