#    Name: 3v81_NVP_1_INTS_M
#    Modification time : Tue Mar 25 00:08:02 2014

@<TRIPOS>MOLECULE
3v81_NVP_1_INTS_M
   51     0     3     0     0
SMALL
NO_CHARGES


@<TRIPOS>ATOM
      1 CA         46.3470   51.9260   48.4835 C.3       1 GLC5        0.0000 
      2 CA         44.4400   51.0170   48.5140 C.3       3 GLL5        0.0000 
      3 CA         48.2540   52.8350   48.4530 C.3       2 GLP5        0.0000 
      4 CA         44.7515   49.5800   45.6245 C.3       1 GLC5        0.0000 
      5 CA         43.7000   50.6510   47.2510 C.3       3 GLL5        0.0000 
      6 CA         45.8030   48.5090   43.9980 C.3       2 GLP5        0.0000 
      7 CA         42.4540   49.7245   45.9755 C.3       1 GLC5        0.0000 
      8 CA         41.2080   48.7980   44.7000 C.3       2 GLP5        0.0000 
      9 CA         42.9055   52.1030   45.9830 C.3       1 GLC5        0.0000 
     10 CA         42.1110   53.5550   44.7150 C.3       2 GLP5        0.0000 
     11 CA         45.2710   51.7665   46.0960 C.3       1 GLC5        0.0000 
     12 CA         46.8420   52.8820   44.9410 C.3       2 GLP5        0.0000 
     13 CA         39.2000   49.3865   49.3705 C.3       1 GLC5        0.0000 
     14 CA         39.0510   50.0370   47.4840 C.3       3 GLL5        0.0000 
     15 CA         39.3490   48.7360   51.2570 C.3       2 GLP5        0.0000 
     16 CA         40.1295   49.4175   46.0920 C.3       1 GLC5        0.0000 
     17 CA         38.4575   54.8105   45.8420 C.3       1 GLC5        0.0000 
     18 CA         37.6700   53.5160   47.0290 C.3       3 GLL5        0.0000 
     19 CA         39.2450   56.1050   44.6550 C.3       2 GLP5        0.0000 
     20 CA         36.0350   53.4250   47.1925 C.3       1 GLC5        0.0000 
     21 CA         34.4000   53.3340   47.3560 C.3       2 GLP5        0.0000 
     22 CA         42.8275   55.0010   49.6085 C.3       1 GLC5        0.0000 
     23 CA         41.4910   53.5500   50.3580 C.3       3 GLL5        0.0000 
     24 CA         44.1640   56.4520   48.8590 C.3       2 GLP5        0.0000 
     25 CA         43.8155   53.7095   50.2655 C.3       1 GLC5        0.0000 
     26 CA         42.1190   52.3590   50.0550 C.3       3 GLL5        0.0000 
     27 CA         45.5120   55.0600   50.4760 C.3       2 GLP5        0.0000 
     28 CA         39.4540   54.5275   51.9460 C.3       1 GLC5        0.0000 
     29 CA         41.6220   54.1230   51.6160 C.3       3 GLL5        0.0000 
     30 CA         37.2860   54.9320   52.2760 C.3       2 GLP5        0.0000 
     31 CA         43.0515   55.1855   53.5475 C.3       1 GLC5        0.0000 
     32 CA         42.3970   53.4760   52.5700 C.3       3 GLL5        0.0000 
     33 CA         43.7060   56.8950   54.5250 C.3       2 GLP5        0.0000 
     34 CA         41.5045   51.0110   52.8260 C.3       1 GLC5        0.0000 
     35 CA         43.0270   52.2680   52.2860 C.3       3 GLL5        0.0000 
     36 CA         39.9820   49.7540   53.3660 C.3       2 GLP5        0.0000 
     37 CA         44.9500   51.7730   52.4035 C.3       1 GLC5        0.0000 
     38 CA         46.8730   51.2780   52.5210 C.3       2 GLP5        0.0000 
     39 CA         44.7772   49.3590   48.1534 C.3       1 GLC5        0.0000 
     40 CA         45.8460   47.9930   48.4060 C.3       2 GLP5        0.0000 
     41 CA         37.2417   49.0760   47.3100 C.3       1 GLC5        0.0000 
     42 CA         35.8530   47.5850   47.2980 C.3       2 GLP5        0.0000 
     43 CA         37.3095   54.1947   48.5862 C.3       1 GLC5        0.0000 
     44 CA         38.6000   52.3990   47.3980 C.3       3 GLL5        0.0000 
     45 CA         36.4840   55.4320   49.9590 C.3       2 GLP5        0.0000 
     46 CA         39.3110   51.5591   49.8351 C.3       1 GLC5        0.0000 
     47 CA         38.6480   51.0920   51.6780 C.3       2 GLP5        0.0000 
     48 CA         41.2007   52.8167   46.4253 C.3       1 GLC5        0.0000 
     49 CA         40.7150   51.5490   48.3000 C.3       3 GLL5        0.0000 
     50 CA         40.1808   52.3154   51.2946 C.3       1 GLC5        0.0000 
     51 CA         44.0151   54.0469   51.3327 C.3       1 GLC5        0.0000 
@<TRIPOS>BOND
@<TRIPOS>SUBSTRUCTURE
     1 GLC5        1 GROUP        1 X    GLC  0     ROOT GLC X 6
     2 GLP5        3 GROUP        1 Y    GLP  0     ROOT GLP Y 13
     3 GLL5        2 GROUP        1 Z    GLL  0     ROOT GLL Z 20
@<TRIPOS>SET

