#    Name: 3v81_NVP_1_ligand
#    Modification time : Tue Mar 25 00:08:03 2014

@<TRIPOS>MOLECULE
3v81_NVP_1_ligand
   34    37     1     0     0
SMALL
NO_CHARGES


@<TRIPOS>ATOM
      1 N1         42.0270   51.6660   48.8350 N.pl3     1 NVP901      0.0000 
      2 CA         42.9940   50.5810   48.5870 C.3       1 NVP901      0.0000 
      3 CB         44.4400   51.0170   48.5140 C.3       1 NVP901      0.0000 
      4 CC         43.7000   50.6510   47.2510 C.3       1 NVP901      0.0000 
      5 N3         40.3010   50.2230   48.0670 N.ar      1 NVP901      0.0000 
      6 C4         39.0510   50.0370   47.4840 C.ar      1 NVP901      0.0000 
      7 C5         38.2100   51.0970   47.1600 C.ar      1 NVP901      0.0000 
      8 C6         38.6000   52.3990   47.3980 C.ar      1 NVP901      0.0000 
      9 CD         37.6700   53.5160   47.0290 C.3       1 NVP901      0.0000 
     10 C2         40.7150   51.5490   48.3000 C.ar      1 NVP901      0.0000 
     11 C7         39.8660   52.6080   47.9710 C.ar      1 NVP901      0.0000 
     12 N8         40.2000   53.9660   48.2130 N.am      1 NVP901      0.0000 
     13 C9         40.6150   54.3700   49.4290 C.2       1 NVP901      0.0000 
     14 OE         40.1760   55.4900   49.8030 O.2       1 NVP901      0.0000 
     15 C10        41.4910   53.5500   50.3580 C.ar      1 NVP901      0.0000 
     16 C15        42.1190   52.3590   50.0550 C.ar      1 NVP901      0.0000 
     17 C11        41.6220   54.1230   51.6160 C.ar      1 NVP901      0.0000 
     18 C12        42.3970   53.4760   52.5700 C.ar      1 NVP901      0.0000 
     19 C13        43.0270   52.2680   52.2860 C.ar      1 NVP901      0.0000 
     20 N14        42.8890   51.6890   51.0240 N.ar      1 NVP901      0.0000 
     21 H          42.9757   49.6829   48.8570 H         1 NVP901      0.0000 
     22 H          44.9813   50.2786   48.7628 H         1 NVP901      0.0000 
     23 H          44.4640   51.9633   48.5777 H         1 NVP901      0.0000 
     24 H          43.4345   51.4543   46.8219 H         1 NVP901      0.0000 
     25 H          43.9518   49.7696   47.0070 H         1 NVP901      0.0000 
     26 H          38.7313   49.0616   47.2815 H         1 NVP901      0.0000 
     27 H          37.2868   50.9023   46.7379 H         1 NVP901      0.0000 
     28 H          40.1128   54.6319   47.4221 H         1 NVP901      0.0000 
     29 H          41.1568   55.0047   51.8362 H         1 NVP901      0.0000 
     30 H          42.5087   53.8989   53.5093 H         1 NVP901      0.0000 
     31 H          43.5940   51.8013   53.0044 H         1 NVP901      0.0000 
     32 H          38.0603   54.4110   47.2451 H         1 NVP901      0.0000 
     33 H          37.4595   53.5164   46.0514 H         1 NVP901      0.0000 
     34 H          36.7992   53.4506   47.5163 H         1 NVP901      0.0000 
@<TRIPOS>BOND
     1    2    1 1    
     2   10    1 1    
     3   16    1 1    
     4    3    2 1    
     5    4    2 1    
     6   21    2 1    
     7    4    3 1    
     8   22    3 1    
     9   23    3 1    
    10   24    4 1    
    11   25    4 1    
    12    6    5 ar   
    13   10    5 ar   
    14    7    6 ar   
    15   26    6 1    
    16    8    7 ar   
    17   27    7 1    
    18    9    8 1    
    19   11    8 ar   
    20   32    9 1    
    21   33    9 1    
    22   34    9 1    
    23   11   10 ar   
    24   12   11 1    
    25   13   12 am   
    26   28   12 1    
    27   14   13 2    
    28   15   13 1    
    29   16   15 ar   
    30   17   15 ar   
    31   20   16 ar   
    32   18   17 ar   
    33   29   17 1    
    34   19   18 ar   
    35   30   18 1    
    36   20   19 ar   
    37   31   19 1    
@<TRIPOS>SUBSTRUCTURE
     1 NVP901      1 GROUP   
@<TRIPOS>SET

