#    Name: 4dfp_0L7_1_INTS_M
#    Modification time : Tue Mar 25 09:40:36 2014

@<TRIPOS>MOLECULE
4dfp_0L7_1_INTS_M
   71     0    15     0     0
SMALL
NO_CHARGES


@<TRIPOS>ATOM
      1 O          17.6075  -22.8240   -4.8630 O.2       1 ALC1        0.0000 
      2 O          17.3910  -21.8130   -3.5460 O.2      11 ALL1        0.0000 
      3 O          17.8240  -23.8350   -6.1800 O.2       6 ALP1        0.0000 
      4 N          17.9945  -22.3110   -5.8345 N.am      2 SEC2        0.0000 
      5 N          18.1650  -20.7870   -5.4890 N.am     12 SEL2        0.0000 
      6 N          17.8240  -23.8350   -6.1800 N.am      7 SEP2        0.0000 
      7 CA         19.3510  -13.7295   -7.2490 C.3       5 GLC5        0.0000 
      8 CA         20.8470  -14.0100   -5.8360 C.3      15 GLL5        0.0000 
      9 CA         17.8550  -13.4490   -8.6620 C.3      10 GLP5        0.0000 
     10 CA         18.5270  -13.6495   -5.5075 C.3       5 GLC5        0.0000 
     11 CA         20.3630  -13.3840   -4.5270 C.3      15 GLL5        0.0000 
     12 CA         16.6910  -13.9150   -6.4880 C.3      10 GLP5        0.0000 
     13 O          19.4330  -14.3570   -2.2220 O.2       1 ALC1        0.0000 
     14 O          20.4160  -15.2060   -2.9110 O.2      11 ALL1        0.0000 
     15 O          18.4500  -13.5080   -1.5330 O.2       6 ALP1        0.0000 
     16 N          15.4145  -20.7800  -11.8875 N.am      2 SEC2        0.0000 
     17 N          16.5230  -20.0070  -11.2130 N.am     12 SEL2        0.0000 
     18 N          14.3060  -21.5530  -12.5620 N.am      7 SEP2        0.0000 
     19 CA         20.1675  -19.9635  -13.5040 C.3       5 GLC5        0.0000 
     20 CA         19.6220  -19.0450  -11.6750 C.3      15 GLL5        0.0000 
     21 CA         20.7130  -20.8820  -15.3330 C.3      10 GLP5        0.0000 
     22 NZ         19.6775  -14.2115  -10.7570 N.4       3 LYC4        0.0000 
     23 NZ         20.3780  -15.4160  -10.6700 N.4      13 LYL4        0.0000 
     24 NZ         18.9770  -13.0070  -10.8440 N.4       8 LYP4        0.0000 
     25 N          19.6775  -14.2115  -10.7570 N.am      2 SEC2        0.0000 
     26 N          20.3780  -15.4160  -10.6700 N.am     12 SEL2        0.0000 
     27 N          18.9770  -13.0070  -10.8440 N.am      7 SEP2        0.0000 
     28 Zn         19.3645  -16.7005  -13.9960 Zn        4 ZIC7        0.0000 
     29 Zn         19.7540  -16.3990  -13.0110 Zn       14 ZIL7        0.0000 
     30 Zn         18.9750  -17.0020  -14.9810 Zn        9 ZIP7        0.0000 
     31 Zn         20.9745  -16.6285  -13.4225 Zn        4 ZIC7        0.0000 
     32 Zn         22.1950  -16.8580  -13.8340 Zn        9 ZIP7        0.0000 
     33 N          18.5220  -14.6395  -10.9730 N.am      2 SEC2        0.0000 
     34 N          18.0670  -16.2720  -11.1020 N.am     12 SEL2        0.0000 
     35 Zn         18.1890  -17.0375  -14.2055 Zn        4 ZIC7        0.0000 
     36 Zn         17.4030  -17.0730  -13.4300 Zn       14 ZIL7        0.0000 
     37 N          14.8160  -15.9540  -10.7980 N.am      2 SEC2        0.0000 
     38 N          15.6890  -16.9340  -11.4680 N.am     12 SEL2        0.0000 
     39 N          13.9430  -14.9740  -10.1280 N.am      7 SEP2        0.0000 
     40 N          15.0700  -15.2925  -14.8125 N.am      2 SEC2        0.0000 
     41 N          15.6670  -14.1490  -14.6210 N.am     12 SEL2        0.0000 
     42 N          14.4730  -16.4360  -15.0040 N.am      7 SEP2        0.0000 
     43 N          14.9365  -12.8030  -14.1040 N.am      2 SEC2        0.0000 
     44 N          14.2060  -11.4570  -13.5870 N.am      7 SEP2        0.0000 
     45 NZ         16.7605  -11.6545  -13.0550 N.4       3 LYC4        0.0000 
     46 NZ         17.3950  -12.7000  -13.4540 N.4      13 LYL4        0.0000 
     47 NZ         14.8360  -10.4860  -12.9390 N.4       8 LYP4        0.0000 
     48 NZ         18.1860  -12.8535  -12.1490 N.4       3 LYC4        0.0000 
     49 N          16.7605  -11.6545  -13.0550 N.am      2 SEC2        0.0000 
     50 N          17.3950  -12.7000  -13.4540 N.am     12 SEL2        0.0000 
     51 N          16.1260  -10.6090  -12.6560 N.am      7 SEP2        0.0000 
     52 N          15.8005  -12.0785  -13.5205 N.am      2 SEC2        0.0000 
     53 N          18.1860  -12.8535  -12.1490 N.am      2 SEC2        0.0000 
     54 Zn         18.5340  -15.9580  -14.7250 Zn        4 ZIC7        0.0000 
     55 Zn         18.0930  -14.9140  -14.4690 Zn       14 ZIL7        0.0000 
     56 CA         16.7777  -19.1230   -5.2140 C.3       5 GLC5        0.0000 
     57 CA         18.7090  -19.7260   -6.1290 C.3      15 GLL5        0.0000 
     58 CA         14.6900  -19.0910   -4.6630 C.3      10 GLP5        0.0000 
     59 CA         18.4430  -14.9337   -6.2808 C.3       5 GLC5        0.0000 
     60 CA         19.9970  -16.5020   -6.1600 C.3      15 GLL5        0.0000 
     61 CA         20.7175  -11.8335   -5.7648 C.3       5 GLC5        0.0000 
     62 CA         20.8300   -9.9700   -6.3480 C.3      10 GLP5        0.0000 
     63 CA         15.9745  -19.1687   -9.2645 C.3       5 GLC5        0.0000 
     64 CA         17.3930  -20.2870   -8.9800 C.3      15 GLL5        0.0000 
     65 CA         14.4710  -18.3920   -8.8790 C.3      10 GLP5        0.0000 
     66 CA         18.0034  -20.3339  -12.5747 C.3       5 GLC5        0.0000 
     67 CA         17.5630  -19.6040  -10.3200 C.3      15 GLL5        0.0000 
     68 CA         17.0720  -21.2260  -14.0350 C.3      10 GLP5        0.0000 
     69 CA         17.0235  -21.6870  -10.0577 C.3       5 GLC5        0.0000 
     70 CA         18.9320  -20.0730  -10.7880 C.3      15 GLL5        0.0000 
     71 CA         15.8720  -23.2500  -10.4690 C.3      10 GLP5        0.0000 
@<TRIPOS>BOND
@<TRIPOS>SUBSTRUCTURE
     1 ALC1        1 GROUP        1 X    ALC  0     ROOT ALC X 1
     2 SEC2        4 GROUP        1 X    SEC  0     **** SEC X 2
     3 LYC4       22 GROUP        1 X    LYC  0     **** LYC X 4
     4 ZIC7       28 GROUP        1 X    ZIC  0     **** ZIC X 5
     5 GLC5        7 GROUP        1 X    GLC  0     **** GLC X 6
     6 ALP1        3 GROUP        1 Y    ALP  0     ROOT ALP Y 8
     7 SEP2        6 GROUP        1 Y    SEP  0     **** SEP Y 9
     8 LYP4       24 GROUP        1 Y    LYP  0     **** LYP Y 11
     9 ZIP7       30 GROUP        1 Y    ZIP  0     **** ZIP Y 12
    10 GLP5        9 GROUP        1 Y    GLP  0     **** GLP Y 13
    11 ALL1        2 GROUP        1 Z    ALL  0     ROOT ALL Z 15
    12 SEL2        5 GROUP        1 Z    SEL  0     **** SEL Z 16
    13 LYL4       23 GROUP        1 Z    LYL  0     **** LYL Z 18
    14 ZIL7       29 GROUP        1 Z    ZIL  0     **** ZIL Z 19
    15 GLL5        8 GROUP        1 Z    GLL  0     **** GLL Z 20
@<TRIPOS>SET

