#    Name: 4dfp_0L7_1_ligand
#    Modification time : Tue Mar 25 09:40:36 2014

@<TRIPOS>MOLECULE
4dfp_0L7_1_ligand
   58    60     1     0     0
SMALL
NO_CHARGES


@<TRIPOS>ATOM
      1 O6         19.0740  -17.5330   -3.3550 O.2       1 0L7908      0.0000 
      2 C6         18.7920  -18.5480   -4.0300 C.2       1 0L7908      0.0000 
      3 N1         18.2470  -19.6340   -3.4400 N.am      1 0L7908      0.0000 
      4 C2         17.9370  -20.7380   -4.1600 C.2       1 0L7908      0.0000 
      5 N2         17.3910  -21.8130   -3.5460 N.pl3     1 0L7908      0.0000 
      6 N3         18.1650  -20.7870   -5.4890 N.2       1 0L7908      0.0000 
      7 C5         19.0220  -18.5840   -5.4010 C.2       1 0L7908      0.0000 
      8 C4         18.7090  -19.7260   -6.1290 C.2       1 0L7908      0.0000 
      9 C7         19.5530  -17.7460   -6.3550 C.2       1 0L7908      0.0000 
     10 C32        19.9970  -16.5020   -6.1600 C.1       1 0L7908      0.0000 
     11 C33        20.3930  -15.4030   -5.9870 C.1       1 0L7908      0.0000 
     12 C34        20.8470  -14.0100   -5.8360 C.3       1 0L7908      0.0000 
     13 C35        20.3630  -13.3840   -4.5270 C.3       1 0L7908      0.0000 
     14 C36        21.0760  -13.9810   -3.3190 C.3       1 0L7908      0.0000 
     15 N37        20.4160  -15.2060   -2.9110 N.4       1 0L7908      0.0000 
     16 C8         19.5460  -18.3090   -7.6080 C.2       1 0L7908      0.0000 
     17 N9         19.0380  -19.5400   -7.4220 N.pl3     1 0L7908      0.0000 
     18 C1'        18.8120  -20.5320   -8.4980 C.3       1 0L7908      0.0000 
     19 C2'        17.3930  -20.2870   -8.9800 C.3       1 0L7908      0.0000 
     20 C3'        17.5630  -19.6040  -10.3200 C.3       1 0L7908      0.0000 
     21 O3'        16.5230  -20.0070  -11.2130 O.3       1 0L7908      0.0000 
     22 O4'        19.6930  -20.2820   -9.5950 O.3       1 0L7908      0.0000 
     23 C4'        18.9320  -20.0730  -10.7880 C.3       1 0L7908      0.0000 
     24 C5'        19.6220  -19.0450  -11.6750 C.3       1 0L7908      0.0000 
     25 O5'        19.8810  -17.8790  -10.9010 O.3       1 0L7908      0.0000 
     26 PA         19.6150  -16.4150  -11.5060 P.3       1 0L7908      0.0000 
     27 O1A        20.3780  -15.4160  -10.6700 O.co2     1 0L7908      0.0000 
     28 O2A        19.7540  -16.3990  -13.0110 O.co2     1 0L7908      0.0000 
     29 O3A        18.0670  -16.2720  -11.1020 O.3       1 0L7908      0.0000 
     30 PB         16.8910  -16.3710  -12.1930 P.3       1 0L7908      0.0000 
     31 O1B        17.4030  -17.0730  -13.4300 O.co2     1 0L7908      0.0000 
     32 O2B        15.6890  -16.9340  -11.4680 O.co2     1 0L7908      0.0000 
     33 O3B        16.6460  -14.8010  -12.4630 O.3       1 0L7908      0.0000 
     34 PG         16.9740  -14.0900  -13.8710 P.3       1 0L7908      0.0000 
     35 O3G        15.6670  -14.1490  -14.6210 O.co2     1 0L7908      0.0000 
     36 O2G        17.3950  -12.7000  -13.4540 O.co2     1 0L7908      0.0000 
     37 O1G        18.0930  -14.9140  -14.4690 O.co2     1 0L7908      0.0000 
     38 H          18.0606  -19.6234   -2.4086 H         1 0L7908      0.0000 
     39 H          17.1862  -22.5973   -4.1316 H         1 0L7908      0.0000 
     40 H          17.2407  -21.7279   -2.5610 H         1 0L7908      0.0000 
     41 H          20.4779  -13.3928   -6.6691 H         1 0L7908      0.0000 
     42 H          21.9463  -13.9596   -5.8551 H         1 0L7908      0.0000 
     43 H          19.2873  -13.5486   -4.4287 H         1 0L7908      0.0000 
     44 H          20.5450  -12.3070   -4.5574 H         1 0L7908      0.0000 
     45 H          21.0645  -13.2390   -2.5146 H         1 0L7908      0.0000 
     46 H          22.1186  -14.1668   -3.5953 H         1 0L7908      0.0000 
     47 H          19.8352  -17.9086   -8.4047 H         1 0L7908      0.0000 
     48 H          18.8796  -21.5098   -8.1242 H         1 0L7908      0.0000 
     49 H          16.8886  -19.6384   -8.3019 H         1 0L7908      0.0000 
     50 H          16.8893  -21.2172   -9.1066 H         1 0L7908      0.0000 
     51 H          17.6024  -18.5562  -10.1571 H         1 0L7908      0.0000 
     52 H          18.8107  -20.9901  -11.3270 H         1 0L7908      0.0000 
     53 H          18.9635  -18.8355  -12.5212 H         1 0L7908      0.0000 
     54 H          20.5417  -19.4942  -12.0569 H         1 0L7908      0.0000 
     55 H          19.9919  -15.6752   -3.6856 H         1 0L7908      0.0000 
     56 H          21.0555  -15.8507   -2.4922 H         1 0L7908      0.0000 
     57 H          19.6935  -15.0333   -2.2416 H         1 0L7908      0.0000 
     58 H          16.0871  -19.1552  -11.5036 H         1 0L7908      0.0000 
@<TRIPOS>BOND
     1    2    1 2    
     2    3    2 am   
     3    7    2 1    
     4    4    3 1    
     5   38    3 1    
     6    5    4 1    
     7    6    4 2    
     8   39    5 1    
     9   40    5 1    
    10    8    6 1    
    11    8    7 2    
    12    9    7 1    
    13   17    8 1    
    14   10    9 1    
    15   16    9 2    
    16   11   10 3    
    17   12   11 1    
    18   13   12 1    
    19   41   12 1    
    20   42   12 1    
    21   14   13 1    
    22   43   13 1    
    23   44   13 1    
    24   15   14 1    
    25   45   14 1    
    26   46   14 1    
    27   55   15 1    
    28   56   15 1    
    29   57   15 1    
    30   17   16 1    
    31   47   16 1    
    32   18   17 1    
    33   19   18 1    
    34   22   18 1    
    35   48   18 1    
    36   20   19 1    
    37   49   19 1    
    38   50   19 1    
    39   21   20 1    
    40   23   20 1    
    41   51   20 1    
    42   58   21 1    
    43   23   22 1    
    44   24   23 1    
    45   52   23 1    
    46   25   24 1    
    47   53   24 1    
    48   54   24 1    
    49   26   25 1    
    50   27   26 ar   
    51   28   26 ar   
    52   29   26 1    
    53   30   29 1    
    54   31   30 ar   
    55   32   30 ar   
    56   33   30 1    
    57   34   33 1    
    58   35   34 ar   
    59   36   34 ar   
    60   37   34 ar   
@<TRIPOS>SUBSTRUCTURE
     1 0L7908      1 GROUP   
@<TRIPOS>SET

