#    Name: 1A69_1_CAVITY_N1_6.mol2
#    Modification time : Mon Mar 10 12:38:23 2014

@<TRIPOS>MOLECULE
1A69_1_CAVITY_N1_6.mol2
   83     0     6     0     0
SMALL
NO_CHARGES


@<TRIPOS>ATOM
      1 CA        -25.3396   71.7776   61.7470 C.3       5 GLY6        0.0000 
      2 O         -19.4114   69.5917   65.7880 O.2       2 ALA2        0.0000 
      3 NZ        -20.4708   70.6488   65.6867 N.2       3 LYS4        0.0000 
      4 N         -19.5707   71.4667   64.8087 N.2       2 ALA2        0.0000 
      5 N         -18.6707   72.2847   63.9307 N.2       2 ALA2        0.0000 
      6 CZ        -21.5302   71.7059   65.5854 C.ar      4 PHE5        0.0000 
      7 CZ        -20.6301   72.5238   64.7074 C.ar      4 PHE5        0.0000 
      8 CA        -19.7300   73.3418   63.8294 C.3       5 GLY6        0.0000 
      9 CA        -18.8299   74.1597   62.9514 C.3       5 GLY6        0.0000 
     10 CZ        -23.4897   71.9451   66.3621 C.ar      4 PHE5        0.0000 
     11 CZ        -21.6895   73.5809   64.6061 C.ar      4 PHE5        0.0000 
     12 N         -20.7894   74.3989   63.7281 N.2       2 ALA2        0.0000 
     13 N         -19.8893   75.2168   62.8501 N.2       2 ALA2        0.0000 
     14 CZ        -24.5490   73.0022   66.2609 C.ar      4 PHE5        0.0000 
     15 CZ        -23.6490   73.8201   65.3829 C.ar      4 PHE5        0.0000 
     16 CZ        -22.7489   74.6380   64.5049 C.ar      4 PHE5        0.0000 
     17 N         -21.8488   75.4560   63.6269 N.2       2 ALA2        0.0000 
     18 N         -20.9487   76.2739   62.7488 N.2       2 ALA2        0.0000 
     19 CZ        -20.0486   77.0918   61.8708 C.ar      4 PHE5        0.0000 
     20 CZ        -24.7083   74.8772   65.2816 C.ar      4 PHE5        0.0000 
     21 CZ        -23.8082   75.6951   64.4036 C.ar      4 PHE5        0.0000 
     22 N         -22.9082   76.5131   63.5256 N.2       2 ALA2        0.0000 
     23 OG        -18.6886   68.3976   67.9792 O.2       1 SER1        0.0000 
     24 N         -17.7885   69.2155   67.1012 N.2       2 ALA2        0.0000 
     25 OG        -20.6481   68.6368   68.7559 O.2       1 SER1        0.0000 
     26 OG        -19.7480   69.4547   67.8779 O.2       1 SER1        0.0000 
     27 N         -18.8479   70.2726   66.9999 N.2       2 ALA2        0.0000 
     28 N         -17.9478   71.0905   66.1219 N.2       2 ALA2        0.0000 
     29 CZ        -20.8074   70.5118   67.7767 C.ar      4 PHE5        0.0000 
     30 CZ        -19.9073   71.3297   66.8987 C.ar      4 PHE5        0.0000 
     31 CZ        -19.0072   72.1476   66.0207 C.ar      4 PHE5        0.0000 
     32 N         -18.1071   72.9655   65.1426 N.2       2 ALA2        0.0000 
     33 CZ        -19.1665   74.0226   65.0414 C.ar      4 PHE5        0.0000 
     34 N         -18.2664   74.8405   64.1634 N.2       2 ALA2        0.0000 
     35 N         -20.2259   75.0797   64.9401 N.2       2 ALA2        0.0000 
     36 OG        -18.1251   69.0785   69.1912 O.2       1 SER1        0.0000 
     37 N         -17.2250   69.8964   68.3132 N.2       2 ALA2        0.0000 
     38 OG        -20.0845   69.3177   69.9679 O.2       1 SER1        0.0000 
     39 OG        -19.1844   70.1356   69.0899 O.2       1 SER1        0.0000 
     40 CZ        -18.2844   70.9535   68.2119 C.ar      4 PHE5        0.0000 
     41 CA        -17.3843   71.7714   67.3339 C.3       5 GLY6        0.0000 
     42 O         -21.1439   70.3748   69.8666 O.2       2 ALA2        0.0000 
     43 CZ        -20.2438   71.1927   68.9886 C.ar      4 PHE5        0.0000 
     44 OG        -17.4022   67.8843   71.3824 O.2       1 SER1        0.0000 
     45 O         -16.5022   68.7022   70.5044 O.2       2 ALA2        0.0000 
     46 NZ        -15.6021   69.5201   69.6264 N.2       3 LYS4        0.0000 
     47 O         -18.4616   68.9414   71.2811 O.2       2 ALA2        0.0000 
     48 OG        -17.5615   69.7593   70.4031 O.2       1 SER1        0.0000 
     49 NZ        -16.6615   70.5772   69.5251 N.2       3 LYS4        0.0000 
     50 O         -19.5210   69.9985   71.1799 O.2       2 ALA2        0.0000 
     51 DU        -18.6209   70.8164   70.3019 H         6 CUB7        0.0000 
     52 CA        -17.7208   71.6343   69.4239 C.3       5 GLY6        0.0000 
     53 N         -20.5804   71.0556   71.0786 N.2       2 ALA2        0.0000 
     54 CZ        -19.6803   71.8735   70.2006 C.ar      4 PHE5        0.0000 
     55 O         -16.8387   68.5652   72.5944 O.2       2 ALA2        0.0000 
     56 NZ        -15.9386   69.3831   71.7164 N.2       3 LYS4        0.0000 
     57 O         -17.8981   69.6223   72.4931 O.2       2 ALA2        0.0000 
     58 NZ        -16.9980   70.4402   71.6151 N.2       3 LYS4        0.0000 
     59 NZ        -16.0979   71.2581   70.7371 N.2       3 LYS4        0.0000 
     60 O         -18.9575   70.6794   72.3918 O.2       2 ALA2        0.0000 
     61 CA        -18.0574   71.4973   71.5138 C.3       5 GLY6        0.0000 
     62 CA        -17.1573   72.3152   70.6358 C.3       5 GLY6        0.0000 
     63 CA        -19.1168   72.5544   71.4125 C.3       5 GLY6        0.0000 
     64 CA        -18.2167   73.3723   70.5345 C.3       5 GLY6        0.0000 
     65 NZ        -22.8166   72.2192   62.1822 N.2       3 LYS4        0.0000 
     66 CA        -25.6761   71.6405   63.8369 C.3       5 GLY6        0.0000 
     67 NZ        -24.7760   72.4584   62.9589 N.2       3 LYS4        0.0000 
     68 CA        -23.8759   73.2763   62.0809 C.3       5 GLY6        0.0000 
     69 CA        -22.9759   74.0942   61.2029 C.3       5 GLY6        0.0000 
     70 CA        -24.9353   74.3334   61.9797 C.3       5 GLY6        0.0000 
     71 CA        -20.2936   72.6609   62.6174 C.3       5 GLY6        0.0000 
     72 NZ        -23.1531   72.0822   64.2722 N.2       3 LYS4        0.0000 
     73 NZ        -22.2530   72.9001   63.3942 N.2       3 LYS4        0.0000 
     74 CA        -21.3529   73.7180   62.5162 C.3       5 GLY6        0.0000 
     75 CA        -26.0126   71.5035   65.9269 C.3       5 GLY6        0.0000 
     76 CA        -25.1126   72.3214   65.0489 C.3       5 GLY6        0.0000 
     77 NZ        -24.2125   73.1393   64.1709 N.2       3 LYS4        0.0000 
     78 DU        -23.3124   73.9572   63.2929 H         6 CUB7        0.0000 
     79 CA        -22.4123   74.7751   62.4149 C.3       5 GLY6        0.0000 
     80 CA        -21.5122   75.5930   61.5369 C.3       5 GLY6        0.0000 
     81 DU        -25.2719   74.1964   64.0696 H         6 CUB7        0.0000 
     82 DU        -24.3718   75.0143   63.1916 H         6 CUB7        0.0000 
     83 DU        -23.4717   75.8322   62.3136 H         6 CUB7        0.0000 
@<TRIPOS>BOND
@<TRIPOS>SUBSTRUCTURE
     1 SER1       23 GROUP   
     2 ALA2        2 GROUP   
     3 LYS4        3 GROUP   
     4 PHE5        6 GROUP   
     5 GLY6        1 GROUP   
     6 CUB7       51 GROUP   
@<TRIPOS>SET

