#    Name: 1a69_FMB_1_INTS_M
#    Modification time : Mon Mar 24 17:59:29 2014

@<TRIPOS>MOLECULE
1a69_FMB_1_INTS_M
   50     0     9     0     0
SMALL
NO_CHARGES


@<TRIPOS>ATOM
      1 CA        -16.2840   70.8050   66.5685 C.3       3 GLC5        0.0000 
      2 CA        -18.2650   71.1350   66.9710 C.3       9 GLL5        0.0000 
      3 CA        -14.3030   70.4750   66.1660 C.3       6 GLP5        0.0000 
      4 CA        -19.3435   69.6980   64.2180 C.3       3 GLC5        0.0000 
      5 CA        -19.2640   70.7080   66.1180 C.3       9 GLL5        0.0000 
      6 CA        -19.4230   68.6880   62.3180 C.3       6 GLP5        0.0000 
      7 N         -21.4130   70.5090   63.6350 N.am      2 SEC2        0.0000 
      8 N         -20.3350   71.1770   64.0460 N.am      8 SEL2        0.0000 
      9 N         -22.4910   69.8410   63.2240 N.am      5 SEP2        0.0000 
     10 O         -21.4460   69.3210   65.9520 O.2       1 ALC1        0.0000 
     11 O         -19.9000   69.5840   66.6230 O.2       7 ALL1        0.0000 
     12 O         -22.9920   69.0580   65.2810 O.2       4 ALP1        0.0000 
     13 CA        -15.7335   69.4610   68.0145 C.3       3 GLC5        0.0000 
     14 CA        -17.5510   69.7970   69.2390 C.3       9 GLL5        0.0000 
     15 CA        -13.9160   69.1250   66.7900 C.3       6 GLP5        0.0000 
     16 CA        -15.3575   70.6025   67.9000 C.3       3 GLC5        0.0000 
     17 CA        -16.4120   70.7300   69.6340 C.3       9 GLL5        0.0000 
     18 CA        -15.7080   72.3090   69.1630 C.3       3 GLC5        0.0000 
     19 CA        -15.0040   73.8880   68.6920 C.3       6 GLP5        0.0000 
     20 N         -14.2540   70.8030   68.8760 N.am      2 SEC2        0.0000 
     21 N         -15.2040   69.9950   69.6560 N.am      8 SEL2        0.0000 
     22 N         -13.3040   71.6110   68.0960 N.am      5 SEP2        0.0000 
     23 O         -14.1780   69.9960   70.2115 O.2       1 ALC1        0.0000 
     24 O         -15.2040   69.9950   69.6560 O.2       7 ALL1        0.0000 
     25 O         -13.1520   69.9970   70.7670 O.2       4 ALP1        0.0000 
     26 CA        -17.2085   72.0125   73.0195 C.3       3 GLC5        0.0000 
     27 CA        -16.8460   71.3300   70.9950 C.3       9 GLL5        0.0000 
     28 CA        -17.5710   72.6950   75.0440 C.3       6 GLP5        0.0000 
     29 CA        -16.5705   73.0305   70.3240 C.3       3 GLC5        0.0000 
     30 CA        -16.2950   74.7310   69.6530 C.3       6 GLP5        0.0000 
     31 O         -14.6505   70.9980   72.3670 O.2       1 ALC1        0.0000 
     32 O         -16.1160   70.8000   72.1220 O.2       7 ALL1        0.0000 
     33 O         -13.1850   71.1960   72.6120 O.2       4 ALP1        0.0000 
     34 O         -14.6340   70.3985   71.4445 O.2       1 ALC1        0.0000 
     35 CA        -20.0060   72.7970   69.1470 C.3       3 GLC5        0.0000 
     36 CA        -19.2870   72.0220   70.6090 C.3       9 GLL5        0.0000 
     37 CA        -20.7250   73.5720   67.6850 C.3       6 GLP5        0.0000 
     38 CA        -17.7910   73.3765   70.1310 C.3       3 GLC5        0.0000 
     39 CA        -20.9525   72.6350   71.7565 C.3       3 GLC5        0.0000 
     40 CA        -22.6180   73.2480   72.9040 C.3       6 GLP5        0.0000 
     41 CA        -19.2145   74.1470   71.2465 C.3       3 GLC5        0.0000 
     42 CA        -19.1420   76.2720   71.8840 C.3       6 GLP5        0.0000 
     43 O         -21.4525   72.4660   71.0735 O.2       1 ALC1        0.0000 
     44 O         -20.6560   71.5800   70.5560 O.2       7 ALL1        0.0000 
     45 O         -22.2490   73.3520   71.5910 O.2       4 ALP1        0.0000 
     46 CA        -18.1397   69.0068   65.8488 C.3       3 GLC5        0.0000 
     47 CA        -17.5150   67.0920   65.1530 C.3       6 GLP5        0.0000 
     48 CA        -18.9845   72.3145   72.5855 C.3       3 GLC5        0.0000 
     49 CA        -18.3190   70.9540   71.1130 C.3       9 GLL5        0.0000 
     50 CA        -19.1660   73.1410   74.3100 C.3       6 GLP5        0.0000 
@<TRIPOS>BOND
@<TRIPOS>SUBSTRUCTURE
     1 ALC1       10 GROUP        1 X    ALC  0     ROOT ALC X 1
     2 SEC2        7 GROUP        1 X    SEC  0     **** SEC X 2
     3 GLC5        1 GROUP        1 X    GLC  0     **** GLC X 6
     4 ALP1       12 GROUP        1 Y    ALP  0     ROOT ALP Y 8
     5 SEP2        9 GROUP        1 Y    SEP  0     **** SEP Y 9
     6 GLP5        3 GROUP        1 Y    GLP  0     **** GLP Y 13
     7 ALL1       11 GROUP        1 Z    ALL  0     ROOT ALL Z 15
     8 SEL2        8 GROUP        1 Z    SEL  0     **** SEL Z 16
     9 GLL5        2 GROUP        1 Z    GLL  0     **** GLL Z 20
@<TRIPOS>SET

