#    Name: 1a69_FMB_1_ligand
#    Modification time : Mon Mar 24 17:59:29 2014

@<TRIPOS>MOLECULE
1a69_FMB_1_ligand
   31    33     1     0     0
SMALL
NO_CHARGES


@<TRIPOS>ATOM
      1 N1        -18.6290   72.4960   64.7810 N.am      1 FMB240      0.0000 
      2 C2        -17.6590   72.8430   65.6920 C.2       1 FMB240      0.0000 
      3 N3        -17.4340   72.1880   66.8280 N.2       1 FMB240      0.0000 
      4 C4        -18.2650   71.1350   66.9710 C.2       1 FMB240      0.0000 
      5 C5        -19.2640   70.7080   66.1180 C.2       1 FMB240      0.0000 
      6 C6        -19.4960   71.4120   64.9200 C.2       1 FMB240      0.0000 
      7 O6        -20.3350   71.1770   64.0460 O.2       1 FMB240      0.0000 
      8 N7        -19.9000   69.5840   66.6230 N.pl3     1 FMB240      0.0000 
      9 N8        -19.2890   69.3560   67.7600 N.2       1 FMB240      0.0000 
     10 C9        -18.2820   70.2630   68.0340 C.2       1 FMB240      0.0000 
     11 C1'       -17.5510   69.7970   69.2390 C.3       1 FMB240      0.0000 
     12 C2'       -16.4120   70.7300   69.6340 C.3       1 FMB240      0.0000 
     13 O2'       -15.2040   69.9950   69.6560 O.3       1 FMB240      0.0000 
     14 C3'       -16.8460   71.3300   70.9950 C.3       1 FMB240      0.0000 
     15 O3'       -16.1160   70.8000   72.1220 O.3       1 FMB240      0.0000 
     16 C4'       -18.3190   70.9540   71.1130 C.3       1 FMB240      0.0000 
     17 O4'       -18.4590   69.7460   70.3290 O.3       1 FMB240      0.0000 
     18 C5'       -19.2870   72.0220   70.6090 C.3       1 FMB240      0.0000 
     19 O5'       -20.6560   71.5800   70.5560 O.3       1 FMB240      0.0000 
     20 H         -18.7317   73.0910   63.9063 H         1 FMB240      0.0000 
     21 H         -17.0577   73.6951   65.4559 H         1 FMB240      0.0000 
     22 H         -20.6056   69.1242   66.2068 H         1 FMB240      0.0000 
     23 H         -17.1328   68.8180   69.0537 H         1 FMB240      0.0000 
     24 H         -16.4070   71.5334   68.9130 H         1 FMB240      0.0000 
     25 H         -16.7880   72.3928   70.9191 H         1 FMB240      0.0000 
     26 H         -18.5293   70.7361   72.1488 H         1 FMB240      0.0000 
     27 H         -18.9345   72.3473   69.6068 H         1 FMB240      0.0000 
     28 H         -19.1802   72.9091   71.2693 H         1 FMB240      0.0000 
     29 H         -14.7241   70.3105   70.4746 H         1 FMB240      0.0000 
     30 H         -15.1736   71.1061   71.9869 H         1 FMB240      0.0000 
     31 H         -21.2006   72.4157   70.6278 H         1 FMB240      0.0000 
@<TRIPOS>BOND
     1    2    1 1    
     2    6    1 am   
     3   20    1 1    
     4    3    2 2    
     5   21    2 1    
     6    4    3 1    
     7    5    4 2    
     8   10    4 1    
     9    6    5 1    
    10    8    5 1    
    11    7    6 2    
    12    9    8 1    
    13   22    8 1    
    14   10    9 2    
    15   11   10 1    
    16   12   11 1    
    17   17   11 1    
    18   23   11 1    
    19   13   12 1    
    20   14   12 1    
    21   24   12 1    
    22   29   13 1    
    23   15   14 1    
    24   16   14 1    
    25   25   14 1    
    26   30   15 1    
    27   17   16 1    
    28   18   16 1    
    29   26   16 1    
    30   19   18 1    
    31   27   18 1    
    32   28   18 1    
    33   31   19 1    
@<TRIPOS>SUBSTRUCTURE
     1 FMB240      1 GROUP   
@<TRIPOS>SET

