#    Name: 1tky_A3S_1_INTS_M
#    Modification time : Tue Mar 25 05:27:54 2014

@<TRIPOS>MOLECULE
1tky_A3S_1_INTS_M
   48     0    12     0     0
SMALL
NO_CHARGES


@<TRIPOS>ATOM
      1 CA         13.2700   11.9045   40.8665 C.3       4 GLC5        0.0000 
      2 CA         14.1450   12.0350   42.4550 C.3      12 GLL5        0.0000 
      3 CA         12.3950   11.7740   39.2780 C.3       8 GLP5        0.0000 
      4 CA         19.6035   11.2665   45.2305 C.3       4 GLC5        0.0000 
      5 CA         18.1330   12.4630   46.3260 C.3      12 GLL5        0.0000 
      6 CA         21.0740   10.0700   44.1350 C.3       8 GLP5        0.0000 
      7 CA         18.1505   10.3645   46.6785 C.3       4 GLC5        0.0000 
      8 CA         18.1680    8.2660   47.0310 C.3       8 GLP5        0.0000 
      9 CA         21.7415   11.8895   47.7445 C.3       4 GLC5        0.0000 
     10 CA         19.8930   11.8500   47.4970 C.3      12 GLL5        0.0000 
     11 CA         23.5900   11.9290   47.9920 C.3       8 GLP5        0.0000 
     12 CA         20.4835   10.9600   45.8160 C.3       4 GLC5        0.0000 
     13 CA         19.0305   10.0580   47.2640 C.3       4 GLC5        0.0000 
     14 CA         18.8105   10.7500   49.0105 C.3       4 GLC5        0.0000 
     15 CA         17.7280    9.6500   50.5240 C.3       8 GLP5        0.0000 
     16 O          20.1005   16.2330   48.9810 O.2       1 ALC1        0.0000 
     17 O          19.4520   15.2770   48.2090 O.2       9 ALL1        0.0000 
     18 O          20.7490   17.1890   49.7530 O.2       5 ALP1        0.0000 
     19 O          16.6020    8.3965   44.1840 O.2       1 ALC1        0.0000 
     20 O          15.1400    8.7690   44.0210 O.2       9 ALL1        0.0000 
     21 O          18.0640    8.0240   44.3470 O.2       5 ALP1        0.0000 
     22 OD1        17.0120    6.0290   42.8195 O.co2     3 ASC3        0.0000 
     23 OD1        16.0670    6.2570   44.1320 O.co2    11 ASL3        0.0000 
     24 OD1        17.9570    5.8010   41.5070 O.co2     7 ASP3        0.0000 
     25 O          16.3650    4.9210   44.4225 O.2       1 ALC1        0.0000 
     26 O          16.0670    6.2570   44.1320 O.2       9 ALL1        0.0000 
     27 O          16.6630    3.5850   44.7130 O.2       5 ALP1        0.0000 
     28 O          17.0655    7.1405   44.2395 O.2       1 ALC1        0.0000 
     29 CA         14.8490    5.7010   40.9390 C.3       4 GLC5        0.0000 
     30 CA         15.3730    6.5570   42.8840 C.3      12 GLL5        0.0000 
     31 CA         14.3250    4.8450   38.9940 C.3       8 GLP5        0.0000 
     32 CA         12.5810    5.8530   41.7560 C.3       4 GLC5        0.0000 
     33 CA         14.2940    5.5020   42.6240 C.3      12 GLL5        0.0000 
     34 CA         10.8680    6.2040   40.8880 C.3       8 GLP5        0.0000 
     35 CA         14.0740    4.5720   41.0615 C.3       4 GLC5        0.0000 
     36 CA         13.8540    3.6420   39.4990 C.3       8 GLP5        0.0000 
     37 N          12.7890    7.8600   41.2750 N.am      2 SEC2        0.0000 
     38 N          13.9680    8.3210   42.0490 N.am     10 SEL2        0.0000 
     39 N          11.6100    7.3990   40.5010 N.am      6 SEP2        0.0000 
     40 CA         15.3302   12.1885   40.9273 C.3       4 GLC5        0.0000 
     41 CA         15.1180   10.9770   42.9240 C.3      12 GLL5        0.0000 
     42 CA         16.0290   12.8710   39.1650 C.3       8 GLP5        0.0000 
     43 CA         17.0185    9.6400   46.0315 C.3       4 GLC5        0.0000 
     44 CA         16.5420   11.2580   44.7670 C.3      12 GLL5        0.0000 
     45 CA         19.3911   14.3310   45.6084 C.3       4 GLC5        0.0000 
     46 CA         20.0680   15.0710   44.0990 C.3       8 GLP5        0.0000 
     47 CA         15.4348    4.3507   43.3255 C.3       4 GLC5        0.0000 
     48 CA         16.0360    2.6720   43.8970 C.3       8 GLP5        0.0000 
@<TRIPOS>BOND
@<TRIPOS>SUBSTRUCTURE
     1 ALC1       16 GROUP        1 X    ALC  0     ROOT ALC X 1
     2 SEC2       37 GROUP        1 X    SEC  0     **** SEC X 2
     3 ASC3       22 GROUP        1 X    ASC  0     **** ASC X 3
     4 GLC5        1 GROUP        1 X    GLC  0     **** GLC X 6
     5 ALP1       18 GROUP        1 Y    ALP  0     ROOT ALP Y 8
     6 SEP2       39 GROUP        1 Y    SEP  0     **** SEP Y 9
     7 ASP3       24 GROUP        1 Y    ASP  0     **** ASP Y 10
     8 GLP5        3 GROUP        1 Y    GLP  0     **** GLP Y 13
     9 ALL1       17 GROUP        1 Z    ALL  0     ROOT ALL Z 15
    10 SEL2       38 GROUP        1 Z    SEL  0     **** SEL Z 16
    11 ASL3       23 GROUP        1 Z    ASL  0     **** ASL Z 17
    12 GLL5        2 GROUP        1 Z    GLL  0     **** GLL Z 20
@<TRIPOS>SET

