#    Name: 1tky_A3S_1_ligand
#    Modification time : Tue Mar 25 05:27:54 2014

@<TRIPOS>MOLECULE
1tky_A3S_1_ligand
   45    47     1     0     0
SMALL
NO_CHARGES


@<TRIPOS>ATOM
      1 O5'        13.7840   12.8870   43.5390 O.3       1 A3S500      0.0000 
      2 C5'        14.1450   12.0350   42.4550 C.3       1 A3S500      0.0000 
      3 C4'        15.1180   10.9770   42.9240 C.3       1 A3S500      0.0000 
      4 O4'        16.3210   11.6280   43.4200 O.3       1 A3S500      0.0000 
      5 C1'        16.5420   11.2580   44.7670 C.3       1 A3S500      0.0000 
      6 N9         17.0460   12.4270   45.4860 N.pl3     1 A3S500      0.0000 
      7 C4         18.1330   12.4630   46.3260 C.ar      1 A3S500      0.0000 
      8 N3         18.9500   11.4460   46.6470 N.ar      1 A3S500      0.0000 
      9 C2         19.8930   11.8500   47.4970 C.ar      1 A3S500      0.0000 
     10 N1         20.0960   13.0660   48.0240 N.ar      1 A3S500      0.0000 
     11 C6         19.2550   14.0670   47.6810 C.ar      1 A3S500      0.0000 
     12 N6         19.4520   15.2770   48.2090 N.pl3     1 A3S500      0.0000 
     13 C5         18.2140   13.7670   46.7830 C.ar      1 A3S500      0.0000 
     14 N7         17.2000   14.5420   46.2350 N.2       1 A3S500      0.0000 
     15 C8         16.5390   13.7040   45.4740 C.2       1 A3S500      0.0000 
     16 C2'        15.1960   10.7700   45.2970 C.3       1 A3S500      0.0000 
     17 O2'        15.3860    9.8800   46.3800 O.3       1 A3S500      0.0000 
     18 C3'        14.6160   10.0920   44.0610 C.3       1 A3S500      0.0000 
     19 N8         15.1400    8.7690   44.0210 N.am      1 A3S500      0.0000 
     20 N          16.0670    6.2570   44.1320 N.4       1 A3S500      0.0000 
     21 CA         15.3730    6.5570   42.8840 C.3       1 A3S500      0.0000 
     22 CB         14.2940    5.5020   42.6240 C.3       1 A3S500      0.0000 
     23 OG         13.5400    5.2460   43.7960 O.3       1 A3S500      0.0000 
     24 C          14.7510    7.9500   42.9250 C.2       1 A3S500      0.0000 
     25 O          13.9680    8.3210   42.0490 O.2       1 A3S500      0.0000 
     26 H          14.6217   12.5988   41.6396 H         1 A3S500      0.0000 
     27 H          13.2666   11.5263   42.0314 H         1 A3S500      0.0000 
     28 H          15.3862   10.3382   42.0901 H         1 A3S500      0.0000 
     29 H          17.2387   10.4442   44.8244 H         1 A3S500      0.0000 
     30 H          20.6157   11.0703   47.8165 H         1 A3S500      0.0000 
     31 H          20.1891   15.3492   48.8809 H         1 A3S500      0.0000 
     32 H          18.8448   16.0026   47.8852 H         1 A3S500      0.0000 
     33 H          15.7350   13.9403   44.9223 H         1 A3S500      0.0000 
     34 H          14.6098   11.6221   45.5163 H         1 A3S500      0.0000 
     35 H          13.5717   10.1487   44.1179 H         1 A3S500      0.0000 
     36 H          15.7533    8.4314   44.7310 H         1 A3S500      0.0000 
     37 H          16.0718    6.5242   42.0519 H         1 A3S500      0.0000 
     38 H          14.8022    4.5958   42.2549 H         1 A3S500      0.0000 
     39 H          13.6620    5.8739   41.8005 H         1 A3S500      0.0000 
     40 H          17.0163    6.5708   44.1137 H         1 A3S500      0.0000 
     41 H          15.6282    6.6962   44.9159 H         1 A3S500      0.0000 
     42 H          16.0865    5.2749   44.3193 H         1 A3S500      0.0000 
     43 H          14.6189   12.9842   44.0808 H         1 A3S500      0.0000 
     44 H          16.3742    9.7331   46.4238 H         1 A3S500      0.0000 
     45 H          13.0755    6.1081   43.9982 H         1 A3S500      0.0000 
@<TRIPOS>BOND
     1    2    1 1    
     2   43    1 1    
     3    3    2 1    
     4   26    2 1    
     5   27    2 1    
     6    4    3 1    
     7   18    3 1    
     8   28    3 1    
     9    5    4 1    
    10    6    5 1    
    11   16    5 1    
    12   29    5 1    
    13    7    6 1    
    14   15    6 1    
    15    8    7 ar   
    16   13    7 ar   
    17    9    8 ar   
    18   10    9 ar   
    19   30    9 1    
    20   11   10 ar   
    21   12   11 1    
    22   13   11 ar   
    23   31   12 1    
    24   32   12 1    
    25   14   13 1    
    26   15   14 2    
    27   33   15 1    
    28   17   16 1    
    29   18   16 1    
    30   34   16 1    
    31   44   17 1    
    32   19   18 1    
    33   35   18 1    
    34   24   19 am   
    35   36   19 1    
    36   21   20 1    
    37   40   20 1    
    38   41   20 1    
    39   42   20 1    
    40   22   21 1    
    41   24   21 1    
    42   37   21 1    
    43   23   22 1    
    44   38   22 1    
    45   39   22 1    
    46   45   23 1    
    47   25   24 2    
@<TRIPOS>SUBSTRUCTURE
     1 A3S500      1 GROUP   
@<TRIPOS>SET

