#    Name: 3d1x_ROC_1_INTS_M
#    Modification time : Mon Mar 24 22:33:24 2014

@<TRIPOS>MOLECULE
3d1x_ROC_1_INTS_M
  104     0     9     0     0
SMALL
NO_CHARGES


@<TRIPOS>ATOM
      1 N          20.2790   28.8705   18.2940 N.am      2 SEC2        0.0000 
      2 N          20.8880   27.5860   18.7790 N.am      8 SEL2        0.0000 
      3 N          19.6700   30.1550   17.8090 N.am      5 SEP2        0.0000 
      4 CA         24.6825   22.8025   17.7830 C.3       3 GLC5        0.0000 
      5 CA         24.5110   22.9740   19.7990 C.3       9 GLL5        0.0000 
      6 CA         24.8540   22.6310   15.7670 C.3       6 GLP5        0.0000 
      7 CA         23.1005   22.1175   18.5270 C.3       3 GLC5        0.0000 
      8 CA         21.6900   21.2610   17.2550 C.3       6 GLP5        0.0000 
      9 CA         23.9885   21.4725   21.0425 C.3       3 GLC5        0.0000 
     10 CA         23.4660   19.9710   22.2860 C.3       6 GLP5        0.0000 
     11 O          21.8600   24.5785   17.1410 O.2       1 ALC1        0.0000 
     12 O          20.9110   25.4820   17.8890 O.2       7 ALL1        0.0000 
     13 O          22.8090   23.6750   16.3930 O.2       4 ALP1        0.0000 
     14 CA         18.7120   27.3065   17.4180 C.3       3 GLC5        0.0000 
     15 CA         19.7960   25.7200   17.0150 C.3       9 GLL5        0.0000 
     16 CA         17.6280   28.8930   17.8210 C.3       6 GLP5        0.0000 
     17 CA         18.5595   27.2725   15.9935 C.3       3 GLC5        0.0000 
     18 CA         20.1660   25.8770   15.5150 C.3       9 GLL5        0.0000 
     19 CA         16.9530   28.6680   16.4720 C.3       6 GLP5        0.0000 
     20 N          20.3580   29.6600   15.3410 N.am      2 SEC2        0.0000 
     21 N          20.6300   28.1960   15.4340 N.am      8 SEL2        0.0000 
     22 N          20.0860   31.1240   15.2480 N.am      5 SEP2        0.0000 
     23 O          22.8335   28.2360   14.6210 O.2       1 ALC1        0.0000 
     24 O          22.4150   26.7410   15.3790 O.2       7 ALL1        0.0000 
     25 O          23.2520   29.7310   13.8630 O.2       4 ALP1        0.0000 
     26 O          22.6120   25.2080   15.8860 O.2       1 ALC1        0.0000 
     27 N          14.4250   26.4445   18.4540 N.am      2 SEC2        0.0000 
     28 N          15.1360   25.4890   18.8960 N.am      8 SEL2        0.0000 
     29 N          13.7140   27.4000   18.0120 N.am      5 SEP2        0.0000 
     30 O          14.7290   25.1210   20.0355 O.2       1 ALC1        0.0000 
     31 O          15.1360   25.4890   18.8960 O.2       7 ALL1        0.0000 
     32 O          14.3220   24.7530   21.1750 O.2       4 ALP1        0.0000 
     33 O          17.8025   26.0500   19.0745 O.2       1 ALC1        0.0000 
     34 O          17.8510   24.8240   18.0620 O.2       7 ALL1        0.0000 
     35 O          17.7540   27.2760   20.0870 O.2       4 ALP1        0.0000 
     36 CA         20.8385   23.6745   23.3765 C.3       3 GLC5        0.0000 
     37 CA         20.2550   24.0950   21.5710 C.3       9 GLL5        0.0000 
     38 CA         21.4220   23.2540   25.1820 C.3       6 GLP5        0.0000 
     39 CA         21.8295   23.3330   22.9735 C.3       3 GLC5        0.0000 
     40 CA         20.9250   22.8940   21.3640 C.3       9 GLL5        0.0000 
     41 CA         22.7340   23.7720   24.5830 C.3       6 GLP5        0.0000 
     42 CA         12.5950   24.4655   18.2600 C.3       3 GLC5        0.0000 
     43 CA         14.4100   23.3100   18.0250 C.3       9 GLL5        0.0000 
     44 CA         10.7800   25.6210   18.4950 C.3       6 GLP5        0.0000 
     45 CA         12.6950   22.8555   19.2790 C.3       3 GLC5        0.0000 
     46 CA         10.9800   22.4010   20.5330 C.3       6 GLP5        0.0000 
     47 CA         15.2750   19.2430   15.2785 C.3       3 GLC5        0.0000 
     48 CA         13.9620   20.4310   15.6100 C.3       9 GLL5        0.0000 
     49 CA         16.5880   18.0550   14.9470 C.3       6 GLP5        0.0000 
     50 CA         11.9960   20.8605   11.8015 C.3       3 GLC5        0.0000 
     51 CA         13.3840   20.3870   13.1350 C.3       9 GLL5        0.0000 
     52 CA         10.6080   21.3340   10.4680 C.3       6 GLP5        0.0000 
     53 CA         16.9770   20.2430   12.8675 C.3       3 GLC5        0.0000 
     54 CA         14.8770   20.4700   12.6510 C.3       9 GLL5        0.0000 
     55 CA         19.0770   20.0160   13.0840 C.3       6 GLP5        0.0000 
     56 CA         15.1750   20.7990   10.5415 C.3       3 GLC5        0.0000 
     57 CA         15.2400   21.9250   12.4180 C.3       9 GLL5        0.0000 
     58 CA         15.1100   19.6730    8.6650 C.3       6 GLP5        0.0000 
     59 CA         15.1500   16.1400   20.4485 C.3       3 GLC5        0.0000 
     60 CA         14.9400   17.6990   19.2860 C.3       9 GLL5        0.0000 
     61 CA         15.3600   14.5810   21.6110 C.3       6 GLP5        0.0000 
     62 CA         11.4920   17.6230   22.0225 C.3       3 GLC5        0.0000 
     63 CA         12.9510   18.3520   20.6920 C.3       9 GLL5        0.0000 
     64 CA         10.0330   16.8940   23.3530 C.3       6 GLP5        0.0000 
     65 CA         13.7865   17.7350   22.4730 C.3       3 GLC5        0.0000 
     66 CA         14.6220   17.1180   24.2540 C.3       6 GLP5        0.0000 
     67 CA         14.8395   18.3910   22.6070 C.3       3 GLC5        0.0000 
     68 CA         15.0570   19.6640   20.9600 C.3       9 GLL5        0.0000 
     69 CA         16.2485   20.4680   22.1100 C.3       3 GLC5        0.0000 
     70 CA         17.4400   21.2720   23.2600 C.3       6 GLP5        0.0000 
     71 CA         23.4520   24.7035   22.9745 C.3       3 GLC5        0.0000 
     72 CA         24.4530   25.0060   21.2210 C.3       9 GLL5        0.0000 
     73 CA         24.2632   23.7978   23.1877 C.3       3 GLC5        0.0000 
     74 CA         26.0460   23.2100   21.6210 C.3       9 GLL5        0.0000 
     75 CA         25.1376   21.7181   22.1504 C.3       3 GLC5        0.0000 
     76 CA         25.5390   24.4370   21.9640 C.3       9 GLL5        0.0000 
     77 CA         24.5890   20.2840   23.1520 C.3       6 GLP5        0.0000 
     78 CA         17.5400   22.3067   21.7080 C.3       3 GLC5        0.0000 
     79 CA         18.3400   23.2450   20.4130 C.3       9 GLL5        0.0000 
     80 CA         19.0675   20.1425   20.3745 C.3       3 GLC5        0.0000 
     81 CA         20.2740   21.8630   20.6930 C.3       9 GLL5        0.0000 
     82 CA         18.4950   18.3460   20.3020 C.3       6 GLP5        0.0000 
     83 CA         18.8040   25.4485   22.5328 C.3       3 GLC5        0.0000 
     84 CA         18.9990   24.2510   21.0720 C.3       9 GLL5        0.0000 
     85 CA         17.9810   26.7240   23.7440 C.3       6 GLP5        0.0000 
     86 CA         22.0328   21.1747   21.6573 C.3       3 GLC5        0.0000 
     87 CA         20.9862   21.8387   19.0802 C.3       3 GLC5        0.0000 
     88 CA         14.0278   19.6538   11.0500 C.3       3 GLC5        0.0000 
     89 CA         13.9250   18.8790    9.2070 C.3       6 GLP5        0.0000 
     90 CA         15.3593   19.2417   13.9200 C.3       3 GLC5        0.0000 
     91 CA         16.8970   22.1588   12.1073 C.3       3 GLC5        0.0000 
     92 CA         18.5760   22.0310   11.1140 C.3       6 GLP5        0.0000 
     93 CA         11.9655   24.0420   14.9100 C.3       3 GLC5        0.0000 
     94 CA         13.7780   22.5960   14.3430 C.3       9 GLL5        0.0000 
     95 CA         10.1880   25.1460   14.7890 C.3       6 GLP5        0.0000 
     96 CA         13.7942   24.5230   13.7080 C.3       3 GLC5        0.0000 
     97 CA         13.7080   23.2800   15.7190 C.3       9 GLL5        0.0000 
     98 CA         13.4910   26.0950   12.5250 C.3       6 GLP5        0.0000 
     99 CA         16.6547   18.6619   20.2961 C.3       3 GLC5        0.0000 
    100 CA         14.2040   18.8840   19.9550 C.3       9 GLL5        0.0000 
    101 CA         13.1346   20.7095   21.1754 C.3       3 GLC5        0.0000 
    102 CA         11.9520   22.2780   21.7090 C.3       6 GLP5        0.0000 
    103 CA         18.6974   22.2834   22.1868 C.3       3 GLC5        0.0000 
    104 CA         19.0060   22.0150   20.2010 C.3       9 GLL5        0.0000 
@<TRIPOS>BOND
@<TRIPOS>SUBSTRUCTURE
     1 ALC1       11 GROUP        1 X    ALC  0     ROOT ALC X 1
     2 SEC2        1 GROUP        1 X    SEC  0     **** SEC X 2
     3 GLC5        4 GROUP        1 X    GLC  0     **** GLC X 6
     4 ALP1       13 GROUP        1 Y    ALP  0     ROOT ALP Y 8
     5 SEP2        3 GROUP        1 Y    SEP  0     **** SEP Y 9
     6 GLP5        6 GROUP        1 Y    GLP  0     **** GLP Y 13
     7 ALL1       12 GROUP        1 Z    ALL  0     ROOT ALL Z 15
     8 SEL2        2 GROUP        1 Z    SEL  0     **** SEL Z 16
     9 GLL5        5 GROUP        1 Z    GLL  0     **** GLL Z 20
@<TRIPOS>SET

