#    Name: 3d1x_ROC_1_ligand
#    Modification time : Mon Mar 24 22:33:24 2014

@<TRIPOS>MOLECULE
3d1x_ROC_1_ligand
  100   104     1     0     0
SMALL
NO_CHARGES


@<TRIPOS>ATOM
      1 C          21.3540   26.4210   18.7210 C.2       1 ROC201      0.0000 
      2 O          20.8880   27.5860   18.7790 O.2       1 ROC201      0.0000 
      3 N1         22.9830   24.7550   19.3350 N.ar      1 ROC201      0.0000 
      4 C2         22.4590   25.9450   19.6160 C.ar      1 ROC201      0.0000 
      5 C3         22.8880   26.7680   20.6730 C.ar      1 ROC201      0.0000 
      6 C4         23.8870   26.2640   21.5110 C.ar      1 ROC201      0.0000 
      7 C5         25.5390   24.4370   21.9640 C.ar      1 ROC201      0.0000 
      8 C6         26.0460   23.2100   21.6210 C.ar      1 ROC201      0.0000 
      9 C7         25.5800   22.4810   20.5050 C.ar      1 ROC201      0.0000 
     10 C8         24.5110   22.9740   19.7990 C.ar      1 ROC201      0.0000 
     11 C4A        24.4530   25.0060   21.2210 C.ar      1 ROC201      0.0000 
     12 C8A        23.9800   24.2600   20.1140 C.ar      1 ROC201      0.0000 
     13 N          20.9110   25.4820   17.8890 N.am      1 ROC201      0.0000 
     14 CA         19.7960   25.7200   17.0150 C.3       1 ROC201      0.0000 
     15 C1         18.8000   24.5730   17.1640 C.2       1 ROC201      0.0000 
     16 O1         18.9590   23.5070   16.4880 O.2       1 ROC201      0.0000 
     17 CB         20.1660   25.8770   15.5150 C.3       1 ROC201      0.0000 
     18 CG         21.0980   27.0740   15.4080 C.2       1 ROC201      0.0000 
     19 OD1        20.6300   28.1960   15.4340 O.2       1 ROC201      0.0000 
     20 ND2        22.4150   26.7410   15.3790 N.am      1 ROC201      0.0000 
     21 C9         15.4820   24.3820   18.0270 C.3       1 ROC201      0.0000 
     22 O2         15.1360   25.4890   18.8960 O.3       1 ROC201      0.0000 
     23 CA1        16.8610   23.8240   18.4140 C.3       1 ROC201      0.0000 
     24 N2         17.8510   24.8240   18.0620 N.am      1 ROC201      0.0000 
     25 CB1        16.9400   23.4380   19.8990 C.3       1 ROC201      0.0000 
     26 CG1        18.3400   23.2450   20.4130 C.ar      1 ROC201      0.0000 
     27 CD1        19.0060   22.0150   20.2010 C.ar      1 ROC201      0.0000 
     28 CD2        18.9990   24.2510   21.0720 C.ar      1 ROC201      0.0000 
     29 CE1        20.2740   21.8630   20.6930 C.ar      1 ROC201      0.0000 
     30 CE2        20.2550   24.0950   21.5710 C.ar      1 ROC201      0.0000 
     31 CZ         20.9250   22.8940   21.3640 C.ar      1 ROC201      0.0000 
     32 N11        14.4490   22.5180   16.7590 N.4       1 ROC201      0.0000 
     33 CM         14.4100   23.3100   18.0250 C.3       1 ROC201      0.0000 
     34 C21        13.8250   21.2270   16.9320 C.3       1 ROC201      0.0000 
     35 CC         14.5650   20.4090   17.9880 C.2       1 ROC201      0.0000 
     36 O3         15.7780   20.3430   18.0220 O.2       1 ROC201      0.0000 
     37 C31        13.9620   20.4310   15.6100 C.3       1 ROC201      0.0000 
     38 C3A        13.2050   21.1690   14.4950 C.3       1 ROC201      0.0000 
     39 C41        13.3840   20.3870   13.1350 C.3       1 ROC201      0.0000 
     40 C51        14.8770   20.4700   12.6510 C.3       1 ROC201      0.0000 
     41 C61        15.2400   21.9250   12.4180 C.3       1 ROC201      0.0000 
     42 C71        15.1960   22.6480   13.7830 C.3       1 ROC201      0.0000 
     43 C7A        13.7780   22.5960   14.3430 C.3       1 ROC201      0.0000 
     44 C81        13.7080   23.2800   15.7190 C.3       1 ROC201      0.0000 
     45 N3         13.7280   19.7880   18.8800 N.am      1 ROC201      0.0000 
     46 CD         14.2040   18.8840   19.9550 C.3       1 ROC201      0.0000 
     47 C11        14.9400   17.6990   19.2860 C.3       1 ROC201      0.0000 
     48 C22        12.9510   18.3520   20.6920 C.3       1 ROC201      0.0000 
     49 C32        15.0570   19.6640   20.9600 C.3       1 ROC201      0.0000 
     50 H          22.4903   27.6797   20.8163 H         1 ROC201      0.0000 
     51 H          24.2045   26.7932   22.3195 H         1 ROC201      0.0000 
     52 H          25.9204   24.9731   22.7530 H         1 ROC201      0.0000 
     53 H          26.8073   22.7830   22.1971 H         1 ROC201      0.0000 
     54 H          26.0391   21.6109   20.2445 H         1 ROC201      0.0000 
     55 H          24.0772   22.4365   19.0409 H         1 ROC201      0.0000 
     56 H          21.3510   24.5390   17.8357 H         1 ROC201      0.0000 
     57 H          19.2610   26.6327   17.3111 H         1 ROC201      0.0000 
     58 H          19.2707   26.0549   14.9542 H         1 ROC201      0.0000 
     59 H          20.6668   24.9887   15.1870 H         1 ROC201      0.0000 
     60 H          22.6255   25.7691   15.4844 H         1 ROC201      0.0000 
     61 H          23.0574   27.4972   15.2548 H         1 ROC201      0.0000 
     62 H          15.5779   24.7578   16.9898 H         1 ROC201      0.0000 
     63 H          17.0217   22.9243   17.8178 H         1 ROC201      0.0000 
     64 H          17.7732   25.7384   18.5498 H         1 ROC201      0.0000 
     65 H          16.3596   22.5091   20.0475 H         1 ROC201      0.0000 
     66 H          16.4338   24.2236   20.4892 H         1 ROC201      0.0000 
     67 H          18.5335   21.2713   19.6903 H         1 ROC201      0.0000 
     68 H          18.5111   25.1763   21.1939 H         1 ROC201      0.0000 
     69 H          20.7734   20.9558   20.5671 H         1 ROC201      0.0000 
     70 H          20.7160   24.8487   22.0974 H         1 ROC201      0.0000 
     71 H          21.8819   22.7698   21.6997 H         1 ROC201      0.0000 
     72 H          15.4728   22.4113   16.4438 H         1 ROC201      0.0000 
     73 H          13.4307   23.7856   18.1363 H         1 ROC201      0.0000 
     74 H          14.5664   22.6485   18.8826 H         1 ROC201      0.0000 
     75 H          12.8058   21.2857   17.1800 H         1 ROC201      0.0000 
     76 H          13.5376   19.4487   15.7452 H         1 ROC201      0.0000 
     77 H          15.0062   20.3580   15.3499 H         1 ROC201      0.0000 
     78 H          12.1758   21.2184   14.7252 H         1 ROC201      0.0000 
     79 H          12.7480   20.8349   12.3915 H         1 ROC201      0.0000 
     80 H          13.1220   19.3551   13.2916 H         1 ROC201      0.0000 
     81 H          14.9655   19.9099   11.7348 H         1 ROC201      0.0000 
     82 H          15.5036   20.0451   13.4177 H         1 ROC201      0.0000 
     83 H          14.5250   22.3824   11.7574 H         1 ROC201      0.0000 
     84 H          16.2352   21.9973   12.0166 H         1 ROC201      0.0000 
     85 H          15.4961   23.6780   13.6443 H         1 ROC201      0.0000 
     86 H          15.8757   22.1535   14.4640 H         1 ROC201      0.0000 
     87 H          13.1111   23.1510   13.6786 H         1 ROC201      0.0000 
     88 H          14.1225   24.2914   15.6211 H         1 ROC201      0.0000 
     89 H          12.6518   23.3785   16.0001 H         1 ROC201      0.0000 
     90 H          12.6963   19.9297   18.8377 H         1 ROC201      0.0000 
     91 H          15.7248   18.0056   18.7474 H         1 ROC201      0.0000 
     92 H          15.2847   17.0470   19.9613 H         1 ROC201      0.0000 
     93 H          14.3405   17.1910   18.6675 H         1 ROC201      0.0000 
     94 H          13.1942   17.7323   21.4382 H         1 ROC201      0.0000 
     95 H          12.4119   19.0938   21.0909 H         1 ROC201      0.0000 
     96 H          12.3451   17.8470   20.0773 H         1 ROC201      0.0000 
     97 H          15.3943   19.0766   21.6956 H         1 ROC201      0.0000 
     98 H          15.8568   20.0783   20.5256 H         1 ROC201      0.0000 
     99 H          14.5404   20.4045   21.3898 H         1 ROC201      0.0000 
    100 H          15.2976   25.1505   19.8230 H         1 ROC201      0.0000 
@<TRIPOS>BOND
     1    2    1 2    
     2    4    1 1    
     3   13    1 am   
     4    4    3 ar   
     5   12    3 ar   
     6    5    4 ar   
     7    6    5 ar   
     8   50    5 1    
     9   11    6 ar   
    10   51    6 1    
    11    8    7 ar   
    12   11    7 ar   
    13   52    7 1    
    14    9    8 ar   
    15   53    8 1    
    16   10    9 ar   
    17   54    9 1    
    18   12   10 ar   
    19   55   10 1    
    20   12   11 ar   
    21   14   13 1    
    22   56   13 1    
    23   15   14 1    
    24   17   14 1    
    25   57   14 1    
    26   16   15 2    
    27   24   15 am   
    28   18   17 1    
    29   58   17 1    
    30   59   17 1    
    31   19   18 2    
    32   20   18 am   
    33   60   20 1    
    34   61   20 1    
    35   22   21 1    
    36   23   21 1    
    37   33   21 1    
    38   62   21 1    
    39  100   22 1    
    40   24   23 1    
    41   25   23 1    
    42   63   23 1    
    43   64   24 1    
    44   26   25 1    
    45   65   25 1    
    46   66   25 1    
    47   27   26 ar   
    48   28   26 ar   
    49   29   27 ar   
    50   67   27 1    
    51   30   28 ar   
    52   68   28 1    
    53   31   29 ar   
    54   69   29 1    
    55   31   30 ar   
    56   70   30 1    
    57   71   31 1    
    58   33   32 1    
    59   34   32 1    
    60   44   32 1    
    61   72   32 1    
    62   73   33 1    
    63   74   33 1    
    64   35   34 1    
    65   37   34 1    
    66   75   34 1    
    67   36   35 2    
    68   45   35 am   
    69   38   37 1    
    70   76   37 1    
    71   77   37 1    
    72   39   38 1    
    73   43   38 1    
    74   78   38 1    
    75   40   39 1    
    76   79   39 1    
    77   80   39 1    
    78   41   40 1    
    79   81   40 1    
    80   82   40 1    
    81   42   41 1    
    82   83   41 1    
    83   84   41 1    
    84   43   42 1    
    85   85   42 1    
    86   86   42 1    
    87   44   43 1    
    88   87   43 1    
    89   88   44 1    
    90   89   44 1    
    91   46   45 1    
    92   90   45 1    
    93   47   46 1    
    94   48   46 1    
    95   49   46 1    
    96   91   47 1    
    97   92   47 1    
    98   93   47 1    
    99   94   48 1    
   100   95   48 1    
   101   96   48 1    
   102   97   49 1    
   103   98   49 1    
   104   99   49 1    
@<TRIPOS>SUBSTRUCTURE
     1 ROC201      1 GROUP   
@<TRIPOS>SET

