#    Name: 2qfv_NAP_4_INTS_M
#    Modification time : Mon Mar 24 21:55:57 2014

@<TRIPOS>MOLECULE
2qfv_NAP_4_INTS_M
   75     0    12     0     0
SMALL
NO_CHARGES


@<TRIPOS>ATOM
      1 N         -32.7330  -27.6630  -37.5590 N.am      2 SEC2        0.0000 
      2 N         -31.8680  -28.8750  -36.8740 N.am     10 SEL2        0.0000 
      3 N         -33.5980  -26.4510  -38.2440 N.am      6 SEP2        0.0000 
      4 N         -31.8095  -28.7435  -40.7060 N.am      2 SEC2        0.0000 
      5 N         -32.2040  -28.7890  -39.3930 N.am     10 SEL2        0.0000 
      6 N         -31.4150  -28.6980  -42.0190 N.am      6 SEP2        0.0000 
      7 CA        -32.8925  -32.8040  -40.9185 C.3       4 GLC5        0.0000 
      8 CA        -32.6340  -33.6730  -39.0570 C.3      12 GLL5        0.0000 
      9 CA        -33.1510  -31.9350  -42.7800 C.3       8 GLP5        0.0000 
     10 N         -29.8930  -33.8760  -38.7835 N.am      2 SEC2        0.0000 
     11 N         -31.4170  -34.3280  -39.4270 N.am     10 SEL2        0.0000 
     12 N         -28.3690  -33.4240  -38.1400 N.am      6 SEP2        0.0000 
     13 CA        -35.6975  -30.6125  -42.1300 C.3       4 GLC5        0.0000 
     14 CA        -37.4910  -31.6910  -41.5300 C.3      12 GLL5        0.0000 
     15 CA        -33.9040  -29.5340  -42.7300 C.3       8 GLP5        0.0000 
     16 CA        -36.9440  -31.7050  -43.3655 C.3       4 GLC5        0.0000 
     17 CA        -36.3970  -31.7190  -45.2010 C.3       8 GLP5        0.0000 
     18 CA        -39.3770  -32.1545  -42.1870 C.3       4 GLC5        0.0000 
     19 CA        -41.2630  -32.6180  -42.8440 C.3       8 GLP5        0.0000 
     20 O         -38.1710  -28.8625  -41.4945 O.2       1 ALC1        0.0000 
     21 O         -37.9020  -30.5120  -41.9880 O.2       9 ALL1        0.0000 
     22 O         -38.4400  -27.2130  -41.0010 O.2       5 ALP1        0.0000 
     23 O         -38.9505  -30.3355  -43.0320 O.2       1 ALC1        0.0000 
     24 O         -39.9990  -30.1590  -44.0760 O.2       5 ALP1        0.0000 
     25 N         -38.7145  -32.8935  -43.3020 N.am      2 SEC2        0.0000 
     26 N         -37.9220  -32.8320  -42.0920 N.am     10 SEL2        0.0000 
     27 N         -39.5070  -32.9550  -44.5120 N.am      6 SEP2        0.0000 
     28 CA        -35.9395  -34.4345  -43.0290 C.3       4 GLC5        0.0000 
     29 CA        -37.5390  -34.0120  -41.6340 C.3      12 GLL5        0.0000 
     30 CA        -34.3400  -34.8570  -44.4240 C.3       8 GLP5        0.0000 
     31 CA        -37.5965  -33.9210  -43.7315 C.3       4 GLC5        0.0000 
     32 CA        -37.6540  -33.8300  -45.8290 C.3       8 GLP5        0.0000 
     33 CA        -39.4010  -33.3150  -42.2390 C.3       4 GLC5        0.0000 
     34 CA        -38.7365  -35.3770  -40.8480 C.3       4 GLC5        0.0000 
     35 CA        -39.9340  -36.7420  -40.0620 C.3       8 GLP5        0.0000 
     36 NZ        -28.1400  -31.9320  -37.8305 N.4       3 LYC4        0.0000 
     37 NZ        -27.9110  -30.4400  -37.5210 N.4      11 LYL4        0.0000 
     38 NZ        -27.5120  -34.2810  -37.6140 N.4       7 LYP4        0.0000 
     39 N         -28.1400  -31.9320  -37.8305 N.am      2 SEC2        0.0000 
     40 N         -27.9110  -30.4400  -37.5210 N.am     10 SEL2        0.0000 
     41 CA        -27.3335  -29.0690  -40.7790 C.3       4 GLC5        0.0000 
     42 CA        -28.0350  -27.9370  -39.2530 C.3      12 GLL5        0.0000 
     43 CA        -26.6320  -30.2010  -42.3050 C.3       8 GLP5        0.0000 
     44 CA        -28.8560  -26.1225  -41.3740 C.3       4 GLC5        0.0000 
     45 CA        -27.7650  -26.4790  -39.6330 C.3      12 GLL5        0.0000 
     46 CA        -29.9470  -25.7660  -43.1150 C.3       8 GLP5        0.0000 
     47 N         -30.1705  -25.9250  -40.2505 N.am      2 SEC2        0.0000 
     48 N         -28.9660  -25.7350  -39.3580 N.am     10 SEL2        0.0000 
     49 N         -31.3750  -26.1150  -41.1430 N.am      6 SEP2        0.0000 
     50 N         -26.1765  -22.6500  -38.2010 N.am      2 SEC2        0.0000 
     51 N         -26.6670  -23.9010  -37.3320 N.am     10 SEL2        0.0000 
     52 N         -25.6860  -21.3990  -39.0700 N.am      6 SEP2        0.0000 
     53 CA        -27.5375  -23.2625  -39.9470 C.3       4 GLC5        0.0000 
     54 CA        -28.5910  -24.5670  -38.6100 C.3      12 GLL5        0.0000 
     55 CA        -26.4840  -21.9580  -41.2840 C.3       8 GLP5        0.0000 
     56 CA        -30.5290  -25.2470  -38.8010 C.3       4 GLC5        0.0000 
     57 CA        -32.4670  -25.9270  -38.9920 C.3       8 GLP5        0.0000 
     58 CA        -29.2205  -24.4145  -40.7190 C.3       4 GLC5        0.0000 
     59 CA        -29.8500  -24.2620  -42.8280 C.3       8 GLP5        0.0000 
     60 O         -30.4735  -21.0990  -39.7650 O.2       1 ALC1        0.0000 
     61 O         -31.9110  -20.6740  -39.2380 O.2       9 ALL1        0.0000 
     62 O         -29.0360  -21.5240  -40.2920 O.2       5 ALP1        0.0000 
     63 N         -31.5710  -38.9935  -38.8305 N.am      2 SEC2        0.0000 
     64 N         -32.8620  -38.3700  -38.2930 N.am     10 SEL2        0.0000 
     65 N         -30.2800  -39.6170  -39.3680 N.am      6 SEP2        0.0000 
     66 N         -30.8870  -38.1995  -39.5740 N.am      2 SEC2        0.0000 
     67 N         -31.4940  -36.7820  -39.7800 N.am     10 SEL2        0.0000 
     68 CA        -38.9355  -31.2340  -40.1600 C.3       4 GLC5        0.0000 
     69 CA        -36.6210  -31.7570  -40.4480 C.3      12 GLL5        0.0000 
     70 CA        -40.8150  -30.7440  -39.3310 C.3       8 GLP5        0.0000 
     71 CA        -34.7910  -32.1595  -41.5005 C.3       4 GLC5        0.0000 
     72 CA        -31.7665  -24.3463  -38.5225 C.3       4 GLC5        0.0000 
     73 CA        -30.4930  -22.9840  -38.3810 C.3      12 GLL5        0.0000 
     74 CA        -31.6814  -25.0437  -37.7216 C.3       4 GLC5        0.0000 
     75 CA        -32.0240  -23.1560  -36.5340 C.3      12 GLL5        0.0000 
@<TRIPOS>BOND
@<TRIPOS>SUBSTRUCTURE
     1 ALC1       20 GROUP        1 X    ALC  0     ROOT ALC X 1
     2 SEC2        1 GROUP        1 X    SEC  0     **** SEC X 2
     3 LYC4       36 GROUP        1 X    LYC  0     **** LYC X 4
     4 GLC5        7 GROUP        1 X    GLC  0     **** GLC X 6
     5 ALP1       22 GROUP        1 Y    ALP  0     ROOT ALP Y 8
     6 SEP2        3 GROUP        1 Y    SEP  0     **** SEP Y 9
     7 LYP4       38 GROUP        1 Y    LYP  0     **** LYP Y 11
     8 GLP5        9 GROUP        1 Y    GLP  0     **** GLP Y 13
     9 ALL1       21 GROUP        1 Z    ALL  0     ROOT ALL Z 15
    10 SEL2        2 GROUP        1 Z    SEL  0     **** SEL Z 16
    11 LYL4       37 GROUP        1 Z    LYL  0     **** LYL Z 18
    12 GLL5        8 GROUP        1 Z    GLL  0     **** GLL Z 20
@<TRIPOS>SET

