#    Name: 2qfv_NAP_4_ligand
#    Modification time : Mon Mar 24 21:55:58 2014

@<TRIPOS>MOLECULE
2qfv_NAP_4_ligand
   73    77     1     0     0
SMALL
NO_CHARGES


@<TRIPOS>ATOM
      1 PA        -31.7290  -29.5200  -38.1980 P.3       1 NAP1004     0.0000 
      2 O1A       -31.8680  -28.8750  -36.8740 O.co2     1 NAP1004     0.0000 
      3 O2A       -32.2040  -28.7890  -39.3930 O.co2     1 NAP1004     0.0000 
      4 O5B       -32.4130  -30.9750  -38.1410 O.3       1 NAP1004     0.0000 
      5 C5B       -31.8410  -32.0130  -37.3410 C.3       1 NAP1004     0.0000 
      6 C4B       -32.5890  -33.3280  -37.5690 C.3       1 NAP1004     0.0000 
      7 O4B       -33.9650  -33.2630  -37.1490 O.3       1 NAP1004     0.0000 
      8 C3B       -32.6340  -33.6730  -39.0570 C.3       1 NAP1004     0.0000 
      9 O3B       -31.4170  -34.3280  -39.4270 O.3       1 NAP1004     0.0000 
     10 C2B       -33.7850  -34.6760  -39.0230 C.3       1 NAP1004     0.0000 
     11 O2B       -33.3920  -35.8610  -38.3260 O.3       1 NAP1004     0.0000 
     12 C1B       -34.7730  -33.8840  -38.1650 C.3       1 NAP1004     0.0000 
     13 N9A       -35.4090  -32.8180  -38.9750 N.pl3     1 NAP1004     0.0000 
     14 C8A       -35.2680  -31.5080  -38.7980 C.2       1 NAP1004     0.0000 
     15 N7A       -36.0080  -30.8520  -39.6900 N.2       1 NAP1004     0.0000 
     16 C5A       -36.6210  -31.7570  -40.4480 C.ar      1 NAP1004     0.0000 
     17 C6A       -37.4910  -31.6910  -41.5300 C.ar      1 NAP1004     0.0000 
     18 N6A       -37.9020  -30.5120  -41.9880 N.pl3     1 NAP1004     0.0000 
     19 N1A       -37.9220  -32.8320  -42.0920 N.ar      1 NAP1004     0.0000 
     20 C2A       -37.5390  -34.0120  -41.6340 C.ar      1 NAP1004     0.0000 
     21 N3A       -36.7150  -34.1100  -40.6030 N.ar      1 NAP1004     0.0000 
     22 C4A       -36.2410  -33.0110  -39.9940 C.ar      1 NAP1004     0.0000 
     23 O3        -30.1800  -29.8880  -38.4330 O.3       1 NAP1004     0.0000 
     24 PN        -29.0350  -29.4880  -37.3760 P.3       1 NAP1004     0.0000 
     25 O1N       -29.6300  -29.3030  -36.0350 O.co2     1 NAP1004     0.0000 
     26 O2N       -27.9110  -30.4400  -37.5210 O.co2     1 NAP1004     0.0000 
     27 O5D       -28.5450  -28.0530  -37.9220 O.3       1 NAP1004     0.0000 
     28 C5D       -28.0350  -27.9370  -39.2530 C.3       1 NAP1004     0.0000 
     29 C4D       -27.7650  -26.4790  -39.6330 C.3       1 NAP1004     0.0000 
     30 O4D       -28.9660  -25.7350  -39.3580 O.3       1 NAP1004     0.0000 
     31 C3D       -26.6480  -25.8450  -38.7990 C.3       1 NAP1004     0.0000 
     32 O3D       -25.8460  -24.9730  -39.6010 O.3       1 NAP1004     0.0000 
     33 C2D       -27.4180  -25.0430  -37.7530 C.3       1 NAP1004     0.0000 
     34 O2D       -26.6670  -23.9010  -37.3320 O.3       1 NAP1004     0.0000 
     35 C1D       -28.5910  -24.5670  -38.6100 C.3       1 NAP1004     0.0000 
     36 N1N       -29.7430  -24.0380  -37.8430 N.pl3     1 NAP1004     0.0000 
     37 C2N       -30.4930  -22.9840  -38.3810 C.ar      1 NAP1004     0.0000 
     38 C3N       -31.6390  -22.5470  -37.7250 C.ar      1 NAP1004     0.0000 
     39 C7N       -32.5150  -21.4550  -38.3460 C.2       1 NAP1004     0.0000 
     40 O7N       -33.7040  -21.3580  -38.0450 O.2       1 NAP1004     0.0000 
     41 N7N       -31.9110  -20.6740  -39.2380 N.am      1 NAP1004     0.0000 
     42 C4N       -32.0240  -23.1560  -36.5340 C.ar      1 NAP1004     0.0000 
     43 C5N       -31.2830  -24.1980  -35.9870 C.ar      1 NAP1004     0.0000 
     44 C6N       -30.1380  -24.6440  -36.6420 C.ar      1 NAP1004     0.0000 
     45 P2B       -32.9240  -37.1640  -39.1480 P.3       1 NAP1004     0.0000 
     46 O1X       -32.8620  -38.3700  -38.2930 O.co2     1 NAP1004     0.0000 
     47 O2X       -33.9320  -37.3480  -40.3900 O.co2     1 NAP1004     0.0000 
     48 O3X       -31.4940  -36.7820  -39.7800 O.co2     1 NAP1004     0.0000 
     49 H         -31.8976  -31.7784  -36.2704 H         1 NAP1004     0.0000 
     50 H         -30.7855  -32.1823  -37.5895 H         1 NAP1004     0.0000 
     51 H         -32.0722  -34.1252  -37.0664 H         1 NAP1004     0.0000 
     52 H         -32.9021  -32.8506  -39.5939 H         1 NAP1004     0.0000 
     53 H         -34.1685  -34.7985  -39.9631 H         1 NAP1004     0.0000 
     54 H         -35.4795  -34.5391  -37.7565 H         1 NAP1004     0.0000 
     55 H         -34.7044  -31.0868  -38.1141 H         1 NAP1004     0.0000 
     56 H         -38.5261  -30.5366  -42.7689 H         1 NAP1004     0.0000 
     57 H         -37.5498  -29.7073  -41.5101 H         1 NAP1004     0.0000 
     58 H         -37.8969  -34.8924  -42.0991 H         1 NAP1004     0.0000 
     59 H         -28.7418  -28.3481  -39.9950 H         1 NAP1004     0.0000 
     60 H         -27.0885  -28.4925  -39.3740 H         1 NAP1004     0.0000 
     61 H         -27.5119  -26.4214  -40.6641 H         1 NAP1004     0.0000 
     62 H         -26.1137  -26.6069  -38.3149 H         1 NAP1004     0.0000 
     63 H         -27.7630  -25.6634  -37.0163 H         1 NAP1004     0.0000 
     64 H         -28.2080  -23.8171  -39.2918 H         1 NAP1004     0.0000 
     65 H         -30.1946  -22.5396  -39.2549 H         1 NAP1004     0.0000 
     66 H         -32.4785  -19.9666  -39.6593 H         1 NAP1004     0.0000 
     67 H         -30.9440  -20.8649  -39.4067 H         1 NAP1004     0.0000 
     68 H         -32.8772  -22.8270  -36.0472 H         1 NAP1004     0.0000 
     69 H         -31.5769  -24.6351  -35.1080 H         1 NAP1004     0.0000 
     70 H         -29.5836  -25.4116  -36.2514 H         1 NAP1004     0.0000 
     71 H         -31.7018  -35.1047  -39.9888 H         1 NAP1004     0.0000 
     72 H         -25.9150  -24.0786  -39.1590 H         1 NAP1004     0.0000 
     73 H         -27.3271  -23.3173  -36.8593 H         1 NAP1004     0.0000 
@<TRIPOS>BOND
     1    2    1 ar   
     2    3    1 ar   
     3    4    1 1    
     4   23    1 1    
     5    5    4 1    
     6    6    5 1    
     7   49    5 1    
     8   50    5 1    
     9    7    6 1    
    10    8    6 1    
    11   51    6 1    
    12   12    7 1    
    13    9    8 1    
    14   10    8 1    
    15   52    8 1    
    16   71    9 1    
    17   11   10 1    
    18   12   10 1    
    19   53   10 1    
    20   45   11 1    
    21   13   12 1    
    22   54   12 1    
    23   14   13 1    
    24   22   13 1    
    25   15   14 2    
    26   55   14 1    
    27   16   15 1    
    28   17   16 ar   
    29   22   16 ar   
    30   18   17 1    
    31   19   17 ar   
    32   56   18 1    
    33   57   18 1    
    34   20   19 ar   
    35   21   20 ar   
    36   58   20 1    
    37   22   21 ar   
    38   24   23 1    
    39   25   24 ar   
    40   26   24 ar   
    41   27   24 1    
    42   28   27 1    
    43   29   28 1    
    44   59   28 1    
    45   60   28 1    
    46   30   29 1    
    47   31   29 1    
    48   61   29 1    
    49   35   30 1    
    50   32   31 1    
    51   33   31 1    
    52   62   31 1    
    53   72   32 1    
    54   34   33 1    
    55   35   33 1    
    56   63   33 1    
    57   73   34 1    
    58   36   35 1    
    59   64   35 1    
    60   37   36 ar   
    61   44   36 ar   
    62   38   37 ar   
    63   65   37 1    
    64   39   38 1    
    65   42   38 ar   
    66   40   39 2    
    67   41   39 am   
    68   66   41 1    
    69   67   41 1    
    70   43   42 ar   
    71   68   42 1    
    72   44   43 ar   
    73   69   43 1    
    74   70   44 1    
    75   46   45 ar   
    76   47   45 ar   
    77   48   45 ar   
@<TRIPOS>SUBSTRUCTURE
     1 NAP1004     1 GROUP   
@<TRIPOS>SET

