#    Name: 3vb5_ALA_VAL_LEU_PHQ_0JU_1_INTS_M
#    Modification time : Tue Mar 25 00:24:42 2014

@<TRIPOS>MOLECULE
3vb5_ALA_VAL_LEU_PHQ_0JU_1_INTS_M
   77     0     9     0     0
SMALL
NO_CHARGES


@<TRIPOS>ATOM
      1 O          -4.1735  -20.2815   37.1720 O.2       1 ALC1        0.0000 
      2 O          -2.9080  -19.8950   36.6340 O.2       7 ALL1        0.0000 
      3 O          -5.4390  -20.6680   37.7100 O.2       4 ALP1        0.0000 
      4 CA         -3.9295  -15.7350   36.8070 C.3       3 GLC5        0.0000 
      5 CA         -3.6200  -17.5340   36.6950 C.3       9 GLL5        0.0000 
      6 CA         -4.2390  -13.9360   36.9190 C.3       6 GLP5        0.0000 
      7 CA         -5.1310  -18.3650   35.4855 C.3       3 GLC5        0.0000 
      8 CA         -6.6420  -19.1960   34.2760 C.3       6 GLP5        0.0000 
      9 O          -0.3515  -16.8795   36.1760 O.2       1 ALC1        0.0000 
     10 O          -0.5880  -17.1900   37.5420 O.2       7 ALL1        0.0000 
     11 O          -0.1150  -16.5690   34.8100 O.2       4 ALP1        0.0000 
     12 N           0.5330  -14.1780   36.3855 N.am      2 SEC2        0.0000 
     13 N           0.6560  -14.5300   37.7740 N.am      8 SEL2        0.0000 
     14 N           0.4100  -13.8260   34.9970 N.am      5 SEP2        0.0000 
     15 O          -0.1015  -15.7175   40.9530 O.2       1 ALC1        0.0000 
     16 O          -0.2410  -14.7930   39.8250 O.2       7 ALL1        0.0000 
     17 O           0.0380  -16.6420   42.0810 O.2       4 ALP1        0.0000 
     18 CA         -1.0390  -13.1390   38.4035 C.3       3 GLC5        0.0000 
     19 CA         -0.3730  -13.3650   40.0790 C.3       9 GLL5        0.0000 
     20 CA         -1.7050  -12.9130   36.7280 C.3       6 GLP5        0.0000 
     21 CA         -1.1930  -11.3335   42.2860 C.3       3 GLC5        0.0000 
     22 CA         -1.0000  -13.2550   41.4650 C.3       9 GLL5        0.0000 
     23 CA         -1.3860   -9.4120   43.1070 C.3       6 GLP5        0.0000 
     24 CA         -0.4300  -13.8815   43.3845 C.3       3 GLC5        0.0000 
     25 CA          0.1400  -14.5080   45.3040 C.3       6 GLP5        0.0000 
     26 CA         -3.4960  -11.7410   43.2625 C.3       3 GLC5        0.0000 
     27 CA         -3.1210  -13.6790   42.7730 C.3       9 GLL5        0.0000 
     28 CA         -3.8710   -9.8030   43.7520 C.3       6 GLP5        0.0000 
     29 CA         -1.4905  -14.0935   44.0385 C.3       3 GLC5        0.0000 
     30 CA         -4.8595  -14.7755   42.2195 C.3       3 GLC5        0.0000 
     31 CA         -6.5980  -15.8720   41.6660 C.3       6 GLP5        0.0000 
     32 CA         -2.9790  -11.3205   41.5930 C.3       3 GLC5        0.0000 
     33 CA         -3.2520  -13.1100   40.3310 C.3       9 GLL5        0.0000 
     34 CA         -2.7060   -9.5310   42.8550 C.3       6 GLP5        0.0000 
     35 CA         -3.7455  -13.5230   38.6250 C.3       3 GLC5        0.0000 
     36 CA         -5.2915  -12.8510   40.0855 C.3       3 GLC5        0.0000 
     37 CA         -7.3310  -12.5920   39.8400 C.3       6 GLP5        0.0000 
     38 CA         -0.5660  -21.6620   34.2745 C.3       3 GLC5        0.0000 
     39 CA          0.2770  -21.5110   35.7020 C.3       9 GLL5        0.0000 
     40 CA         -1.4090  -21.8130   32.8470 C.3       6 GLP5        0.0000 
     41 CA          2.4655  -16.9105   34.0995 C.3       3 GLC5        0.0000 
     42 CA          2.4980  -18.9460   34.1140 C.3       9 GLL5        0.0000 
     43 CA          2.4330  -14.8750   34.0850 C.3       6 GLP5        0.0000 
     44 N           5.2140   -9.2700   39.9945 N.am      2 SEC2        0.0000 
     45 N           3.5850   -9.2330   39.6700 N.am      8 SEL2        0.0000 
     46 N           6.8430   -9.3070   40.3190 N.am      5 SEP2        0.0000 
     47 N           3.6295   -7.9235   39.0070 N.am      2 SEC2        0.0000 
     48 N           3.6740   -6.6140   38.3440 N.am      5 SEP2        0.0000 
     49 CA          2.5200   -9.7685   36.1915 C.3       3 GLC5        0.0000 
     50 CA          2.7920  -11.4620   37.3980 C.3       9 GLL5        0.0000 
     51 CA          2.2480   -8.0750   34.9850 C.3       6 GLP5        0.0000 
     52 CA          6.0625  -11.4240   38.2780 C.3       3 GLC5        0.0000 
     53 CA          4.2810  -11.5020   37.1130 C.3       9 GLL5        0.0000 
     54 CA          7.8440  -11.3460   39.4430 C.3       6 GLP5        0.0000 
     55 N           3.1045  -10.5765   34.6970 N.am      2 SEC2        0.0000 
     56 N           3.9320  -11.7520   34.7750 N.am      8 SEL2        0.0000 
     57 N           2.2770   -9.4010   34.6190 N.am      5 SEP2        0.0000 
     58 O           5.3345  -13.8735   34.4365 O.2       1 ALC1        0.0000 
     59 O           5.2530  -13.2630   35.7540 O.2       7 ALL1        0.0000 
     60 O           5.4160  -14.4840   33.1190 O.2       4 ALP1        0.0000 
     61 CA         -2.4560  -15.6382   42.3098 C.3       3 GLC5        0.0000 
     62 CA         -2.4270  -13.7980   41.4200 C.3       9 GLL5        0.0000 
     63 CA         -2.1380  -17.5380   42.5230 C.3       6 GLP5        0.0000 
     64 CA          1.2757  -21.2270   33.2963 C.3       3 GLC5        0.0000 
     65 CA          1.4310  -20.9270   35.0000 C.3       9 GLL5        0.0000 
     66 CA          0.5920  -21.1310   31.8060 C.3       6 GLP5        0.0000 
     67 CA          2.0725  -20.7790   32.8015 C.3       3 GLC5        0.0000 
     68 CA          3.5500  -21.1140   33.9120 C.3       9 GLL5        0.0000 
     69 CA          0.5503  -18.4130   33.3710 C.3       3 GLC5        0.0000 
     70 CA         -0.8640  -17.5790   32.2980 C.3       6 GLP5        0.0000 
     71 CA          1.2783  -20.1890   33.1250 C.3       3 GLC5        0.0000 
     72 CA          1.4310  -19.5480   34.7740 C.3       9 GLL5        0.0000 
     73 CA          0.9767  -11.6625   37.1035 C.3       3 GLC5        0.0000 
     74 CA          2.5090  -11.2160   38.8760 C.3       9 GLL5        0.0000 
     75 CA         -0.6970  -11.9860   36.0700 C.3       6 GLP5        0.0000 
     76 CA          2.3639  -10.0858   38.2165 C.3       3 GLC5        0.0000 
     77 CA          1.2620   -8.7510   38.8080 C.3       6 GLP5        0.0000 
@<TRIPOS>BOND
@<TRIPOS>SUBSTRUCTURE
     1 ALC1        1 GROUP        1 X    ALC  0     ROOT ALC X 1
     2 SEC2       12 GROUP        1 X    SEC  0     **** SEC X 2
     3 GLC5        4 GROUP        1 X    GLC  0     **** GLC X 6
     4 ALP1        3 GROUP        1 Y    ALP  0     ROOT ALP Y 8
     5 SEP2       14 GROUP        1 Y    SEP  0     **** SEP Y 9
     6 GLP5        6 GROUP        1 Y    GLP  0     **** GLP Y 13
     7 ALL1        2 GROUP        1 Z    ALL  0     ROOT ALL Z 15
     8 SEL2       13 GROUP        1 Z    SEL  0     **** SEL Z 16
     9 GLL5        5 GROUP        1 Z    GLL  0     **** GLL Z 20
@<TRIPOS>SET

