#    Name: 3vb5_ALA_VAL_LEU_PHQ_0JU_1_ligand
#    Modification time : Tue Mar 25 00:24:42 2014

@<TRIPOS>MOLECULE
3vb5_ALA_VAL_LEU_PHQ_0JU_1_ligand
   78    78     5     0     0
SMALL
NO_CHARGES


@<TRIPOS>ATOM
      1 N          -2.9080  -19.8950   36.6340 N.am      1 ALA2        0.0000
      2 CA         -2.4310  -18.5010   36.6400 C.3       1 ALA2        0.0000
      3 C          -1.4600  -18.1790   37.7630 C.2       1 ALA2        0.0000
      4 O          -1.4720  -18.7910   38.8230 O.2       1 ALA2        0.0000
      5 CB         -3.6200  -17.5340   36.6950 C.3       1 ALA2        0.0000
      6 H          -3.8947  -20.0419   36.8572 H         1 ALA2        0.0000
      7 HA         -1.9132  -18.2933   35.6844 H         1 ALA2        0.0000
      8 HB1        -3.3223  -16.5794   36.7036 H         1 ALA2        0.0000
      9 HB2        -4.2258  -17.6450   35.9071 H         1 ALA2        0.0000
     10 HB3        -4.1758  -17.6750   37.5143 H         1 ALA2        0.0000
     11 N          -0.5880  -17.1900   37.5420 N.am      2 VAL3        0.0000
     12 CA          0.3870  -16.7480   38.5370 C.3       2 VAL3        0.0000
     13 C           0.2820  -15.2570   38.6850 C.2       2 VAL3        0.0000
     14 O           0.6560  -14.5300   37.7740 O.2       2 VAL3        0.0000
     15 CB          1.8060  -17.0750   38.0730 C.3       2 VAL3        0.0000
     16 CG1         2.8300  -16.1540   38.7260 C.3       2 VAL3        0.0000
     17 CG2         2.2000  -18.5000   38.4230 C.3       2 VAL3        0.0000
     18 HNCA       -0.5612  -16.6750   36.6286 H         2 VAL3        0.0000
     19 HA          0.2164  -17.2092   39.4801 H         2 VAL3        0.0000
     20 HB          1.8728  -16.9525   37.0046 H         2 VAL3        0.0000
     21 H           3.7615  -16.3650   38.4297 H         2 VAL3        0.0000
     22 H           2.6618  -15.1939   38.5026 H         2 VAL3        0.0000
     23 H           2.8152  -16.2299   39.7230 H         2 VAL3        0.0000
     24 HG21        3.1288  -18.7136   38.1201 H         2 VAL3        0.0000
     25 HG22        2.1687  -18.6624   39.4092 H         2 VAL3        0.0000
     26 HG23        1.5914  -19.1690   37.9963 H         2 VAL3        0.0000
     27 N          -0.2410  -14.7930   39.8250 N.am      3 LEU4        0.0000
     28 CA         -0.3730  -13.3650   40.0790 C.3       3 LEU4        0.0000
     29 C           0.9960  -12.7500   40.0160 C.2       3 LEU4        0.0000
     30 O           1.8820  -13.0840   40.7880 O.2       3 LEU4        0.0000
     31 CB         -1.0000  -13.2550   41.4650 C.3       3 LEU4        0.0000
     32 CG         -2.4270  -13.7980   41.4200 C.3       3 LEU4        0.0000
     33 CD1        -3.1210  -13.6790   42.7730 C.3       3 LEU4        0.0000
     34 CD2        -3.2520  -13.1100   40.3310 C.3       3 LEU4        0.0000
     35 HNCA       -0.5759  -15.4245   40.5790 H         3 LEU4        0.0000
     36 HA         -1.0190  -12.9219   39.3656 H         3 LEU4        0.0000
     37 HB2        -1.0205  -12.2162   41.7703 H         3 LEU4        0.0000
     38 HB3        -0.4177  -13.8335   42.1714 H         3 LEU4        0.0000
     39 HG         -2.3726  -14.8663   41.1660 H         3 LEU4        0.0000
     40 HD11       -2.6372  -14.1885   43.4846 H         3 LEU4        0.0000
     41 HD12       -3.1769  -12.7287   43.0794 H         3 LEU4        0.0000
     42 HD13       -4.0558  -14.0329   42.7433 H         3 LEU4        0.0000
     43 HD21       -3.3123  -12.1228   40.4787 H         3 LEU4        0.0000
     44 HD22       -2.8561  -13.2469   39.4230 H         3 LEU4        0.0000
     45 HD23       -4.1885  -13.4592   40.2981 H         3 LEU4        0.0000
     46 C1         -2.0550  -20.8830   36.3450 C.2       4 PHQ1        0.0000
     47 O1         -2.3750  -22.0590   36.3190 O.2       4 PHQ1        0.0000
     48 O2         -0.6880  -20.4930   36.0520 O.3       4 PHQ1        0.0000
     49 C2          0.2770  -21.5110   35.7020 C.3       4 PHQ1        0.0000
     50 C3          1.4310  -20.9270   35.0000 C.ar      4 PHQ1        0.0000
     51 C4          2.4880  -21.7190   34.5730 C.ar      4 PHQ1        0.0000
     52 C5          3.5500  -21.1140   33.9120 C.ar      4 PHQ1        0.0000
     53 C6          3.5560  -19.7400   33.6820 C.ar      4 PHQ1        0.0000
     54 C7          2.4980  -18.9460   34.1140 C.ar      4 PHQ1        0.0000
     55 C8          1.4310  -19.5480   34.7740 C.ar      4 PHQ1        0.0000
     56 H          -0.1912  -22.2778   35.0583 H         4 PHQ1        0.0000
     57 H           0.6292  -22.0337   36.6099 H         4 PHQ1        0.0000
     58 H           2.4858  -22.7248   34.7407 H         4 PHQ1        0.0000
     59 H           4.3450  -21.6883   33.5868 H         4 PHQ1        0.0000
     60 H           4.3516  -19.3083   33.1873 H         4 PHQ1        0.0000
     61 H           2.5044  -17.9391   33.9496 H         4 PHQ1        0.0000
     62 H           0.6382  -18.9781   35.0977 H         4 PHQ1        0.0000
     63 C           2.5460   -9.7360   39.1670 C.2       5 0JU5        0.0000
     64 NF          3.5850   -9.2330   39.6700 N.2       5 0JU5        0.0000
     65 CA          2.5090  -11.2160   38.8760 C.3       5 0JU5        0.0000
     66 N           1.2000  -11.8520   39.0510 N.4       5 0JU5        0.0000
     67 CB          2.7920  -11.4620   37.3980 C.3       5 0JU5        0.0000
     68 CG          4.2810  -11.5020   37.1130 C.3       5 0JU5        0.0000
     69 CD          4.4800  -12.1790   35.7780 C.2       5 0JU5        0.0000
     70 OE          3.9320  -11.7520   34.7750 O.2       5 0JU5        0.0000
     71 NE          5.2530  -13.2630   35.7540 N.am      5 0JU5        0.0000
     72 H           3.2549  -11.7386   39.4317 H         5 0JU5        0.0000
     73 H           2.3305  -10.6648   36.8083 H         5 0JU5        0.0000
     74 H           2.3396  -12.4124   37.1009 H         5 0JU5        0.0000
     75 H           4.7815  -12.0650   37.8866 H         5 0JU5        0.0000
     76 H           4.6680  -10.4947   37.0734 H         5 0JU5        0.0000
     77 H           5.6116  -13.5673   36.6365 H         5 0JU5        0.0000
     78 H           5.4052  -13.6751   34.8557 H         5 0JU5        0.0000
@<TRIPOS>BOND
     1    2    1 1
     2    6    1 1
     3    3    2 1
     4    5    2 1
     5    7    2 1
     6    4    3 2
     7    8    5 1
     8    9    5 1
     9   10    5 1
    10   12   11 1
    11   18   11 1
    12   13   12 1
    13   15   12 1
    14   19   12 1
    15   14   13 2
    16   16   15 1
    17   17   15 1
    18   20   15 1
    19   21   16 1
    20   22   16 1
    21   23   16 1
    22   24   17 1
    23   25   17 1
    24   26   17 1
    25   28   27 1
    26   35   27 1
    27   29   28 1
    28   31   28 1
    29   36   28 1
    30   30   29 2
    31   32   31 1
    32   37   31 1
    33   38   31 1
    34   33   32 1
    35   34   32 1
    36   39   32 1
    37   40   33 1
    38   41   33 1
    39   42   33 1
    40   43   34 1
    41   44   34 1
    42   45   34 1
    43   47   46 2
    44   48   46 1
    45   49   48 1
    46   50   49 1
    47   56   49 1
    48   57   49 1
    49   51   50 ar
    50   55   50 ar
    51   52   51 ar
    52   58   51 1
    53   53   52 ar
    54   59   52 1
    55   54   53 ar
    56   60   53 1
    57   55   54 ar
    58   61   54 1
    59   62   55 1
    60   64   63 2
    61   65   63 1
    62   66   65 1
    63   67   65 1
    64   72   65 1
    65   68   67 1
    66   73   67 1
    67   74   67 1
    68   69   68 1
    69   75   68 1
    70   76   68 1
    71   70   69 2
    72   71   69 am
    73   77   71 1
    74   78   71 1
    75   46    1 1 
    76   11    3 am
    77   27   13 am
    78   66   29 1 
@<TRIPOS>SUBSTRUCTURE
     1 ALA2        1 RESIDUE
     2 VAL3       11 RESIDUE
     3 LEU4       27 RESIDUE
     4 PHQ1       46 GROUP
     5 0JU5       63 GROUP
@<TRIPOS>SET

