#    Name: 2p54_735_1_INTS_M
#    Modification time : Mon Mar 24 18:20:57 2014

@<TRIPOS>MOLECULE
2p54_735_1_INTS_M
  102     0     6     0     0
SMALL
NO_CHARGES


@<TRIPOS>ATOM
      1 CA         11.8485   37.7185   32.6445 C.3       2 GLC5        0.0000 
      2 CA         11.3340   38.5270   30.6240 C.3       6 GLL5        0.0000 
      3 CA         12.3630   36.9100   34.6650 C.3       4 GLP5        0.0000 
      4 CA         10.3805   39.6160   32.0305 C.3       2 GLC5        0.0000 
      5 CA          9.4270   40.7050   33.4370 C.3       4 GLP5        0.0000 
      6 CA          9.4480   38.6225   30.2690 C.3       2 GLC5        0.0000 
      7 CA          7.5620   38.7180   29.9140 C.3       4 GLP5        0.0000 
      8 CA         15.0385   39.5000   27.9225 C.3       2 GLC5        0.0000 
      9 CA         15.1700   38.1210   29.2670 C.3       6 GLL5        0.0000 
     10 CA         14.9070   40.8790   26.5780 C.3       4 GLP5        0.0000 
     11 CA         16.1555   37.6400   27.5765 C.3       2 GLC5        0.0000 
     12 CA         17.1410   37.1590   25.8860 C.3       4 GLP5        0.0000 
     13 CA         15.2030   36.8745   30.8100 C.3       2 GLC5        0.0000 
     14 CA         15.2360   35.6280   32.3530 C.3       4 GLP5        0.0000 
     15 CA         13.0575   35.9705   29.5050 C.3       2 GLC5        0.0000 
     16 CA         13.4500   37.9350   29.1690 C.3       6 GLL5        0.0000 
     17 CA         12.6650   34.0060   29.8410 C.3       4 GLP5        0.0000 
     18 CA         10.0110   35.1235   26.2035 C.3       2 GLC5        0.0000 
     19 CA         10.9270   36.7910   26.5800 C.3       6 GLL5        0.0000 
     20 CA          9.0950   33.4560   25.8270 C.3       4 GLP5        0.0000 
     21 CA         11.5545   40.2535   27.1840 C.3       2 GLC5        0.0000 
     22 CA         10.4630   39.2930   26.1770 C.3       6 GLL5        0.0000 
     23 CA         12.6460   41.2140   28.1910 C.3       4 GLP5        0.0000 
     24 CA         10.8200   44.5650   22.5550 C.3       2 GLC5        0.0000 
     25 CA         10.7040   42.9690   21.6290 C.3       6 GLL5        0.0000 
     26 CA         10.9360   46.1610   23.4810 C.3       4 GLP5        0.0000 
     27 CA          8.9600   43.2045   20.7405 C.3       2 GLC5        0.0000 
     28 CA          7.2160   43.4400   19.8520 C.3       4 GLP5        0.0000 
     29 CA         11.5320   44.6610   20.5030 C.3       2 GLC5        0.0000 
     30 CA         12.3600   46.3530   19.3770 C.3       4 GLP5        0.0000 
     31 CA         12.9795   41.5610   24.7675 C.3       2 GLC5        0.0000 
     32 CA         12.4890   41.7080   22.9210 C.3       6 GLL5        0.0000 
     33 CA         13.4700   41.4140   26.6140 C.3       4 GLP5        0.0000 
     34 CA         14.3630   41.9130   23.0785 C.3       2 GLC5        0.0000 
     35 CA         16.2370   42.1180   23.2360 C.3       4 GLP5        0.0000 
     36 CA         13.6655   40.0305   22.0955 C.3       2 GLC5        0.0000 
     37 CA         14.8420   38.3530   21.2700 C.3       4 GLP5        0.0000 
     38 CA         13.7995   41.8960   21.1530 C.3       2 GLC5        0.0000 
     39 CA         15.1100   42.0840   19.3850 C.3       4 GLP5        0.0000 
     40 N          13.0405   39.1955   21.3815 N.am      1 SEC2        0.0000 
     41 N          12.3430   40.2150   20.6370 N.am      5 SEL2        0.0000 
     42 N          13.7380   38.1760   22.1260 N.am      3 SEP2        0.0000 
     43 N          12.4150   39.7275   19.4730 N.am      1 SEC2        0.0000 
     44 N          12.4870   39.2400   18.3090 N.am      3 SEP2        0.0000 
     45 N           9.5450   40.2285   19.2835 N.am      1 SEC2        0.0000 
     46 N          10.2410   40.4190   20.3400 N.am      5 SEL2        0.0000 
     47 N           8.8490   40.0380   18.2270 N.am      3 SEP2        0.0000 
     48 N           8.9025   40.3145   20.7305 N.am      1 SEC2        0.0000 
     49 N           7.5640   40.2100   21.1210 N.am      3 SEP2        0.0000 
     50 CA         15.6980   37.4420   32.0350 C.3       2 GLC5        0.0000 
     51 CA         16.1600   39.2560   31.7170 C.3       6 GLL5        0.0000 
     52 CA         17.1035   37.1815   32.0290 C.3       2 GLC5        0.0000 
     53 CA         17.4610   38.7740   31.4610 C.3       6 GLL5        0.0000 
     54 CA         16.7460   35.5890   32.5970 C.3       4 GLP5        0.0000 
     55 CA         19.9315   37.5100   32.6090 C.3       2 GLC5        0.0000 
     56 CA         18.5280   39.1460   32.2820 C.3       6 GLL5        0.0000 
     57 CA         21.3350   35.8740   32.9360 C.3       4 GLP5        0.0000 
     58 CA         16.5055   38.0590   33.4185 C.3       2 GLC5        0.0000 
     59 CA         15.9470   40.1280   32.8040 C.3       6 GLL5        0.0000 
     60 CA         17.0640   35.9900   34.0330 C.3       4 GLP5        0.0000 
     61 CA         14.3015   40.0645   34.0530 C.3       2 GLC5        0.0000 
     62 CA         12.6560   40.0010   35.3020 C.3       4 GLP5        0.0000 
     63 CA         17.8060   42.5590   35.8455 C.3       2 GLC5        0.0000 
     64 CA         19.2790   41.5360   34.8480 C.3       6 GLL5        0.0000 
     65 CA         16.3330   43.5820   36.8430 C.3       4 GLP5        0.0000 
     66 CA         19.6415   40.8595   36.9185 C.3       2 GLC5        0.0000 
     67 CA         20.0040   40.1830   38.9890 C.3       4 GLP5        0.0000 
     68 CA         19.8125   43.1110   35.5745 C.3       2 GLC5        0.0000 
     69 CA         20.3460   44.6860   36.3010 C.3       4 GLP5        0.0000 
     70 CA         22.2035   39.4815   34.5605 C.3       2 GLC5        0.0000 
     71 CA         20.6060   40.3670   33.5900 C.3       6 GLL5        0.0000 
     72 CA         23.8010   38.5960   35.5310 C.3       4 GLP5        0.0000 
     73 CA         19.7790   39.8160   37.0900 C.3       2 GLC5        0.0000 
     74 CA         19.5540   39.4490   35.1910 C.3       6 GLL5        0.0000 
     75 CA         20.9490   38.2170   35.9600 C.3       2 GLC5        0.0000 
     76 CA         22.3440   36.9850   36.7290 C.3       4 GLP5        0.0000 
     77 CA         18.3090   37.7195   34.6120 C.3       2 GLC5        0.0000 
     78 CA         11.6140   36.4665   30.5155 C.3       2 GLC5        0.0000 
     79 CA         12.7960   38.3530   30.2760 C.3       6 GLL5        0.0000 
     80 CA         11.1630   34.4930   30.5810 C.3       4 GLP5        0.0000 
     81 CA         14.1795   36.8860   31.0378 C.3       2 GLC5        0.0000 
     82 CA         12.7018   39.7007   29.0003 C.3       2 GLC5        0.0000 
     83 CA          9.3682   38.0255   27.3260 C.3       2 GLC5        0.0000 
     84 CA          8.1020   37.7120   28.4980 C.3       4 GLP5        0.0000 
     85 CA         11.8585   40.8245   25.5990 C.3       2 GLC5        0.0000 
     86 CA         10.2460   40.3530   25.2760 C.3       6 GLL5        0.0000 
     87 CA          8.5841   40.5060   25.5881 C.3       2 GLC5        0.0000 
     88 CA          6.8670   41.0420   26.3670 C.3       4 GLP5        0.0000 
     89 CA         17.7911   40.5727   30.8512 C.3       2 GLC5        0.0000 
     90 CA         17.9130   42.0650   29.7670 C.3       4 GLP5        0.0000 
     91 CA         17.7440   37.7840   33.4312 C.3       2 GLC5        0.0000 
     92 CA         17.3405   39.7812   35.4803 C.3       2 GLC5        0.0000 
     93 CA         18.3200   40.0100   33.3770 C.3       6 GLL5        0.0000 
     94 CA         17.0080   39.3080   37.4590 C.3       4 GLP5        0.0000 
     95 CA         17.1998   41.1893   31.4910 C.3       2 GLC5        0.0000 
     96 CA         17.0260   40.4990   33.6260 C.3       6 GLL5        0.0000 
     97 CA         21.3837   41.8159   33.8300 C.3       2 GLC5        0.0000 
     98 CA         22.7730   42.9690   33.5850 C.3       4 GLP5        0.0000 
     99 CA         19.5073   41.7852   32.3406 C.3       2 GLC5        0.0000 
    100 CA         19.1660   42.9540   30.7180 C.3       4 GLP5        0.0000 
    101 CA         18.2383   39.7559   36.1673 C.3       2 GLC5        0.0000 
    102 CA         19.4870   40.3810   34.2720 C.3       6 GLL5        0.0000 
@<TRIPOS>BOND
@<TRIPOS>SUBSTRUCTURE
     1 SEC2       40 GROUP        1 X    SEC  0     ROOT SEC X 2
     2 GLC5        1 GROUP        1 X    GLC  0     **** GLC X 6
     3 SEP2       42 GROUP        1 Y    SEP  0     ROOT SEP Y 9
     4 GLP5        3 GROUP        1 Y    GLP  0     **** GLP Y 13
     5 SEL2       41 GROUP        1 Z    SEL  0     ROOT SEL Z 16
     6 GLL5        2 GROUP        1 Z    GLL  0     **** GLL Z 20
@<TRIPOS>SET

