#    Name: 2p54_735_1_ligand
#    Modification time : Mon Mar 24 18:20:57 2014

@<TRIPOS>MOLECULE
2p54_735_1_ligand
   53    55     1     0     0
SMALL
NO_CHARGES


@<TRIPOS>ATOM
      1 C1         11.3340   38.5270   30.6240 C.3       1 735469      0.0000 
      2 C2         12.7960   38.3530   30.2760 C.2       1 735469      0.0000 
      3 N3         13.7580   38.9120   31.2150 N.2       1 735469      0.0000 
      4 C4         15.0540   38.8430   30.8690 C.2       1 735469      0.0000 
      5 S5         15.1700   38.1210   29.2670 S.3       1 735469      0.0000 
      6 C6         13.4500   37.9350   29.1690 C.2       1 735469      0.0000 
      7 C7         12.8710   37.3880   27.9350 C.2       1 735469      0.0000 
      8 O8         13.6940   37.2080   27.0350 O.2       1 735469      0.0000 
      9 N9         11.5570   37.1190   27.8330 N.am      1 735469      0.0000 
     10 C10        10.9270   36.7910   26.5800 C.3       1 735469      0.0000 
     11 C11        10.6850   37.9790   25.6820 C.ar      1 735469      0.0000 
     12 C12        10.4630   39.2930   26.1770 C.ar      1 735469      0.0000 
     13 C13        10.2460   40.3530   25.2760 C.ar      1 735469      0.0000 
     14 C14        10.2480   40.1170   23.8920 C.ar      1 735469      0.0000 
     15 O15        10.0410   41.1880   23.0170 O.3       1 735469      0.0000 
     16 C16        11.1340   41.6070   22.1970 C.3       1 735469      0.0000 
     17 C17        10.7040   42.9690   21.6290 C.3       1 735469      0.0000 
     18 C18        12.4890   41.7080   22.9210 C.3       1 735469      0.0000 
     19 C19        11.2580   40.6940   20.9760 C.2       1 735469      0.0000 
     20 O20        12.3430   40.2150   20.6370 O.co2     1 735469      0.0000 
     21 O21        10.2410   40.4190   20.3400 O.co2     1 735469      0.0000 
     22 C22        10.4600   38.8120   23.3960 C.ar      1 735469      0.0000 
     23 C23        10.6780   37.7500   24.2950 C.ar      1 735469      0.0000 
     24 C24        16.1600   39.2560   31.7170 C.ar      1 735469      0.0000 
     25 C25        17.4610   38.7740   31.4610 C.ar      1 735469      0.0000 
     26 C26        18.5280   39.1460   32.2820 C.ar      1 735469      0.0000 
     27 C27        18.3200   40.0100   33.3770 C.ar      1 735469      0.0000 
     28 C28        17.0260   40.4990   33.6260 C.ar      1 735469      0.0000 
     29 C29        15.9470   40.1280   32.8040 C.ar      1 735469      0.0000 
     30 C30        19.4870   40.3810   34.2720 C.3       1 735469      0.0000 
     31 F31        19.2790   41.5360   34.8480 F         1 735469      0.0000 
     32 F32        20.6060   40.3670   33.5900 F         1 735469      0.0000 
     33 F33        19.5540   39.4490   35.1910 F         1 735469      0.0000 
     34 H          10.9339   37.1384   28.6739 H         1 735469      0.0000 
     35 H           9.9476   36.2868   26.7530 H         1 735469      0.0000 
     36 H          11.5407   36.0523   26.0134 H         1 735469      0.0000 
     37 H          10.4621   39.4610   27.1819 H         1 735469      0.0000 
     38 H          10.0861   41.3002   25.6337 H         1 735469      0.0000 
     39 H          10.4550   38.6409   22.3907 H         1 735469      0.0000 
     40 H          10.8328   36.8019   23.9335 H         1 735469      0.0000 
     41 H          17.6182   38.1456   30.6640 H         1 735469      0.0000 
     42 H          19.4730   38.7910   32.0919 H         1 735469      0.0000 
     43 H          16.8662   41.1352   34.4180 H         1 735469      0.0000 
     44 H          15.0102   40.4888   32.9929 H         1 735469      0.0000 
     45 H          11.1079   38.1029   31.5010 H         1 735469      0.0000 
     46 H          11.0805   39.4920   30.6911 H         1 735469      0.0000 
     47 H          10.7368   38.1142   29.9362 H         1 735469      0.0000 
     48 H          11.4031   43.3589   21.0296 H         1 735469      0.0000 
     49 H           9.8634   42.8988   21.0919 H         1 735469      0.0000 
     50 H          10.5338   43.6367   22.3538 H         1 735469      0.0000 
     51 H          13.2185   42.0035   22.3042 H         1 735469      0.0000 
     52 H          12.4591   42.3640   23.6752 H         1 735469      0.0000 
     53 H          12.7699   40.8296   23.3076 H         1 735469      0.0000 
@<TRIPOS>BOND
     1    2    1 1    
     2   45    1 1    
     3   46    1 1    
     4   47    1 1    
     5    3    2 1    
     6    6    2 2    
     7    4    3 2    
     8    5    4 1    
     9   24    4 1    
    10    6    5 1    
    11    7    6 1    
    12    8    7 2    
    13    9    7 am   
    14   10    9 1    
    15   34    9 1    
    16   11   10 1    
    17   35   10 1    
    18   36   10 1    
    19   12   11 ar   
    20   23   11 ar   
    21   13   12 ar   
    22   37   12 1    
    23   14   13 ar   
    24   38   13 1    
    25   15   14 1    
    26   22   14 ar   
    27   16   15 1    
    28   17   16 1    
    29   18   16 1    
    30   19   16 1    
    31   48   17 1    
    32   49   17 1    
    33   50   17 1    
    34   51   18 1    
    35   52   18 1    
    36   53   18 1    
    37   20   19 ar   
    38   21   19 ar   
    39   23   22 ar   
    40   39   22 1    
    41   40   23 1    
    42   25   24 ar   
    43   29   24 ar   
    44   26   25 ar   
    45   41   25 1    
    46   27   26 ar   
    47   42   26 1    
    48   28   27 ar   
    49   30   27 1    
    50   29   28 ar   
    51   43   28 1    
    52   44   29 1    
    53   31   30 1    
    54   32   30 1    
    55   33   30 1    
@<TRIPOS>SUBSTRUCTURE
     1 735469      1 GROUP   
@<TRIPOS>SET

