#    Name: 2i9p_NAD_2_INTS_M
#    Modification time : Tue Mar 25 17:34:12 2014

@<TRIPOS>MOLECULE
2i9p_NAD_2_INTS_M
   88     0     9     0     0
SMALL
NO_CHARGES


@<TRIPOS>ATOM
      1 N         -24.4060   70.7740   58.3800 N.am      2 SEC2        0.0000 
      2 N         -23.6280   70.1620   57.2040 N.am      8 SEL2        0.0000 
      3 N         -25.1840   71.3860   59.5560 N.am      5 SEP2        0.0000 
      4 CA        -19.5625   74.0265   56.0530 C.3       3 GLC5        0.0000 
      5 CA        -21.5410   73.2230   56.0720 C.3       9 GLL5        0.0000 
      6 CA        -17.5840   74.8300   56.0340 C.3       6 GLP5        0.0000 
      7 CA        -22.0620   76.3030   55.9885 C.3       3 GLC5        0.0000 
      8 CA        -22.2740   74.3460   55.3540 C.3       9 GLL5        0.0000 
      9 CA        -21.8500   78.2600   56.6230 C.3       6 GLP5        0.0000 
     10 O         -24.2465   76.4000   52.4510 O.2       1 ALC1        0.0000 
     11 O         -23.9910   75.0540   52.2840 O.2       7 ALL1        0.0000 
     12 O         -24.5020   77.7460   52.6180 O.2       4 ALP1        0.0000 
     13 CA        -21.9040   76.9575   55.0585 C.3       3 GLC5        0.0000 
     14 CA        -21.9580   75.6550   53.4940 C.3       9 GLL5        0.0000 
     15 CA        -20.2135   76.5805   54.0925 C.3       3 GLC5        0.0000 
     16 CA        -18.4690   77.5060   54.6910 C.3       6 GLP5        0.0000 
     17 CA        -20.1475   74.3835   53.5930 C.3       3 GLC5        0.0000 
     18 CA        -18.3370   73.1120   53.6920 C.3       6 GLP5        0.0000 
     19 CA        -17.2055   79.6795   51.7260 C.3       3 GLC5        0.0000 
     20 CA        -18.9910   78.5960   50.9760 C.3       9 GLL5        0.0000 
     21 CA        -15.4200   80.7630   52.4760 C.3       6 GLP5        0.0000 
     22 CA        -19.9220   80.7770   53.6995 C.3       3 GLC5        0.0000 
     23 CA        -20.5740   79.7170   52.3840 C.3       9 GLL5        0.0000 
     24 CA        -19.2700   81.8370   55.0150 C.3       6 GLP5        0.0000 
     25 CA        -22.5110   80.1220   52.7275 C.3       3 GLC5        0.0000 
     26 CA        -24.4480   80.5270   53.0710 C.3       6 GLP5        0.0000 
     27 CA        -21.5990   78.5335   51.0005 C.3       3 GLC5        0.0000 
     28 CA        -22.6240   77.3500   49.6170 C.3       6 GLP5        0.0000 
     29 CA        -19.5215   78.6115   53.5375 C.3       3 GLC5        0.0000 
     30 N         -23.4780   68.4300   58.8215 N.am      2 SEC2        0.0000 
     31 N         -22.0290   68.7650   59.3350 N.am      8 SEL2        0.0000 
     32 N         -24.9270   68.0950   58.3080 N.am      5 SEP2        0.0000 
     33 N         -22.9085   71.3785   60.8130 N.am      2 SEC2        0.0000 
     34 N         -22.1960   71.3010   59.6980 N.am      8 SEL2        0.0000 
     35 N         -23.6210   71.4560   61.9280 N.am      5 SEP2        0.0000 
     36 CA        -19.1370   72.7565   60.0800 C.3       3 GLC5        0.0000 
     37 CA        -18.9320   70.9810   59.1260 C.3       9 GLL5        0.0000 
     38 CA        -19.3420   74.5320   61.0340 C.3       6 GLP5        0.0000 
     39 CA        -17.8970   71.6955   61.2955 C.3       3 GLC5        0.0000 
     40 CA        -17.5300   70.6830   59.6790 C.3       9 GLL5        0.0000 
     41 CA        -18.2640   72.7080   62.9120 C.3       6 GLP5        0.0000 
     42 N         -14.3680   70.8190   59.0870 N.am      2 SEC2        0.0000 
     43 N         -15.5570   70.0640   58.5410 N.am      8 SEL2        0.0000 
     44 N         -13.1790   71.5740   59.6330 N.am      5 SEP2        0.0000 
     45 N         -14.5660   68.9515   57.9635 N.am      2 SEC2        0.0000 
     46 N         -13.5750   67.8390   57.3860 N.am      5 SEP2        0.0000 
     47 O         -15.4180   70.0810   57.0265 O.2       1 ALC1        0.0000 
     48 O         -15.5570   70.0640   58.5410 O.2       7 ALL1        0.0000 
     49 O         -15.2790   70.0980   55.5120 O.2       4 ALP1        0.0000 
     50 N         -14.6465   67.6605   58.5480 N.am      2 SEC2        0.0000 
     51 N         -15.7180   67.4820   59.7100 N.am      8 SEL2        0.0000 
     52 O         -14.5570   68.3805   60.4845 O.2       1 ALC1        0.0000 
     53 O         -15.7180   67.4820   59.7100 O.2       7 ALL1        0.0000 
     54 O         -13.3960   69.2790   61.2590 O.2       4 ALP1        0.0000 
     55 CA        -17.5765   70.8675   62.0700 C.3       3 GLC5        0.0000 
     56 CA        -16.8890   69.0270   61.2280 C.3       9 GLL5        0.0000 
     57 CA        -19.9590   68.9325   62.5550 C.3       3 GLC5        0.0000 
     58 CA        -18.7990   67.6430   62.0490 C.3       9 GLL5        0.0000 
     59 CA        -21.1190   70.2220   63.0610 C.3       6 GLP5        0.0000 
     60 CA        -19.3475   66.3205   60.5155 C.3       3 GLC5        0.0000 
     61 CA        -19.8960   64.9980   58.9820 C.3       6 GLP5        0.0000 
     62 CA        -20.1800   66.4090   65.6345 C.3       3 GLC5        0.0000 
     63 CA        -18.7470   66.6600   64.2750 C.3       9 GLL5        0.0000 
     64 CA        -21.6130   66.1580   66.9940 C.3       6 GLP5        0.0000 
     65 CA        -20.1223   73.4483   54.7025 C.3       3 GLC5        0.0000 
     66 CA        -23.9716   73.5589   56.5490 C.3       3 GLC5        0.0000 
     67 CA        -25.3630   73.3060   58.0930 C.3       6 GLP5        0.0000 
     68 CA        -22.5207   76.2260   51.4317 C.3       3 GLC5        0.0000 
     69 CA        -22.8770   74.5490   52.9990 C.3       9 GLL5        0.0000 
     70 CA        -21.2683   77.5090   50.6852 C.3       3 GLC5        0.0000 
     71 CA        -19.5190   77.3700   51.4040 C.3       9 GLL5        0.0000 
     72 CA        -19.1908   77.5870   53.2223 C.3       3 GLC5        0.0000 
     73 CA        -20.5700   77.3530   52.3170 C.3       9 GLL5        0.0000 
     74 CA        -17.4860   67.3120   58.3093 C.3       3 GLC5        0.0000 
     75 CA        -16.8250   68.3660   59.8450 C.3       9 GLL5        0.0000 
     76 CA        -18.1440   65.6540   57.2470 C.3       6 GLP5        0.0000 
     77 CA        -14.7112   69.0998   60.2034 C.3       3 GLC5        0.0000 
     78 CA        -16.8310   69.5740   58.8980 C.3       9 GLL5        0.0000 
     79 CA        -12.5640   69.2010   60.1070 C.3       6 GLP5        0.0000 
     80 CA        -20.3495   68.0828   64.1262 C.3       3 GLC5        0.0000 
     81 CA        -19.3950   66.8650   63.0520 C.3       9 GLL5        0.0000 
     82 CA        -21.6280   69.4030   64.5890 C.3       6 GLP5        0.0000 
     83 CA        -17.1172   69.1497   65.0053 C.3       3 GLC5        0.0000 
     84 CA        -17.4950   67.2340   64.4820 C.3       9 GLL5        0.0000 
     85 CA        -17.0290   70.6810   66.0370 C.3       6 GLP5        0.0000 
     86 CA        -15.2732   67.0487   64.0523 C.3       3 GLC5        0.0000 
     87 CA        -16.9160   68.0030   63.4650 C.3       9 GLL5        0.0000 
     88 CA        -13.3410   66.4790   64.1310 C.3       6 GLP5        0.0000 
@<TRIPOS>BOND
@<TRIPOS>SUBSTRUCTURE
     1 ALC1       10 GROUP        1 X    ALC  0     ROOT ALC X 1
     2 SEC2        1 GROUP        1 X    SEC  0     **** SEC X 2
     3 GLC5        4 GROUP        1 X    GLC  0     **** GLC X 6
     4 ALP1       12 GROUP        1 Y    ALP  0     ROOT ALP Y 8
     5 SEP2        3 GROUP        1 Y    SEP  0     **** SEP Y 9
     6 GLP5        6 GROUP        1 Y    GLP  0     **** GLP Y 13
     7 ALL1       11 GROUP        1 Z    ALL  0     ROOT ALL Z 15
     8 SEL2        2 GROUP        1 Z    SEL  0     **** SEL Z 16
     9 GLL5        5 GROUP        1 Z    GLL  0     **** GLL Z 20
@<TRIPOS>SET

