#    Name: 2i9p_NAD_2_ligand
#    Modification time : Tue Mar 25 17:34:12 2014

@<TRIPOS>MOLECULE
2i9p_NAD_2_ligand
   70    74     1     0     0
SMALL
NO_CHARGES


@<TRIPOS>ATOM
      1 PA        -22.4080   70.8290   56.6830 P.3       1 NAD500      0.0000 
      2 O1A       -22.0660   70.4740   55.2810 O.co2     1 NAD500      0.0000 
      3 O2A       -23.6280   70.1620   57.2040 O.co2     1 NAD500      0.0000 
      4 O5B       -22.4670   72.4310   56.7850 O.3       1 NAD500      0.0000 
      5 C5B       -21.5410   73.2230   56.0720 C.3       1 NAD500      0.0000 
      6 C4B       -22.2740   74.3460   55.3540 C.3       1 NAD500      0.0000 
      7 O4B       -21.3520   75.1770   54.6800 O.3       1 NAD500      0.0000 
      8 C3B       -23.2530   73.8390   54.2970 C.3       1 NAD500      0.0000 
      9 O3B       -24.5670   74.1390   54.7060 O.3       1 NAD500      0.0000 
     10 C2B       -22.8770   74.5490   52.9990 C.3       1 NAD500      0.0000 
     11 O2B       -23.9910   75.0540   52.2840 O.3       1 NAD500      0.0000 
     12 C1B       -21.9580   75.6550   53.4940 C.3       1 NAD500      0.0000 
     13 N9A       -20.9000   76.0540   52.5620 N.pl3     1 NAD500      0.0000 
     14 C8A       -20.0600   75.2690   51.8230 C.2       1 NAD500      0.0000 
     15 N7A       -19.2290   76.0810   51.1220 N.2       1 NAD500      0.0000 
     16 C5A       -19.5190   77.3700   51.4040 C.ar      1 NAD500      0.0000 
     17 C6A       -18.9910   78.5960   50.9760 C.ar      1 NAD500      0.0000 
     18 N6A       -17.9850   78.6860   50.1110 N.pl3     1 NAD500      0.0000 
     19 N1A       -19.5280   79.7620   51.4750 N.ar      1 NAD500      0.0000 
     20 C2A       -20.5740   79.7170   52.3840 C.ar      1 NAD500      0.0000 
     21 N3A       -21.0900   78.5030   52.8030 N.ar      1 NAD500      0.0000 
     22 C4A       -20.5700   77.3530   52.3170 C.ar      1 NAD500      0.0000 
     23 O3        -21.1820   70.4630   57.6320 O.3       1 NAD500      0.0000 
     24 PN        -21.4500   70.1330   59.1750 P.3       1 NAD500      0.0000 
     25 O1N       -22.0290   68.7650   59.3350 O.co2     1 NAD500      0.0000 
     26 O2N       -22.1960   71.3010   59.6980 O.co2     1 NAD500      0.0000 
     27 O5D       -19.9240   70.1480   59.7150 O.3       1 NAD500      0.0000 
     28 C5D       -18.9320   70.9810   59.1260 C.3       1 NAD500      0.0000 
     29 C4D       -17.5300   70.6830   59.6790 C.3       1 NAD500      0.0000 
     30 O4D       -17.5450   70.2760   61.0450 O.3       1 NAD500      0.0000 
     31 C3D       -16.8310   69.5740   58.8980 C.3       1 NAD500      0.0000 
     32 O3D       -15.5570   70.0640   58.5410 O.3       1 NAD500      0.0000 
     33 C2D       -16.8250   68.3660   59.8450 C.3       1 NAD500      0.0000 
     34 O2D       -15.7180   67.4820   59.7100 O.3       1 NAD500      0.0000 
     35 C1D       -16.8890   69.0270   61.2280 C.3       1 NAD500      0.0000 
     36 N1N       -17.5590   68.2000   62.2640 N.pl3     1 NAD500      0.0000 
     37 C2N       -18.7990   67.6430   62.0490 C.ar      1 NAD500      0.0000 
     38 C3N       -19.3950   66.8650   63.0520 C.ar      1 NAD500      0.0000 
     39 C7N       -20.7450   66.2600   62.8250 C.2       1 NAD500      0.0000 
     40 O7N       -21.2490   65.2840   63.7300 O.2       1 NAD500      0.0000 
     41 N7N       -21.4390   66.6800   61.7640 N.am      1 NAD500      0.0000 
     42 C4N       -18.7470   66.6600   64.2750 C.ar      1 NAD500      0.0000 
     43 C5N       -17.4950   67.2340   64.4820 C.ar      1 NAD500      0.0000 
     44 C6N       -16.9160   68.0030   63.4650 C.ar      1 NAD500      0.0000 
     45 H         -20.9978   72.6418   55.3144 H         1 NAD500      0.0000 
     46 H         -20.7945   73.6823   56.7342 H         1 NAD500      0.0000 
     47 H         -22.8395   74.9161   56.0805 H         1 NAD500      0.0000 
     48 H         -23.0783   72.7911   54.1713 H         1 NAD500      0.0000 
     49 H         -22.2689   73.8666   52.4291 H         1 NAD500      0.0000 
     50 H         -22.5822   76.5180   53.7361 H         1 NAD500      0.0000 
     51 H         -20.0621   74.3098   51.8066 H         1 NAD500      0.0000 
     52 H         -17.6716   79.6108   49.8952 H         1 NAD500      0.0000 
     53 H         -17.6326   77.8208   49.7543 H         1 NAD500      0.0000 
     54 H         -20.9710   80.5981   52.7512 H         1 NAD500      0.0000 
     55 H         -19.1352   72.0519   59.3083 H         1 NAD500      0.0000 
     56 H         -18.8860   70.8509   58.0295 H         1 NAD500      0.0000 
     57 H         -16.9204   71.5842   59.5619 H         1 NAD500      0.0000 
     58 H         -17.4523   69.3474   58.0578 H         1 NAD500      0.0000 
     59 H         -17.7872   67.8660   59.7122 H         1 NAD500      0.0000 
     60 H         -15.8468   69.2106   61.5307 H         1 NAD500      0.0000 
     61 H         -19.2952   67.7895   61.1621 H         1 NAD500      0.0000 
     62 H         -22.3543   66.2922   61.6553 H         1 NAD500      0.0000 
     63 H         -20.9810   67.3445   61.1736 H         1 NAD500      0.0000 
     64 H         -19.1877   66.0976   65.0029 H         1 NAD500      0.0000 
     65 H         -17.0011   67.0974   65.3659 H         1 NAD500      0.0000 
     66 H         -15.9836   68.4283   63.6301 H         1 NAD500      0.0000 
     67 H         -25.0339   74.4413   53.8750 H         1 NAD500      0.0000 
     68 H         -24.0180   76.0295   52.5025 H         1 NAD500      0.0000 
     69 H         -15.5433   70.0449   57.5413 H         1 NAD500      0.0000 
     70 H         -14.9648   67.9361   60.1860 H         1 NAD500      0.0000 
@<TRIPOS>BOND
     1    2    1 ar   
     2    3    1 ar   
     3    4    1 1    
     4   23    1 1    
     5    5    4 1    
     6    6    5 1    
     7   45    5 1    
     8   46    5 1    
     9    7    6 1    
    10    8    6 1    
    11   47    6 1    
    12   12    7 1    
    13    9    8 1    
    14   10    8 1    
    15   48    8 1    
    16   67    9 1    
    17   11   10 1    
    18   12   10 1    
    19   49   10 1    
    20   68   11 1    
    21   13   12 1    
    22   50   12 1    
    23   14   13 1    
    24   22   13 1    
    25   15   14 2    
    26   51   14 1    
    27   16   15 1    
    28   17   16 ar   
    29   22   16 ar   
    30   18   17 1    
    31   19   17 ar   
    32   52   18 1    
    33   53   18 1    
    34   20   19 ar   
    35   21   20 ar   
    36   54   20 1    
    37   22   21 ar   
    38   24   23 1    
    39   25   24 ar   
    40   26   24 ar   
    41   27   24 1    
    42   28   27 1    
    43   29   28 1    
    44   55   28 1    
    45   56   28 1    
    46   30   29 1    
    47   31   29 1    
    48   57   29 1    
    49   35   30 1    
    50   32   31 1    
    51   33   31 1    
    52   58   31 1    
    53   69   32 1    
    54   34   33 1    
    55   35   33 1    
    56   59   33 1    
    57   70   34 1    
    58   36   35 1    
    59   60   35 1    
    60   37   36 ar   
    61   44   36 ar   
    62   38   37 ar   
    63   61   37 1    
    64   39   38 1    
    65   42   38 ar   
    66   40   39 2    
    67   41   39 am   
    68   62   41 1    
    69   63   41 1    
    70   43   42 ar   
    71   64   42 1    
    72   44   43 ar   
    73   65   43 1    
    74   66   44 1    
@<TRIPOS>SUBSTRUCTURE
     1 NAD500      1 GROUP   
@<TRIPOS>SET

