#    Name: 2a78_GDP_1_INTS_M
#    Modification time : Mon Mar 24 18:34:17 2014

@<TRIPOS>MOLECULE
2a78_GDP_1_INTS_M
   71     0    15     0     0
SMALL
NO_CHARGES


@<TRIPOS>ATOM
      1 NZ         14.9015    7.6630   14.4265 N.4       3 LYC4        0.0000 
      2 NZ         16.3490    8.1320   15.6800 N.4      13 LYL4        0.0000 
      3 NZ         13.4540    7.1940   13.1730 N.4       8 LYP4        0.0000 
      4 N          15.3720    7.8550   16.6355 N.am      2 SEC2        0.0000 
      5 N          16.3490    8.1320   15.6800 N.am     12 SEL2        0.0000 
      6 N          14.3950    7.5780   17.5910 N.am      7 SEP2        0.0000 
      7 NZ         14.4820    6.6490   13.8690 N.4       3 LYC4        0.0000 
      8 NZ         15.5100    6.1040   14.5650 N.4      13 LYL4        0.0000 
      9 N          14.8935    5.4555   15.9590 N.am      2 SEC2        0.0000 
     10 N          15.5100    6.1040   14.5650 N.am     12 SEL2        0.0000 
     11 N          14.2770    4.8070   17.3530 N.am      7 SEP2        0.0000 
     12 N          15.8305    4.7420   15.2785 N.am      2 SEC2        0.0000 
     13 N          16.1510    3.3800   15.9920 N.am      7 SEP2        0.0000 
     14 N          16.1315    4.9530   13.9385 N.am      2 SEC2        0.0000 
     15 N          16.7530    3.8020   13.3120 N.am      7 SEP2        0.0000 
     16 N          14.4820    6.6490   13.8690 N.am      2 SEC2        0.0000 
     17 N          13.4540    7.1940   13.1730 N.am      7 SEP2        0.0000 
     18 Zn         17.9535    8.0265   13.4020 Zn        4 ZIC7        0.0000 
     19 Zn         17.6470    7.1840   13.8270 Zn       14 ZIL7        0.0000 
     20 Zn         18.2600    8.8690   12.9770 Zn        9 ZIP7        0.0000 
     21 N          18.2495    6.2090   12.9195 N.am      2 SEC2        0.0000 
     22 N          17.6470    7.1840   13.8270 N.am     12 SEL2        0.0000 
     23 N          18.8520    5.2340   12.0120 N.am      7 SEP2        0.0000 
     24 N          16.8340    4.6575   16.0195 N.am      2 SEC2        0.0000 
     25 N          17.5170    5.9350   16.0470 N.am     12 SEL2        0.0000 
     26 N          20.5040    4.5640   14.2055 N.am      2 SEC2        0.0000 
     27 N          19.8550    5.1840   15.2970 N.am     12 SEL2        0.0000 
     28 N          21.1530    3.9440   13.1140 N.am      7 SEP2        0.0000 
     29 CA         16.8080    6.2770   18.7490 C.3       5 GLC5        0.0000 
     30 CA         18.5540    5.7890   18.9030 C.3      15 GLL5        0.0000 
     31 CA         15.0620    6.7650   18.5950 C.3      10 GLP5        0.0000 
     32 N          17.9355    3.3300   20.6700 N.am      2 SEC2        0.0000 
     33 N          19.2530    3.9010   20.2320 N.am     12 SEL2        0.0000 
     34 N          16.6180    2.7590   21.1080 N.am      7 SEP2        0.0000 
     35 CA         22.1210    7.1105   19.5815 C.3       5 GLC5        0.0000 
     36 CA         20.8190    5.6450   19.9830 C.3      15 GLL5        0.0000 
     37 CA         23.4230    8.5760   19.1800 C.3      10 GLP5        0.0000 
     38 O          21.8355    7.0285   21.5750 O.2       1 ALC1        0.0000 
     39 O          21.3560    5.8760   21.2920 O.2      11 ALL1        0.0000 
     40 O          22.3150    8.1810   21.8580 O.2       6 ALP1        0.0000 
     41 CA         23.4505    4.9055   19.0300 C.3       5 GLC5        0.0000 
     42 CA         21.4030    4.3840   19.3690 C.3      15 GLL5        0.0000 
     43 CA         25.4980    5.4270   18.6910 C.3      10 GLP5        0.0000 
     44 N          23.3430    5.7050   19.3820 N.am      2 SEC2        0.0000 
     45 N          22.7870    4.2110   19.6850 N.am     12 SEL2        0.0000 
     46 N          23.8990    7.1990   19.0790 N.am      7 SEP2        0.0000 
     47 CA         18.5685    2.4760   20.0700 C.3       5 GLC5        0.0000 
     48 CA         20.5400    3.3110   20.0180 C.3      15 GLL5        0.0000 
     49 CA         16.5970    1.6410   20.1220 C.3      10 GLP5        0.0000 
     50 N          18.6305    0.0625   16.8925 N.am      2 SEC2        0.0000 
     51 N          19.8720    0.7350   17.5140 N.am     12 SEL2        0.0000 
     52 N          17.3890   -0.6100   16.2710 N.am      7 SEP2        0.0000 
     53 CA         18.4185   -0.4435   19.2035 C.3       5 GLC5        0.0000 
     54 CA         20.1330   -0.0250   18.5950 C.3      15 GLL5        0.0000 
     55 CA         16.7040   -0.8620   19.8120 C.3      10 GLP5        0.0000 
     56 CA         20.9230   -0.5260   16.7055 C.3       5 GLC5        0.0000 
     57 CA         21.7130   -1.0270   14.8160 C.3      10 GLP5        0.0000 
     58 N          20.4675   -2.7655   16.7815 N.am      2 SEC2        0.0000 
     59 N          19.9300   -2.2900   17.9940 N.am     12 SEL2        0.0000 
     60 N          21.0050   -3.2410   15.5690 N.am      7 SEP2        0.0000 
     61 N          21.5680   -2.6480   17.5205 N.am      2 SEC2        0.0000 
     62 N          23.2060   -3.0060   17.0470 N.am      7 SEP2        0.0000 
     63 O          20.4550   -3.1685   20.4010 O.2       1 ALC1        0.0000 
     64 O          20.4840   -1.8360   20.1560 O.2      11 ALL1        0.0000 
     65 O          20.4260   -4.5010   20.6460 O.2       6 ALP1        0.0000 
     66 O          20.9385   -2.9910   21.3700 O.2       1 ALC1        0.0000 
     67 O          21.3930   -4.1460   22.5840 O.2       6 ALP1        0.0000 
     68 O          21.2220   -2.7770   22.4810 O.2       1 ALC1        0.0000 
     69 O          21.0510   -1.4080   22.3780 O.2      11 ALL1        0.0000 
     70 CA         18.5120    1.2620   19.9135 C.3       5 GLC5        0.0000 
     71 CA         20.4270    0.8830   19.7050 C.3      15 GLL5        0.0000 
@<TRIPOS>BOND
@<TRIPOS>SUBSTRUCTURE
     1 ALC1       38 GROUP        1 X    ALC  0     ROOT ALC X 1
     2 SEC2        4 GROUP        1 X    SEC  0     **** SEC X 2
     3 LYC4        1 GROUP        1 X    LYC  0     **** LYC X 4
     4 ZIC7       18 GROUP        1 X    ZIC  0     **** ZIC X 5
     5 GLC5       29 GROUP        1 X    GLC  0     **** GLC X 6
     6 ALP1       40 GROUP        1 Y    ALP  0     ROOT ALP Y 8
     7 SEP2        6 GROUP        1 Y    SEP  0     **** SEP Y 9
     8 LYP4        3 GROUP        1 Y    LYP  0     **** LYP Y 11
     9 ZIP7       20 GROUP        1 Y    ZIP  0     **** ZIP Y 12
    10 GLP5       31 GROUP        1 Y    GLP  0     **** GLP Y 13
    11 ALL1       39 GROUP        1 Z    ALL  0     ROOT ALL Z 15
    12 SEL2        5 GROUP        1 Z    SEL  0     **** SEL Z 16
    13 LYL4        2 GROUP        1 Z    LYL  0     **** LYL Z 18
    14 ZIL7       19 GROUP        1 Z    ZIL  0     **** ZIL Z 19
    15 GLL5       30 GROUP        1 Z    GLL  0     **** GLL Z 20
@<TRIPOS>SET

