#    Name: 2a78_GDP_1_ligand
#    Modification time : Mon Mar 24 18:34:17 2014

@<TRIPOS>MOLECULE
2a78_GDP_1_ligand
   40    42     1     0     0
SMALL
NO_CHARGES


@<TRIPOS>ATOM
      1 PB         16.7430    6.8590   14.9870 P.3       1 GDP500      0.0000 
      2 O1B        16.3490    8.1320   15.6800 O.co2     1 GDP500      0.0000 
      3 O2B        15.5100    6.1040   14.5650 O.co2     1 GDP500      0.0000 
      4 O3B        17.6470    7.1840   13.8270 O.co2     1 GDP500      0.0000 
      5 O3A        17.5170    5.9350   16.0470 O.3       1 GDP500      0.0000 
      6 PA         19.0960    5.9790   16.3210 P.3       1 GDP500      0.0000 
      7 O1A        19.8550    5.1840   15.2970 O.co2     1 GDP500      0.0000 
      8 O2A        19.6120    7.3870   16.4720 O.co2     1 GDP500      0.0000 
      9 O5'        19.1830    5.2390   17.7380 O.3       1 GDP500      0.0000 
     10 C5'        18.5540    5.7890   18.9030 C.3       1 GDP500      0.0000 
     11 C4'        19.3360    5.3280   20.1310 C.3       1 GDP500      0.0000 
     12 O4'        19.2530    3.9010   20.2320 O.3       1 GDP500      0.0000 
     13 C3'        20.8190    5.6450   19.9830 C.3       1 GDP500      0.0000 
     14 O3'        21.3560    5.8760   21.2920 O.3       1 GDP500      0.0000 
     15 C2'        21.4030    4.3840   19.3690 C.3       1 GDP500      0.0000 
     16 O2'        22.7870    4.2110   19.6850 O.3       1 GDP500      0.0000 
     17 C1'        20.5400    3.3110   20.0180 C.3       1 GDP500      0.0000 
     18 N9         20.3330    2.1040   19.1990 N.pl3     1 GDP500      0.0000 
     19 C8         19.9910    2.0290   17.9000 C.2       1 GDP500      0.0000 
     20 N7         19.8720    0.7350   17.5140 N.2       1 GDP500      0.0000 
     21 C5         20.1330   -0.0250   18.5950 C.2       1 GDP500      0.0000 
     22 C6         20.1740   -1.4640   18.9010 C.2       1 GDP500      0.0000 
     23 O6         19.9300   -2.2900   17.9940 O.2       1 GDP500      0.0000 
     24 N1         20.4840   -1.8360   20.1560 N.am      1 GDP500      0.0000 
     25 C2         20.7530   -0.9530   21.1380 C.2       1 GDP500      0.0000 
     26 N2         21.0510   -1.4080   22.3780 N.pl3     1 GDP500      0.0000 
     27 N3         20.7280    0.3870   20.9320 N.2       1 GDP500      0.0000 
     28 C4         20.4270    0.8830   19.7050 C.2       1 GDP500      0.0000 
     29 H          17.5263    5.4436   19.0090 H         1 GDP500      0.0000 
     30 H          18.5596    6.8782   18.8896 H         1 GDP500      0.0000 
     31 H          18.9630    5.8041   20.9981 H         1 GDP500      0.0000 
     32 H          20.9314    6.4469   19.3252 H         1 GDP500      0.0000 
     33 H          21.1884    4.3909   18.3311 H         1 GDP500      0.0000 
     34 H          20.9757    3.0489   20.9688 H         1 GDP500      0.0000 
     35 H          19.8470    2.7976   17.3114 H         1 GDP500      0.0000 
     36 H          20.5187   -2.8740   20.3848 H         1 GDP500      0.0000 
     37 H          21.2715   -0.7117   23.0610 H         1 GDP500      0.0000 
     38 H          21.0242   -2.4001   22.5009 H         1 GDP500      0.0000 
     39 H          21.2037    6.8489   21.4662 H         1 GDP500      0.0000 
     40 H          22.8930    4.5957   20.6019 H         1 GDP500      0.0000 
@<TRIPOS>BOND
     1    2    1 ar   
     2    3    1 ar   
     3    4    1 ar   
     4    5    1 1    
     5    6    5 1    
     6    7    6 ar   
     7    8    6 ar   
     8    9    6 1    
     9   10    9 1    
    10   11   10 1    
    11   29   10 1    
    12   30   10 1    
    13   12   11 1    
    14   13   11 1    
    15   31   11 1    
    16   17   12 1    
    17   14   13 1    
    18   15   13 1    
    19   32   13 1    
    20   39   14 1    
    21   16   15 1    
    22   17   15 1    
    23   33   15 1    
    24   40   16 1    
    25   18   17 1    
    26   34   17 1    
    27   19   18 1    
    28   28   18 1    
    29   20   19 2    
    30   35   19 1    
    31   21   20 1    
    32   22   21 1    
    33   28   21 2    
    34   23   22 2    
    35   24   22 am   
    36   25   24 1    
    37   36   24 1    
    38   26   25 1    
    39   27   25 2    
    40   37   26 1    
    41   38   26 1    
    42   28   27 1    
@<TRIPOS>SUBSTRUCTURE
     1 GDP500      1 GROUP   
@<TRIPOS>SET

