#    Name: 3E9I_4_CAVITY_N1_6.mol2
#    Modification time : Mon Mar 10 12:43:42 2014

@<TRIPOS>MOLECULE
3E9I_4_CAVITY_N1_6.mol2
  145     0     6     0     0
SMALL
NO_CHARGES


@<TRIPOS>ATOM
      1 O         119.0648 -131.1054   25.0178 O.2       1 ALA2        0.0000 
      2 O         117.7432 -130.6909   25.5936 O.2       1 ALA2        0.0000 
      3 O         116.4216 -130.2764   26.1694 O.2       1 ALA2        0.0000 
      4 N         118.5176 -132.4757   24.7482 N.2       1 ALA2        0.0000 
      5 N         117.1960 -132.0612   25.3240 N.2       1 ALA2        0.0000 
      6 O         115.8744 -131.6468   25.8998 O.2       1 ALA2        0.0000 
      7 NZ        115.3271 -133.0171   25.6301 N.2       3 LYS4        0.0000 
      8 O         119.0620 -125.2427   28.6066 O.2       1 ALA2        0.0000 
      9 O         115.0642 -123.0708   25.6824 O.2       1 ALA2        0.0000 
     10 NZ        113.7426 -122.6564   26.2582 N.2       3 LYS4        0.0000 
     11 O         114.5170 -124.4412   25.4128 O.2       1 ALA2        0.0000 
     12 NZ        113.1954 -124.0267   25.9886 N.2       3 LYS4        0.0000 
     13 OD1       116.6130 -126.6405   23.9915 O.3       2 ASP3        0.0000 
     14 O         115.2914 -126.2260   24.5674 O.2       1 ALA2        0.0000 
     15 O         113.9698 -125.8115   25.1432 O.2       1 ALA2        0.0000 
     16 O         112.6481 -125.3971   25.7190 O.2       1 ALA2        0.0000 
     17 NZ        118.7090 -128.8397   22.5703 N.2       3 LYS4        0.0000 
     18 OD1       117.3874 -128.4253   23.1461 O.3       2 ASP3        0.0000 
     19 O         116.0658 -128.0108   23.7219 O.2       1 ALA2        0.0000 
     20 O         114.7441 -127.5963   24.2977 O.2       1 ALA2        0.0000 
     21 NZ        118.1618 -130.2101   22.3007 N.2       3 LYS4        0.0000 
     22 DU        116.8402 -129.7956   22.8765 H         6 CUB7        0.0000 
     23 O         115.5185 -129.3811   23.4523 O.2       1 ALA2        0.0000 
     24 DU        117.6145 -131.5804   22.0310 H         6 CUB7        0.0000 
     25 DU        116.2929 -131.1660   22.6068 H         6 CUB7        0.0000 
     26 O         114.9713 -130.7515   23.1826 O.2       1 ALA2        0.0000 
     27 DU        117.0673 -132.9508   21.7614 H         6 CUB7        0.0000 
     28 DU        115.7457 -132.5363   22.3372 H         6 CUB7        0.0000 
     29 O         114.4241 -132.1218   22.9130 O.2       1 ALA2        0.0000 
     30 O         113.1025 -131.7074   23.4888 O.2       1 ALA2        0.0000 
     31 NZ        113.8769 -133.4922   22.6433 N.2       3 LYS4        0.0000 
     32 NZ        113.2911 -122.2087   24.8997 N.2       3 LYS4        0.0000 
     33 N         112.7438 -123.5791   24.6300 N.2       1 ALA2        0.0000 
     34 NZ        117.4831 -126.6073   22.0572 N.2       3 LYS4        0.0000 
     35 O         116.1615 -126.1928   22.6330 O.2       1 ALA2        0.0000 
     36 O         114.8398 -125.7784   23.2088 O.2       1 ALA2        0.0000 
     37 O         113.5182 -125.3639   23.7846 O.2       1 ALA2        0.0000 
     38 CA        112.1966 -124.9494   24.3604 C.3       5 GLY6        0.0000 
     39 NZ        118.2575 -128.3921   21.2117 N.2       3 LYS4        0.0000 
     40 DU        116.9359 -127.9776   21.7875 H         6 CUB7        0.0000 
     41 DU        115.6142 -127.5632   22.3633 H         6 CUB7        0.0000 
     42 O         114.2926 -127.1487   22.9391 O.2       1 ALA2        0.0000 
     43 CA        112.9710 -126.7342   23.5149 C.3       5 GLY6        0.0000 
     44 NZ        119.0319 -130.1769   20.3663 N.2       3 LYS4        0.0000 
     45 DU        117.7102 -129.7624   20.9421 H         6 CUB7        0.0000 
     46 O         115.0670 -128.9335   22.0937 O.2       1 ALA2        0.0000 
     47 O         113.7454 -128.5190   22.6695 O.2       1 ALA2        0.0000 
     48 DU        115.8414 -130.7183   21.2482 H         6 CUB7        0.0000 
     49 N         114.5198 -130.3038   21.8240 N.2       1 ALA2        0.0000 
     50 N         113.1982 -129.8894   22.3998 N.2       1 ALA2        0.0000 
     51 DU        115.2942 -132.0887   20.9786 H         6 CUB7        0.0000 
     52 N         113.9726 -131.6742   21.5544 N.2       1 ALA2        0.0000 
     53 CA        120.1922 -129.2931   30.2087 C.3       5 GLY6        0.0000 
     54 CA        118.8706 -128.8787   30.7845 C.3       5 GLY6        0.0000 
     55 CZ        118.3234 -130.2490   30.5148 C.ar      4 PHE5        0.0000 
     56 CZ        117.7762 -131.6193   30.2452 C.ar      4 PHE5        0.0000 
     57 N         117.2289 -132.9897   29.9755 N.2       1 ALA2        0.0000 
     58 CZ        115.9073 -132.5752   30.5513 C.ar      4 PHE5        0.0000 
     59 OD1       119.8364 -127.0275   27.7611 O.3       2 ASP3        0.0000 
     60 O         118.5148 -126.6130   28.3369 O.2       1 ALA2        0.0000 
     61 CA        117.1932 -126.1986   28.9127 C.3       5 GLY6        0.0000 
     62 CA        120.6108 -128.8123   26.9157 C.3       5 GLY6        0.0000 
     63 OD1       119.2892 -128.3978   27.4915 O.3       2 ASP3        0.0000 
     64 DU        117.9676 -127.9834   28.0673 H         6 CUB7        0.0000 
     65 CZ        116.6459 -127.5689   28.6431 C.ar      4 PHE5        0.0000 
     66 OD1       118.7420 -129.7682   27.2218 O.3       2 ASP3        0.0000 
     67 DU        117.4203 -129.3537   27.7976 H         6 CUB7        0.0000 
     68 CZ        116.0987 -128.9393   28.3735 C.ar      4 PHE5        0.0000 
     69 O         118.1947 -131.1385   26.9522 O.2       1 ALA2        0.0000 
     70 DU        116.8731 -130.7241   27.5280 H         6 CUB7        0.0000 
     71 CZ        115.5515 -130.3096   28.1038 C.ar      4 PHE5        0.0000 
     72 N         117.6475 -132.5089   26.6826 N.2       1 ALA2        0.0000 
     73 CA        116.3259 -132.0944   27.2584 C.3       5 GLY6        0.0000 
     74 CZ        115.0043 -131.6799   27.8342 C.ar      4 PHE5        0.0000 
     75 CA        116.8374 -123.9329   26.4652 C.3       5 GLY6        0.0000 
     76 CA        115.5157 -123.5185   27.0410 C.3       5 GLY6        0.0000 
     77 OD1       117.6117 -125.7178   25.6198 O.3       2 ASP3        0.0000 
     78 CA        116.2901 -125.3033   26.1956 C.3       5 GLY6        0.0000 
     79 CA        114.9685 -124.8888   26.7714 C.3       5 GLY6        0.0000 
     80 OD1       117.0645 -127.0881   25.3501 O.3       2 ASP3        0.0000 
     81 O         115.7429 -126.6736   25.9259 O.2       1 ALA2        0.0000 
     82 O         114.4213 -126.2592   26.5017 O.2       1 ALA2        0.0000 
     83 CA        119.1605 -129.2874   23.9289 C.3       5 GLY6        0.0000 
     84 OD1       117.8389 -128.8729   24.5047 O.3       2 ASP3        0.0000 
     85 O         116.5173 -128.4584   25.0805 O.2       1 ALA2        0.0000 
     86 NZ        118.6133 -130.6577   23.6592 N.2       3 LYS4        0.0000 
     87 DU        117.2917 -130.2432   24.2350 H         6 CUB7        0.0000 
     88 O         115.9701 -129.8288   24.8108 O.2       1 ALA2        0.0000 
     89 NZ        119.3877 -132.4425   22.8138 N.2       3 LYS4        0.0000 
     90 N         118.0661 -132.0281   23.3896 N.2       1 ALA2        0.0000 
     91 DU        116.7444 -131.6136   23.9654 H         6 CUB7        0.0000 
     92 O         115.4228 -131.1991   24.5412 O.2       1 ALA2        0.0000 
     93 N         116.1972 -132.9839   23.6958 N.2       1 ALA2        0.0000 
     94 NZ        114.8756 -132.5695   24.2716 N.2       3 LYS4        0.0000 
     95 NZ        115.6500 -134.3543   23.4261 N.2       3 LYS4        0.0000 
     96 CA        120.2879 -127.4751   29.1197 C.3       5 GLY6        0.0000 
     97 O         119.7407 -128.8455   28.8501 O.2       1 ALA2        0.0000 
     98 CA        118.4191 -128.4310   29.4259 C.3       5 GLY6        0.0000 
     99 CZ        117.0975 -128.0166   30.0017 C.ar      4 PHE5        0.0000 
    100 O         119.1935 -130.2158   28.5804 O.2       1 ALA2        0.0000 
    101 CZ        117.8719 -129.8014   29.1562 C.ar      4 PHE5        0.0000 
    102 CZ        117.3246 -131.1717   28.8866 C.ar      4 PHE5        0.0000 
    103 CZ        115.4558 -132.1276   29.1927 C.ar      4 PHE5        0.0000 
    104 O         118.6105 -124.7951   27.2480 O.2       1 ALA2        0.0000 
    105 OD1       118.0633 -126.1654   26.9784 O.3       2 ASP3        0.0000 
    106 CA        116.7417 -125.7509   27.5542 C.3       5 GLY6        0.0000 
    107 OD1       118.8377 -127.9502   26.1329 O.3       2 ASP3        0.0000 
    108 OD1       117.5160 -127.5357   26.7087 O.3       2 ASP3        0.0000 
    109 CA        116.1944 -127.1213   27.2845 C.3       5 GLY6        0.0000 
    110 CA        119.6120 -129.7350   25.2875 C.3       5 GLY6        0.0000 
    111 OD1       118.2904 -129.3205   25.8633 O.3       2 ASP3        0.0000 
    112 O         116.9688 -128.9061   26.4391 O.2       1 ALA2        0.0000 
    113 O         115.6472 -128.4916   27.0149 O.2       1 ALA2        0.0000 
    114 CZ        112.7109 -122.6506   19.9785 C.ar      4 PHE5        0.0000 
    115 N         112.1637 -124.0210   19.7088 N.2       1 ALA2        0.0000 
    116 DU        115.4856 -128.4527   18.8007 H         6 CUB7        0.0000 
    117 CA        114.1640 -128.0382   19.3765 C.3       5 GLY6        0.0000 
    118 CA        112.8423 -127.6238   19.9523 C.3       5 GLY6        0.0000 
    119 O         114.4840 -123.5127   20.7613 O.2       1 ALA2        0.0000 
    120 O         113.1624 -123.0983   21.3371 O.2       1 ALA2        0.0000 
    121 O         115.2584 -125.2975   19.9158 O.2       1 ALA2        0.0000 
    122 O         113.9368 -124.8831   20.4916 O.2       1 ALA2        0.0000 
    123 CA        112.6152 -124.4686   21.0674 C.3       5 GLY6        0.0000 
    124 O         116.0328 -127.0823   19.0704 O.2       1 ALA2        0.0000 
    125 O         114.7112 -126.6679   19.6462 O.2       1 ALA2        0.0000 
    126 O         113.3896 -126.2534   20.2220 O.2       1 ALA2        0.0000 
    127 O         112.0680 -125.8389   20.7978 O.2       1 ALA2        0.0000 
    128 O         113.6139 -123.5459   22.6956 O.2       1 ALA2        0.0000 
    129 N         112.2923 -123.1314   23.2714 N.2       1 ALA2        0.0000 
    130 NZ        118.3532 -126.5741   20.1228 N.2       3 LYS4        0.0000 
    131 O         117.0316 -126.1596   20.6986 O.2       1 ALA2        0.0000 
    132 O         114.3883 -125.3307   21.8502 O.2       1 ALA2        0.0000 
    133 CA        113.0667 -124.9162   22.4260 C.3       5 GLY6        0.0000 
    134 NZ        117.8059 -127.9445   19.8531 N.2       3 LYS4        0.0000 
    135 O         116.4843 -127.5300   20.4289 O.2       1 ALA2        0.0000 
    136 DU        115.1627 -127.1155   21.0047 H         6 CUB7        0.0000 
    137 O         113.8411 -126.7011   21.5805 O.2       1 ALA2        0.0000 
    138 CA        112.5195 -126.2866   22.1563 C.3       5 GLY6        0.0000 
    139 DU        117.2587 -129.3148   19.5835 H         6 CUB7        0.0000 
    140 DU        114.6155 -128.4859   20.7351 H         6 CUB7        0.0000 
    141 N         113.2939 -128.0714   21.3109 N.2       1 ALA2        0.0000 
    142 DU        116.7115 -130.6851   19.3138 H         6 CUB7        0.0000 
    143 DU        115.3899 -130.2707   19.8897 H         6 CUB7        0.0000 
    144 N         114.0683 -129.8562   20.4655 N.2       1 ALA2        0.0000 
    145 N         113.5210 -131.2265   20.1958 N.2       1 ALA2        0.0000 
@<TRIPOS>BOND
@<TRIPOS>SUBSTRUCTURE
     1 ALA2        1 GROUP   
     2 ASP3       13 GROUP   
     3 LYS4        7 GROUP   
     4 PHE5       55 GROUP   
     5 GLY6       38 GROUP   
     6 CUB7       22 GROUP   
@<TRIPOS>SET

