#    Name: 3e9i_XAH_4_INTS_M
#    Modification time : Tue Mar 25 01:19:51 2014

@<TRIPOS>MOLECULE
3e9i_XAH_4_INTS_M
   96     0    15     0     0
SMALL
NO_CHARGES


@<TRIPOS>ATOM
      1 OD1       111.8465 -118.4380   23.9200 O.co2     3 ASC3        0.0000 
      2 OD1       113.4060 -118.3160   24.6400 O.co2    13 ASL3        0.0000 
      3 OD1       110.2870 -118.5600   23.2000 O.co2     8 ASP3        0.0000 
      4 OD1       112.2945 -119.2240   24.5440 O.co2     3 ASC3        0.0000 
      5 OD1       111.1830 -120.1320   24.4480 O.co2     8 ASP3        0.0000 
      6 OD1       113.3855 -117.0015   24.4290 O.co2     3 ASC3        0.0000 
      7 OD1       113.3650 -115.6870   24.2180 O.co2     8 ASP3        0.0000 
      8 OD1       112.7075 -117.0155   23.5640 O.co2     3 ASC3        0.0000 
      9 OD1       112.0090 -115.7150   22.4880 O.co2     8 ASP3        0.0000 
     10 O         111.8465 -118.4380   23.9200 O.2       1 ALC1        0.0000 
     11 O         113.4060 -118.3160   24.6400 O.2      11 ALL1        0.0000 
     12 O         110.2870 -118.5600   23.2000 O.2       6 ALP1        0.0000 
     13 O         112.2945 -119.2240   24.5440 O.2       1 ALC1        0.0000 
     14 O         111.1830 -120.1320   24.4480 O.2       6 ALP1        0.0000 
     15 O         112.4395 -118.2815   25.8505 O.2       1 ALC1        0.0000 
     16 O         111.4730 -118.2470   27.0610 O.2       6 ALP1        0.0000 
     17 O         113.3855 -117.0015   24.4290 O.2       1 ALC1        0.0000 
     18 O         113.3650 -115.6870   24.2180 O.2       6 ALP1        0.0000 
     19 CA        114.2745 -119.1375   23.1205 C.3       5 GLC5        0.0000 
     20 CA        114.7910 -118.7950   24.7620 C.3      15 GLL5        0.0000 
     21 CA        113.7580 -119.4800   21.4790 C.3      10 GLP5        0.0000 
     22 CA        114.8955 -116.7995   25.6345 C.3       5 GLC5        0.0000 
     23 CA        115.0000 -114.8040   26.5070 C.3      10 GLP5        0.0000 
     24 CA        115.9855 -118.1110   26.4835 C.3       5 GLC5        0.0000 
     25 CA        117.1800 -117.4270   28.2050 C.3      10 GLP5        0.0000 
     26 CA        116.5255 -121.6880   24.6670 C.3       5 GLC5        0.0000 
     27 CA        114.8270 -120.3200   24.8900 C.3      15 GLL5        0.0000 
     28 CA        118.2240 -123.0560   24.4440 C.3      10 GLP5        0.0000 
     29 CA        114.9625 -120.0730   23.1050 C.3       5 GLC5        0.0000 
     30 CA        115.0980 -119.8260   21.3200 C.3      10 GLP5        0.0000 
     31 CA        114.2540 -123.5220   27.9605 C.3       5 GLC5        0.0000 
     32 CA        114.2100 -122.3250   26.3150 C.3      15 GLL5        0.0000 
     33 CA        114.2980 -124.7190   29.6060 C.3      10 GLP5        0.0000 
     34 CA        116.2170 -122.6905   25.3795 C.3       5 GLC5        0.0000 
     35 OD1       111.5005 -121.3300   25.1610 O.co2     3 ASC3        0.0000 
     36 OD1       111.8180 -122.5280   25.8740 O.co2    13 ASL3        0.0000 
     37 OD1       111.6055 -121.3815   27.2555 O.co2     3 ASC3        0.0000 
     38 OD1       111.3930 -120.2350   28.6370 O.co2     8 ASP3        0.0000 
     39 OD1       111.4675 -122.4575   27.3200 O.co2     3 ASC3        0.0000 
     40 OD1       111.1170 -122.3870   28.7660 O.co2     8 ASP3        0.0000 
     41 O         110.7910 -123.0055   24.7930 O.2       1 ALC1        0.0000 
     42 O         111.8180 -122.5280   25.8740 O.2      11 ALL1        0.0000 
     43 O         109.7640 -123.4830   23.7120 O.2       6 ALP1        0.0000 
     44 O         111.5005 -121.3300   25.1610 O.2       1 ALC1        0.0000 
     45 O         111.4675 -122.4575   27.3200 O.2       1 ALC1        0.0000 
     46 O         111.1170 -122.3870   28.7660 O.2       6 ALP1        0.0000 
     47 N         113.3625 -127.1645   25.7740 N.am      2 SEC2        0.0000 
     48 N         114.5120 -126.3650   25.1490 N.am     12 SEL2        0.0000 
     49 N         112.2130 -127.9640   26.3990 N.am      7 SEP2        0.0000 
     50 N         114.7590 -128.9650   25.0200 N.am      2 SEC2        0.0000 
     51 N         116.0240 -128.2290   24.4400 N.am     12 SEL2        0.0000 
     52 N         113.4940 -129.7010   25.6000 N.am      7 SEP2        0.0000 
     53 CA        115.7350 -125.3905   28.4535 C.3       5 GLC5        0.0000 
     54 CA        117.1720 -126.0620   27.3010 C.3      15 GLL5        0.0000 
     55 CA        117.6980 -124.5590   25.8725 C.3       5 GLC5        0.0000 
     56 CA        118.7570 -126.7295   30.0925 C.3       5 GLC5        0.0000 
     57 CA        118.1550 -126.7870   28.2190 C.3      15 GLL5        0.0000 
     58 CA        119.3590 -126.6720   31.9660 C.3      10 GLP5        0.0000 
     59 CA        120.5075 -128.4580   26.0450 C.3       5 GLC5        0.0000 
     60 CA        119.0170 -127.7260   27.3760 C.3      15 GLL5        0.0000 
     61 CA        121.9980 -129.1900   24.7140 C.3      10 GLP5        0.0000 
     62 Zn        119.9400 -126.6115   25.5265 Zn        4 ZIC7        0.0000 
     63 Zn        120.1040 -126.9790   26.8250 Zn       14 ZIL7        0.0000 
     64 Zn        119.7760 -126.2440   24.2280 Zn        9 ZIP7        0.0000 
     65 CA        120.9670 -129.7040   29.1340 C.3       5 GLC5        0.0000 
     66 CA        119.5440 -128.6190   28.4960 C.3      15 GLL5        0.0000 
     67 CA        122.3900 -130.7890   29.7720 C.3      10 GLP5        0.0000 
     68 CA        116.4955 -129.0160   30.0465 C.3       5 GLC5        0.0000 
     69 CA        118.2850 -128.8150   29.3450 C.3      15 GLL5        0.0000 
     70 CA        114.7060 -129.2170   30.7480 C.3      10 GLP5        0.0000 
     71 CA        117.9320 -134.6720   30.5410 C.3       5 GLC5        0.0000 
     72 CA        117.6270 -132.7330   31.2870 C.3      15 GLL5        0.0000 
     73 CA        118.2370 -136.6110   29.7950 C.3      10 GLP5        0.0000 
     74 CA        116.3250 -132.2960   32.3735 C.3       5 GLC5        0.0000 
     75 CA        115.0230 -131.8590   33.4600 C.3      10 GLP5        0.0000 
     76 CA        118.4235 -133.7530   32.5265 C.3       5 GLC5        0.0000 
     77 CA        119.2200 -134.7730   33.7660 C.3      10 GLP5        0.0000 
     78 N         116.5810 -135.0545   31.0100 N.am      2 SEC2        0.0000 
     79 N         116.7850 -133.5400   30.6640 N.am     12 SEL2        0.0000 
     80 N         116.3770 -136.5690   31.3560 N.am      7 SEP2        0.0000 
     81 CA        115.6095 -132.5220   31.4860 C.3       5 GLC5        0.0000 
     82 CA        116.1960 -133.1850   29.5120 C.3      15 GLL5        0.0000 
     83 O         114.6585 -134.7030   30.2135 O.2       1 ALC1        0.0000 
     84 O         115.3300 -134.0080   28.9260 O.2      11 ALL1        0.0000 
     85 O         113.9870 -135.3980   31.5010 O.2       6 ALP1        0.0000 
     86 O         114.5625 -134.4350   27.6825 O.2       1 ALC1        0.0000 
     87 O         113.7950 -134.8620   26.4390 O.2       6 ALP1        0.0000 
     88 CA        116.6520 -118.9292   24.4925 C.3       5 GLC5        0.0000 
     89 CA        118.4950 -118.3010   24.1590 C.3      10 GLP5        0.0000 
     90 CA        115.4810 -121.3345   27.6352 C.3       5 GLC5        0.0000 
     91 CA        114.2340 -120.7970   26.2180 C.3      15 GLL5        0.0000 
     92 CA        116.7400 -121.1080   29.0040 C.3      10 GLP5        0.0000 
     93 CA        119.1368 -127.6945   30.4432 C.3       5 GLC5        0.0000 
     94 CA        116.9948 -133.9368   27.8890 C.3       5 GLC5        0.0000 
     95 CA        116.4850 -131.9420   28.9620 C.3      15 GLL5        0.0000 
     96 CA        117.6490 -135.3100   26.5410 C.3      10 GLP5        0.0000 
@<TRIPOS>BOND
@<TRIPOS>SUBSTRUCTURE
     1 ALC1       10 GROUP        1 X    ALC  0     ROOT ALC X 1
     2 SEC2       47 GROUP        1 X    SEC  0     **** SEC X 2
     3 ASC3        1 GROUP        1 X    ASC  0     **** ASC X 3
     4 ZIC7       62 GROUP        1 X    ZIC  0     **** ZIC X 5
     5 GLC5       19 GROUP        1 X    GLC  0     **** GLC X 6
     6 ALP1       12 GROUP        1 Y    ALP  0     ROOT ALP Y 8
     7 SEP2       49 GROUP        1 Y    SEP  0     **** SEP Y 9
     8 ASP3        3 GROUP        1 Y    ASP  0     **** ASP Y 10
     9 ZIP7       64 GROUP        1 Y    ZIP  0     **** ZIP Y 12
    10 GLP5       21 GROUP        1 Y    GLP  0     **** GLP Y 13
    11 ALL1       11 GROUP        1 Z    ALL  0     ROOT ALL Z 15
    12 SEL2       48 GROUP        1 Z    SEL  0     **** SEL Z 16
    13 ASL3        2 GROUP        1 Z    ASL  0     **** ASL Z 17
    14 ZIL7       63 GROUP        1 Z    ZIL  0     **** ZIL Z 19
    15 GLL5       20 GROUP        1 Z    GLL  0     **** GLL Z 20
@<TRIPOS>SET

