#    Name: 3e9i_XAH_4_ligand
#    Modification time : Tue Mar 25 01:19:51 2014

@<TRIPOS>MOLECULE
3e9i_XAH_4_ligand
   61    63     1     0     0
SMALL
NO_CHARGES


@<TRIPOS>ATOM
      1 N1        113.4060 -118.3160   24.6400 N.4       1 XAH1301     0.0000 
      2 C2        114.7910 -118.7950   24.7620 C.3       1 XAH1301     0.0000 
      3 C3        114.8270 -120.3200   24.8900 C.3       1 XAH1301     0.0000 
      4 C4        114.2340 -120.7970   26.2180 C.3       1 XAH1301     0.0000 
      5 C5        114.2100 -122.3250   26.3150 C.3       1 XAH1301     0.0000 
      6 C6        113.1480 -122.9300   25.3930 C.3       1 XAH1301     0.0000 
      7 N7        111.8180 -122.5280   25.8740 N.4       1 XAH1301     0.0000 
      8 C8        113.2140 -124.4590   25.3910 C.2       1 XAH1301     0.0000 
      9 O9        112.1990 -125.1130   25.6260 O.2       1 XAH1301     0.0000 
     10 N10       114.4090 -125.0080   25.1800 N.am      1 XAH1301     0.0000 
     11 O11       114.5120 -126.3650   25.1490 O.3       1 XAH1301     0.0000 
     12 P12       116.0360 -126.8860   25.0610 P.3       1 XAH1301     0.0000 
     13 O13       116.0240 -128.2290   24.4400 O.co2     1 XAH1301     0.0000 
     14 O14       116.9090 -125.8530   24.4600 O.co2     1 XAH1301     0.0000 
     15 O15       116.3780 -127.0400   26.6250 O.3       1 XAH1301     0.0000 
     16 C16       117.1720 -126.0620   27.3010 C.3       1 XAH1301     0.0000 
     17 C17       118.1550 -126.7870   28.2190 C.3       1 XAH1301     0.0000 
     18 O18       117.4520 -127.6650   29.1110 O.3       1 XAH1301     0.0000 
     19 C19       119.0170 -127.7260   27.3760 C.3       1 XAH1301     0.0000 
     20 O20       120.1040 -126.9790   26.8250 O.3       1 XAH1301     0.0000 
     21 C21       119.5440 -128.6190   28.4960 C.3       1 XAH1301     0.0000 
     22 O22       120.5420 -127.9130   29.2390 O.3       1 XAH1301     0.0000 
     23 C23       118.2850 -128.8150   29.3450 C.3       1 XAH1301     0.0000 
     24 N24       117.4910 -129.9980   28.9390 N.pl3     1 XAH1301     0.0000 
     25 C25       116.7190 -130.1110   27.8600 C.2       1 XAH1301     0.0000 
     26 N26       116.1020 -131.2910   27.8680 N.2       1 XAH1301     0.0000 
     27 C27       116.4850 -131.9420   28.9620 C.ar      1 XAH1301     0.0000 
     28 C28       117.3740 -131.1210   29.6430 C.ar      1 XAH1301     0.0000 
     29 N29       117.9210 -131.5430   30.7920 N.ar      1 XAH1301     0.0000 
     30 C30       117.6270 -132.7330   31.2870 C.ar      1 XAH1301     0.0000 
     31 N31       116.7850 -133.5400   30.6640 N.ar      1 XAH1301     0.0000 
     32 C32       116.1960 -133.1850   29.5120 C.ar      1 XAH1301     0.0000 
     33 N33       115.3300 -134.0080   28.9260 N.pl3     1 XAH1301     0.0000 
     34 H         115.2726 -118.3649   25.6458 H         1 XAH1301     0.0000 
     35 H         115.3776 -118.5103   23.8829 H         1 XAH1301     0.0000 
     36 H         115.8628 -120.6610   24.8173 H         1 XAH1301     0.0000 
     37 H         114.2612 -120.7619   24.0659 H         1 XAH1301     0.0000 
     38 H         113.2144 -120.4164   26.3124 H         1 XAH1301     0.0000 
     39 H         114.8295 -120.3955   27.0411 H         1 XAH1301     0.0000 
     40 H         113.9975 -122.6151   27.3451 H         1 XAH1301     0.0000 
     41 H         115.1899 -122.7168   26.0383 H         1 XAH1301     0.0000 
     42 H         113.3037 -122.5734   24.3971 H         1 XAH1301     0.0000 
     43 H         115.2529 -124.4249   25.0405 H         1 XAH1301     0.0000 
     44 H         116.5632 -125.3998   27.9179 H         1 XAH1301     0.0000 
     45 H         117.7502 -125.4549   26.6033 H         1 XAH1301     0.0000 
     46 H         118.7707 -126.1095   28.7182 H         1 XAH1301     0.0000 
     47 H         118.4424 -128.2562   26.7391 H         1 XAH1301     0.0000 
     48 H         119.8390 -129.5279   28.1009 H         1 XAH1301     0.0000 
     49 H         118.5582 -128.8742   30.3687 H         1 XAH1301     0.0000 
     50 H         116.6196 -129.4271   27.1632 H         1 XAH1301     0.0000 
     51 H         118.0717 -133.0443   32.1946 H         1 XAH1301     0.0000 
     52 H         115.1399 -134.8630   29.4086 H         1 XAH1301     0.0000 
     53 H         114.9474 -133.6973   28.0559 H         1 XAH1301     0.0000 
     54 H         113.3501 -117.4739   24.1035 H         1 XAH1301     0.0000 
     55 H         112.8184 -118.9892   24.1910 H         1 XAH1301     0.0000 
     56 H         113.0001 -118.1220   25.5331 H         1 XAH1301     0.0000 
     57 H         111.0876 -122.9037   25.3036 H         1 XAH1301     0.0000 
     58 H         111.6507 -122.8416   26.8087 H         1 XAH1301     0.0000 
     59 H         111.7079 -121.5341   25.8742 H         1 XAH1301     0.0000 
     60 H         120.5418 -127.6003   26.1751 H         1 XAH1301     0.0000 
     61 H         120.9232 -127.2499   28.5948 H         1 XAH1301     0.0000 
@<TRIPOS>BOND
     1    2    1 1    
     2   54    1 1    
     3   55    1 1    
     4   56    1 1    
     5    3    2 1    
     6   34    2 1    
     7   35    2 1    
     8    4    3 1    
     9   36    3 1    
    10   37    3 1    
    11    5    4 1    
    12   38    4 1    
    13   39    4 1    
    14    6    5 1    
    15   40    5 1    
    16   41    5 1    
    17    7    6 1    
    18    8    6 1    
    19   42    6 1    
    20   57    7 1    
    21   58    7 1    
    22   59    7 1    
    23    9    8 2    
    24   10    8 am   
    25   11   10 1    
    26   43   10 1    
    27   12   11 1    
    28   13   12 ar   
    29   14   12 ar   
    30   15   12 1    
    31   16   15 1    
    32   17   16 1    
    33   44   16 1    
    34   45   16 1    
    35   18   17 1    
    36   19   17 1    
    37   46   17 1    
    38   23   18 1    
    39   20   19 1    
    40   21   19 1    
    41   47   19 1    
    42   60   20 1    
    43   22   21 1    
    44   23   21 1    
    45   48   21 1    
    46   61   22 1    
    47   24   23 1    
    48   49   23 1    
    49   25   24 1    
    50   28   24 1    
    51   26   25 2    
    52   50   25 1    
    53   27   26 1    
    54   28   27 ar   
    55   32   27 ar   
    56   29   28 ar   
    57   30   29 ar   
    58   31   30 ar   
    59   51   30 1    
    60   32   31 ar   
    61   33   32 1    
    62   52   33 1    
    63   53   33 1    
@<TRIPOS>SUBSTRUCTURE
     1 XAH1301     1 GROUP   
@<TRIPOS>SET

