#    Name: 3pp0_03Q_1_INTS_M
#    Modification time : Tue Mar 25 08:15:22 2014

@<TRIPOS>MOLECULE
3pp0_03Q_1_INTS_M
  117     0     9     0     0
SMALL
NO_CHARGES


@<TRIPOS>ATOM
      1 O          12.2995   16.6095   26.9510 O.2       1 ALC1        0.0000 
      2 O          12.9040   15.4160   27.6660 O.2       7 ALL1        0.0000 
      3 O          11.6950   17.8030   26.2360 O.2       4 ALP1        0.0000 
      4 CA         11.5505   15.3405   27.2345 C.3       3 GLC5        0.0000 
      5 CA         12.7010   15.4320   29.0830 C.3       9 GLL5        0.0000 
      6 CA         10.4000   15.2490   25.3860 C.3       6 GLP5        0.0000 
      7 CA         12.6695   17.3360   28.4655 C.3       3 GLC5        0.0000 
      8 CA         12.6380   19.2400   27.8480 C.3       6 GLP5        0.0000 
      9 CA         13.5860   13.3520   31.6705 C.3       3 GLC5        0.0000 
     10 CA         13.6420   14.4880   29.8430 C.3       9 GLL5        0.0000 
     11 CA         13.5300   12.2160   33.4980 C.3       6 GLP5        0.0000 
     12 CA         15.1130   14.2170   30.7900 C.3       3 GLC5        0.0000 
     13 CA         16.5840   13.9460   31.7370 C.3       6 GLP5        0.0000 
     14 CA         13.9580   12.2260   31.4565 C.3       3 GLC5        0.0000 
     15 CA         14.3860   12.2360   29.4150 C.3       9 GLL5        0.0000 
     16 CA         15.5450    9.9470   27.2360 C.3       3 GLC5        0.0000 
     17 CA         15.2870   11.5040   28.4250 C.3       9 GLL5        0.0000 
     18 CA         15.8030    8.3900   26.0470 C.3       6 GLP5        0.0000 
     19 CA         15.7130   11.9265   26.4220 C.3       3 GLC5        0.0000 
     20 CA         16.1390   12.3490   24.4190 C.3       6 GLP5        0.0000 
     21 CA         18.6155   13.6420   29.9450 C.3       3 GLC5        0.0000 
     22 CA         18.9150   11.8710   29.0910 C.3       9 GLL5        0.0000 
     23 CA         18.3160   15.4130   30.7990 C.3       6 GLP5        0.0000 
     24 N          21.2920   12.1720   29.6040 N.am      2 SEC2        0.0000 
     25 N          20.0600   12.5660   28.9470 N.am      8 SEL2        0.0000 
     26 N          22.5240   11.7780   30.2610 N.am      5 SEP2        0.0000 
     27 CA         20.0755   13.1915   26.7555 C.3       3 GLC5        0.0000 
     28 CA         20.0730   13.7020   28.2760 C.3       9 GLL5        0.0000 
     29 CA         20.0780   12.6810   25.2350 C.3       6 GLP5        0.0000 
     30 CA         20.5970   14.9645   27.0435 C.3       3 GLC5        0.0000 
     31 CA         21.1210   16.2270   25.8110 C.3       6 GLP5        0.0000 
     32 CA         21.7835   12.7225   28.1550 C.3       3 GLC5        0.0000 
     33 CA         23.4940   11.7430   28.0340 C.3       6 GLP5        0.0000 
     34 CA         20.9305   13.9550   30.0260 C.3       3 GLC5        0.0000 
     35 CA         21.7880   14.2080   31.7760 C.3       6 GLP5        0.0000 
     36 CA         19.1945   14.5575   29.5375 C.3       3 GLC5        0.0000 
     37 CA         18.0470   14.4980   29.3115 C.3       3 GLC5        0.0000 
     38 CA         17.7780   13.5830   27.8240 C.3       9 GLL5        0.0000 
     39 CA         14.9135   14.9870   25.4360 C.3       3 GLC5        0.0000 
     40 CA         15.8300   16.3470   26.7750 C.3       9 GLL5        0.0000 
     41 CA         13.9970   13.6270   24.0970 C.3       6 GLP5        0.0000 
     42 CA         15.8015   17.0050   28.5750 C.3       3 GLC5        0.0000 
     43 CA         15.7730   17.6630   30.3750 C.3       6 GLP5        0.0000 
     44 CA         14.9005   18.0460   27.0390 C.3       3 GLC5        0.0000 
     45 CA         13.9710   19.7450   27.3030 C.3       6 GLP5        0.0000 
     46 CA         15.1465   17.4050   23.9055 C.3       3 GLC5        0.0000 
     47 CA         16.6130   17.6270   25.0380 C.3       9 GLL5        0.0000 
     48 CA         13.6800   17.1830   22.7730 C.3       6 GLP5        0.0000 
     49 CA         15.2920   18.6860   26.1705 C.3       3 GLC5        0.0000 
     50 CA         15.6770   19.7990   25.9800 C.3       3 GLC5        0.0000 
     51 CA         17.3830   19.8530   24.6570 C.3       9 GLL5        0.0000 
     52 CA         19.9315   20.2625   27.8200 C.3       3 GLC5        0.0000 
     53 CA         19.2830   20.8190   25.8100 C.3       9 GLL5        0.0000 
     54 CA         20.5800   19.7060   29.8300 C.3       6 GLP5        0.0000 
     55 CA         20.2115   21.0520   23.7840 C.3       3 GLC5        0.0000 
     56 CA         21.1400   21.2850   21.7580 C.3       6 GLP5        0.0000 
     57 CA         19.4080   23.5880   26.0790 C.3       3 GLC5        0.0000 
     58 CA         19.0830   22.0330   25.1770 C.3       9 GLL5        0.0000 
     59 CA         19.7330   25.1430   26.9810 C.3       6 GLP5        0.0000 
     60 CA         20.7460   22.4950   24.1785 C.3       3 GLC5        0.0000 
     61 CA         22.4090   22.9570   23.1800 C.3       6 GLP5        0.0000 
     62 CA         15.6785   23.7020   24.4780 C.3       3 GLC5        0.0000 
     63 CA         16.8670   23.4020   22.5930 C.3       9 GLL5        0.0000 
     64 CA         14.4900   24.0020   26.3630 C.3       6 GLP5        0.0000 
     65 CA         19.4765   25.3885   22.0880 C.3       3 GLC5        0.0000 
     66 CA         19.0360   23.8760   23.0710 C.3       9 GLL5        0.0000 
     67 CA         19.9170   26.9010   21.1050 C.3       6 GLP5        0.0000 
     68 CA         20.3290   23.7480   22.0095 C.3       3 GLC5        0.0000 
     69 CA         21.6220   23.6200   20.9480 C.3       6 GLP5        0.0000 
     70 CA         18.5315   24.7525   25.7390 C.3       3 GLC5        0.0000 
     71 CA         17.3300   24.3620   24.4970 C.3       9 GLL5        0.0000 
     72 CA         18.4080   18.0020   21.6935 C.3       3 GLC5        0.0000 
     73 CA         18.5300   16.8010   23.2920 C.3       9 GLL5        0.0000 
     74 CA         18.2860   19.2030   20.0950 C.3       6 GLP5        0.0000 
     75 CA         20.4065   16.8325   22.0600 C.3       3 GLC5        0.0000 
     76 CA         22.2830   16.8640   20.8280 C.3       6 GLP5        0.0000 
     77 CA         17.1470   13.1520   30.1310 C.3       3 GLC5        0.0000 
     78 CA         17.7100   12.3580   28.5250 C.3       9 GLL5        0.0000 
     79 CA         12.6073   16.2910   30.9750 C.3       3 GLC5        0.0000 
     80 CA         12.0430   17.6220   32.4870 C.3       6 GLP5        0.0000 
     81 CA         14.4722   16.3115   29.9190 C.3       3 GLC5        0.0000 
     82 CA         15.7103   12.9080   30.3285 C.3       3 GLC5        0.0000 
     83 CA         17.6750    9.9278   31.4690 C.3       3 GLC5        0.0000 
     84 CA         17.2480   10.4260   29.5520 C.3       9 GLL5        0.0000 
     85 CA         17.4410    9.3320   33.2900 C.3       6 GLP5        0.0000 
     86 CA         17.2465   12.2348   30.6925 C.3       3 GLC5        0.0000 
     87 CA         20.1303   10.2390   28.4768 C.3       3 GLC5        0.0000 
     88 CA         18.5700   10.6210   29.7440 C.3       9 GLL5        0.0000 
     89 CA         21.5180    9.2320   27.5360 C.3       6 GLP5        0.0000 
     90 CA         20.1523   12.0150   30.8597 C.3       3 GLC5        0.0000 
     91 CA         21.5620   12.7840   32.3020 C.3       6 GLP5        0.0000 
     92 CA         16.9415   12.6598   26.2968 C.3       3 GLC5        0.0000 
     93 CA         19.0616   12.7649   26.7755 C.3       3 GLC5        0.0000 
     94 CA         18.5900   14.0140   25.5760 C.3       3 GLC5        0.0000 
     95 CA         17.5300   15.4110   25.3730 C.3       9 GLL5        0.0000 
     96 CA         16.7987   20.5792   22.3933 C.3       3 GLC5        0.0000 
     97 CA         16.3090   20.7000   20.4510 C.3       6 GLP5        0.0000 
     98 CA         20.3907   18.8513   25.4992 C.3       3 GLC5        0.0000 
     99 CA         18.4440   19.7380   25.5530 C.3       9 GLL5        0.0000 
    100 CA         21.9180   17.4240   25.3170 C.3       6 GLP5        0.0000 
    101 CA         19.5322   22.0403   22.8465 C.3       3 GLC5        0.0000 
    102 CA         17.8170   23.4520   23.5920 C.3       9 GLL5        0.0000 
    103 CA         17.0302   23.5115   25.7907 C.3       3 GLC5        0.0000 
    104 CA         16.4870   23.1160   27.5370 C.3       6 GLP5        0.0000 
    105 CA         16.8524   21.8994   21.8575 C.3       3 GLC5        0.0000 
    106 CA         18.0320   22.1390   24.2780 C.3       9 GLL5        0.0000 
    107 CA         19.4831   24.4039   24.6065 C.3       3 GLC5        0.0000 
    108 CA         20.4860   25.4720   25.7100 C.3       6 GLP5        0.0000 
    109 CA         16.7843   25.3889   23.2392 C.3       3 GLC5        0.0000 
    110 CA         15.8090   26.7710   22.6890 C.3       6 GLP5        0.0000 
    111 CA         16.7177   14.1617   24.8530 C.3       3 GLC5        0.0000 
    112 CA         17.4910   16.6020   24.6570 C.3       9 GLL5        0.0000 
    113 CA         16.6986   16.0251   23.1469 C.3       3 GLC5        0.0000 
    114 CA         15.6270   15.9940   21.6200 C.3       6 GLP5        0.0000 
    115 CA         19.4456   16.1416   25.2424 C.3       3 GLC5        0.0000 
    116 CA         18.0884   10.2565   27.8415 C.3       3 GLC5        0.0000 
    117 CA         18.0660    9.1940   26.4550 C.3       6 GLP5        0.0000 
@<TRIPOS>BOND
@<TRIPOS>SUBSTRUCTURE
     1 ALC1        1 GROUP        1 X    ALC  0     ROOT ALC X 1
     2 SEC2       24 GROUP        1 X    SEC  0     **** SEC X 2
     3 GLC5        4 GROUP        1 X    GLC  0     **** GLC X 6
     4 ALP1        3 GROUP        1 Y    ALP  0     ROOT ALP Y 8
     5 SEP2       26 GROUP        1 Y    SEP  0     **** SEP Y 9
     6 GLP5        6 GROUP        1 Y    GLP  0     **** GLP Y 13
     7 ALL1        2 GROUP        1 Z    ALL  0     ROOT ALL Z 15
     8 SEL2       25 GROUP        1 Z    SEL  0     **** SEL Z 16
     9 GLL5        5 GROUP        1 Z    GLL  0     **** GLL Z 20
@<TRIPOS>SET

