#    Name: 3pp0_03Q_1_ligand
#    Modification time : Tue Mar 25 08:15:22 2014

@<TRIPOS>MOLECULE
3pp0_03Q_1_ligand
   53    56     1     0     0
SMALL
NO_CHARGES


@<TRIPOS>ATOM
      1 O1         12.9040   15.4160   27.6660 O.3       1 03Q1        0.0000 
      2 C2         12.7010   15.4320   29.0830 C.3       1 03Q1        0.0000 
      3 C3         13.6420   14.4880   29.8430 C.3       1 03Q1        0.0000 
      4 O4         14.2820   13.5780   28.9490 O.3       1 03Q1        0.0000 
      5 C5         14.3860   12.2360   29.4150 C.3       1 03Q1        0.0000 
      6 C6         15.2870   11.5040   28.4250 C.3       1 03Q1        0.0000 
      7 N7         16.7110   11.4550   28.8350 N.pl3     1 03Q1        0.0000 
      8 C8         17.2480   10.4260   29.5520 C.2       1 03Q1        0.0000 
      9 C9         18.5700   10.6210   29.7440 C.2       1 03Q1        0.0000 
     10 C10        18.9150   11.8710   29.0910 C.ar      1 03Q1        0.0000 
     11 N11        20.0600   12.5660   28.9470 N.ar      1 03Q1        0.0000 
     12 C12        20.0730   13.7020   28.2760 C.ar      1 03Q1        0.0000 
     13 N13        18.9650   14.2110   27.7290 N.ar      1 03Q1        0.0000 
     14 C14        17.7780   13.5830   27.8240 C.ar      1 03Q1        0.0000 
     15 N15        16.6330   14.1290   27.2530 N.pl3     1 03Q1        0.0000 
     16 C16        16.6740   15.2830   26.4610 C.ar      1 03Q1        0.0000 
     17 C17        15.8300   16.3470   26.7750 C.ar      1 03Q1        0.0000 
     18 N18        15.8160   17.4600   26.0650 N.ar      1 03Q1        0.0000 
     19 C19        16.6130   17.6270   25.0380 C.ar      1 03Q1        0.0000 
     20 O20        16.5470   18.8100   24.3620 O.3       1 03Q1        0.0000 
     21 C21        17.3830   19.8530   24.6570 C.ar      1 03Q1        0.0000 
     22 C22        18.4440   19.7380   25.5530 C.ar      1 03Q1        0.0000 
     23 C23        19.2830   20.8190   25.8100 C.ar      1 03Q1        0.0000 
     24 C24        19.0830   22.0330   25.1770 C.ar      1 03Q1        0.0000 
     25 C25        18.0320   22.1390   24.2780 C.ar      1 03Q1        0.0000 
     26 C26        17.1940   21.0640   24.0140 C.ar      1 03Q1        0.0000 
     27 C27        17.8170   23.4520   23.5920 C.3       1 03Q1        0.0000 
     28 F28        16.8670   23.4020   22.5930 F         1 03Q1        0.0000 
     29 F29        19.0360   23.8760   23.0710 F         1 03Q1        0.0000 
     30 F30        17.3300   24.3620   24.4970 F         1 03Q1        0.0000 
     31 C31        17.4910   16.6020   24.6570 C.ar      1 03Q1        0.0000 
     32 CL32       18.5300   16.8010   23.2920 Cl        1 03Q1        0.0000 
     33 C33        17.5300   15.4110   25.3730 C.ar      1 03Q1        0.0000 
     34 C34        17.7100   12.3580   28.5250 C.ar      1 03Q1        0.0000 
     35 H          11.6616   15.1429   29.3456 H         1 03Q1        0.0000 
     36 H          12.8478   16.4502   29.5008 H         1 03Q1        0.0000 
     37 H          13.0412   13.9616   30.6000 H         1 03Q1        0.0000 
     38 H          14.3714   15.1118   30.3815 H         1 03Q1        0.0000 
     39 H          13.4265   11.7330   29.4311 H         1 03Q1        0.0000 
     40 H          14.8459   12.1774   30.3942 H         1 03Q1        0.0000 
     41 H          15.1945   12.0000   27.4397 H         1 03Q1        0.0000 
     42 H          14.8960   10.4767   28.2944 H         1 03Q1        0.0000 
     43 H          16.7398    9.6583   29.8776 H         1 03Q1        0.0000 
     44 H          19.1943   10.0901   30.2000 H         1 03Q1        0.0000 
     45 H          20.9859   14.2323   28.1633 H         1 03Q1        0.0000 
     46 H          15.7139   13.6675   27.4176 H         1 03Q1        0.0000 
     47 H          15.1972   16.2287   27.6085 H         1 03Q1        0.0000 
     48 H          18.6100   18.8377   26.0331 H         1 03Q1        0.0000 
     49 H          20.0618   20.7097   26.4808 H         1 03Q1        0.0000 
     50 H          19.6900   22.8280   25.3649 H         1 03Q1        0.0000 
     51 H          16.4249   21.1706   23.3329 H         1 03Q1        0.0000 
     52 H          18.1598   14.6629   25.1113 H         1 03Q1        0.0000 
     53 H          12.4964   16.2677   27.3367 H         1 03Q1        0.0000 
@<TRIPOS>BOND
     1    2    1 1    
     2   53    1 1    
     3    3    2 1    
     4   35    2 1    
     5   36    2 1    
     6    4    3 1    
     7   37    3 1    
     8   38    3 1    
     9    5    4 1    
    10    6    5 1    
    11   39    5 1    
    12   40    5 1    
    13    7    6 1    
    14   41    6 1    
    15   42    6 1    
    16    8    7 1    
    17   34    7 1    
    18    9    8 2    
    19   43    8 1    
    20   10    9 1    
    21   44    9 1    
    22   11   10 ar   
    23   34   10 ar   
    24   12   11 ar   
    25   13   12 ar   
    26   45   12 1    
    27   14   13 ar   
    28   15   14 1    
    29   34   14 ar   
    30   16   15 1    
    31   46   15 1    
    32   17   16 ar   
    33   33   16 ar   
    34   18   17 ar   
    35   47   17 1    
    36   19   18 ar   
    37   20   19 1    
    38   31   19 ar   
    39   21   20 1    
    40   22   21 ar   
    41   26   21 ar   
    42   23   22 ar   
    43   48   22 1    
    44   24   23 ar   
    45   49   23 1    
    46   25   24 ar   
    47   50   24 1    
    48   26   25 ar   
    49   27   25 1    
    50   51   26 1    
    51   28   27 1    
    52   29   27 1    
    53   30   27 1    
    54   32   31 1    
    55   33   31 ar   
    56   52   33 1    
@<TRIPOS>SUBSTRUCTURE
     1 03Q1        1 GROUP   
@<TRIPOS>SET

