#    Name: 1qip_GNB_3_INTS_M
#    Modification time : Mon Mar 24 23:32:39 2014

@<TRIPOS>MOLECULE
1qip_GNB_3_INTS_M
   74     0    12     0     0
SMALL
NO_CHARGES


@<TRIPOS>ATOM
      1 NZ         68.9700   37.0685   25.0620 N.4       3 LYC4        0.0000 
      2 NZ         68.9030   35.8370   24.4670 N.4      11 LYL4        0.0000 
      3 NZ         68.1430   39.2880   25.5930 N.4       7 LYP4        0.0000 
      4 NZ         69.8095   37.0015   23.4405 N.4       3 LYC4        0.0000 
      5 NZ         70.7160   38.1660   22.4140 N.4       7 LYP4        0.0000 
      6 N          68.9700   37.0685   25.0620 N.am      2 SEC2        0.0000 
      7 N          68.9030   35.8370   24.4670 N.am     10 SEL2        0.0000 
      8 N          69.0370   38.3000   25.6570 N.am      6 SEP2        0.0000 
      9 N          70.1980   35.2430   24.7075 N.am      2 SEC2        0.0000 
     10 N          71.4930   34.6490   24.9480 N.am      6 SEP2        0.0000 
     11 NZ         66.9380   37.7415   24.5290 N.4       3 LYC4        0.0000 
     12 NZ         66.7770   36.2730   24.2890 N.4      11 LYL4        0.0000 
     13 N          67.9070   37.2865   24.9730 N.am      2 SEC2        0.0000 
     14 N          66.7770   36.2730   24.2890 N.am     10 SEL2        0.0000 
     15 N          66.9380   37.7415   24.5290 N.am      2 SEC2        0.0000 
     16 N          67.0990   39.2100   24.7690 N.am      6 SEP2        0.0000 
     17 O          69.6585   33.1900   23.3520 O.2       1 ALC1        0.0000 
     18 O          68.5960   33.7000   22.5490 O.2       9 ALL1        0.0000 
     19 O          70.7210   32.6800   24.1550 O.2       5 ALP1        0.0000 
     20 CA         67.4660   31.2515   24.9615 C.3       4 GLC5        0.0000 
     21 CA         67.2340   32.9810   24.4630 C.3      12 GLL5        0.0000 
     22 CA         67.6980   29.5220   25.4600 C.3       8 GLP5        0.0000 
     23 CA         60.1025   34.4335   26.3100 C.3       4 GLC5        0.0000 
     24 CA         61.1880   32.8060   26.0170 C.3      12 GLL5        0.0000 
     25 CA         59.0170   36.0610   26.6030 C.3       8 GLP5        0.0000 
     26 CA         63.2630   30.4040   26.0135 C.3       4 GLC5        0.0000 
     27 CA         61.6090   31.2340   26.7970 C.3      12 GLL5        0.0000 
     28 CA         64.9170   29.5740   25.2300 C.3       8 GLP5        0.0000 
     29 CA         60.9630   29.6675   25.4995 C.3       4 GLC5        0.0000 
     30 CA         60.3170   28.1010   24.2020 C.3       8 GLP5        0.0000 
     31 CA         65.7570   31.4700   25.9375 C.3       4 GLC5        0.0000 
     32 CA         66.0010   33.2090   25.4060 C.3      12 GLL5        0.0000 
     33 CA         65.5130   29.7310   26.4690 C.3       8 GLP5        0.0000 
     34 O          63.9745   33.6335   26.9380 O.2       1 ALC1        0.0000 
     35 O          63.5530   33.2110   25.5210 O.2       9 ALL1        0.0000 
     36 O          64.3960   34.0560   28.3550 O.2       5 ALP1        0.0000 
     37 CA         63.5570   31.3435   25.0630 C.3       4 GLC5        0.0000 
     38 CA         62.1970   33.1130   24.8960 C.3      12 GLL5        0.0000 
     39 CA         59.2340   35.6005   24.0965 C.3       4 GLC5        0.0000 
     40 CA         60.1990   35.5350   22.6810 C.3      12 GLL5        0.0000 
     41 CA         58.2690   35.6660   25.5120 C.3       8 GLP5        0.0000 
     42 CA         60.9035   37.4050   22.9500 C.3       4 GLC5        0.0000 
     43 CA         61.6080   39.2750   23.2190 C.3       8 GLP5        0.0000 
     44 CA         59.3980   29.5655   25.8995 C.3       4 GLC5        0.0000 
     45 CA         60.1140   30.3640   27.2820 C.3      12 GLL5        0.0000 
     46 CA         58.6820   28.7670   24.5170 C.3       8 GLP5        0.0000 
     47 CA         58.2820   31.2860   26.8555 C.3       4 GLC5        0.0000 
     48 CA         56.4500   32.2080   26.4290 C.3       8 GLP5        0.0000 
     49 CA         61.6915   29.1100   30.4500 C.3       4 GLC5        0.0000 
     50 CA         59.8690   28.3860   30.7590 C.3      12 GLL5        0.0000 
     51 CA         63.5140   29.8340   30.1410 C.3       8 GLP5        0.0000 
     52 CA         58.1055   28.8165   31.4720 C.3       4 GLC5        0.0000 
     53 CA         59.9430   27.8140   32.0280 C.3      12 GLL5        0.0000 
     54 CA         56.2680   29.8190   30.9160 C.3       8 GLP5        0.0000 
     55 CA         56.4610   26.5365   31.9120 C.3       4 GLC5        0.0000 
     56 CA         58.3890   26.1050   31.3440 C.3      12 GLL5        0.0000 
     57 CA         54.5330   26.9680   32.4800 C.3       8 GLP5        0.0000 
     58 CA         60.8400   27.4670   28.1925 C.3       4 GLC5        0.0000 
     59 CA         59.0110   28.5050   28.4070 C.3      12 GLL5        0.0000 
     60 CA         62.6690   26.4290   27.9780 C.3       8 GLP5        0.0000 
     61 CA         58.8465   28.6360   26.4620 C.3       4 GLC5        0.0000 
     62 CA         57.6395   29.1620   29.6615 C.3       4 GLC5        0.0000 
     63 CA         67.6333   33.3250   26.4473 C.3       4 GLC5        0.0000 
     64 CA         68.6490   33.5550   27.9600 C.3       8 GLP5        0.0000 
     65 CA         62.1878   30.3165   28.5903 C.3       4 GLC5        0.0000 
     66 CA         61.2200   26.8060   32.1492 C.3       4 GLC5        0.0000 
     67 CA         62.5340   25.5120   32.9050 C.3       8 GLP5        0.0000 
     68 CA         57.5778   28.6039   30.5448 C.3       4 GLC5        0.0000 
     69 CA         60.6675   25.9477   32.3727 C.3       4 GLC5        0.0000 
     70 CA         59.2130   26.6620   32.3370 C.3      12 GLL5        0.0000 
     71 CA         57.7180   25.5428   33.4442 C.3       4 GLC5        0.0000 
     72 CA         56.6350   24.7020   35.0480 C.3       8 GLP5        0.0000 
     73 CA         57.9898   27.7103   33.0556 C.3       4 GLC5        0.0000 
     74 CA         56.9960   28.7490   34.3480 C.3       8 GLP5        0.0000 
@<TRIPOS>BOND
@<TRIPOS>SUBSTRUCTURE
     1 ALC1       17 GROUP        1 X    ALC  0     ROOT ALC X 1
     2 SEC2        6 GROUP        1 X    SEC  0     **** SEC X 2
     3 LYC4        1 GROUP        1 X    LYC  0     **** LYC X 4
     4 GLC5       20 GROUP        1 X    GLC  0     **** GLC X 6
     5 ALP1       19 GROUP        1 Y    ALP  0     ROOT ALP Y 8
     6 SEP2        8 GROUP        1 Y    SEP  0     **** SEP Y 9
     7 LYP4        3 GROUP        1 Y    LYP  0     **** LYP Y 11
     8 GLP5       22 GROUP        1 Y    GLP  0     **** GLP Y 13
     9 ALL1       18 GROUP        1 Z    ALL  0     ROOT ALL Z 15
    10 SEL2        7 GROUP        1 Z    SEL  0     **** SEL Z 16
    11 LYL4        2 GROUP        1 Z    LYL  0     **** LYL Z 18
    12 GLL5       21 GROUP        1 Z    GLL  0     **** GLL Z 20
@<TRIPOS>SET

