#    Name: 1qip_GNB_3_ligand
#    Modification time : Mon Mar 24 23:32:39 2014

@<TRIPOS>MOLECULE
1qip_GNB_3_ligand
   56    56     1     0     0
SMALL
NO_CHARGES


@<TRIPOS>ATOM
      1 C          67.7490   35.5020   24.1120 C.2       1 GNB1004     0.0000 
      2 OT1        68.9030   35.8370   24.4670 O.co2     1 GNB1004     0.0000 
      3 OT2        66.7770   36.2730   24.2890 O.co2     1 GNB1004     0.0000 
      4 N          68.5960   33.7000   22.5490 N.4       1 GNB1004     0.0000 
      5 CA         67.4890   34.1280   23.4390 C.3       1 GNB1004     0.0000 
      6 CB         67.2340   32.9810   24.4630 C.3       1 GNB1004     0.0000 
      7 CB2        61.1880   32.8060   26.0170 C.3       1 GNB1004     0.0000 
      8 SG2        61.6090   31.2340   26.7970 S.3       1 GNB1004     0.0000 
      9 CG         66.0010   33.2090   25.4060 C.3       1 GNB1004     0.0000 
     10 CD         64.6210   33.0900   24.7300 C.2       1 GNB1004     0.0000 
     11 OE         64.5470   32.8920   23.5150 O.2       1 GNB1004     0.0000 
     12 N2         63.5530   33.2110   25.5210 N.am      1 GNB1004     0.0000 
     13 CA2        62.1970   33.1130   24.8960 C.3       1 GNB1004     0.0000 
     14 C2         61.8340   34.3830   24.0560 C.2       1 GNB1004     0.0000 
     15 O2         62.3290   35.4720   24.3760 O.2       1 GNB1004     0.0000 
     16 N3         60.7880   34.2770   23.2080 N.am      1 GNB1004     0.0000 
     17 CA3        60.1990   35.5350   22.6810 C.3       1 GNB1004     0.0000 
     18 C3         60.5400   35.8830   21.2390 C.2       1 GNB1004     0.0000 
     19 O31        61.7220   36.0470   20.8710 O.co2     1 GNB1004     0.0000 
     20 O32        59.5900   36.0160   20.4340 O.co2     1 GNB1004     0.0000 
     21 CD2        60.1140   30.3640   27.2820 C.3       1 GNB1004     0.0000 
     22 OZ1        59.0380   30.7980   26.8860 O.3       1 GNB1004     0.0000 
     23 CG2        59.0550   27.8210   29.7790 C.ar      1 GNB1004     0.0000 
     24 CL1        59.8690   28.3860   30.7590 C.ar      1 GNB1004     0.0000 
     25 CL2        58.3130   26.6740   30.0780 C.ar      1 GNB1004     0.0000 
     26 CM1        59.9430   27.8140   32.0280 C.ar      1 GNB1004     0.0000 
     27 CM2        58.3890   26.1050   31.3440 C.ar      1 GNB1004     0.0000 
     28 CZ         59.2130   26.6620   32.3370 C.ar      1 GNB1004     0.0000 
     29 OH1        60.2150   29.2380   28.0730 O.3       1 GNB1004     0.0000 
     30 CH         59.0110   28.5050   28.4070 C.3       1 GNB1004     0.0000 
     31 N7         59.3010   26.0160   33.6470 N.pl3     1 GNB1004     0.0000 
     32 O8         59.5620   24.7430   33.7900 O.2       1 GNB1004     0.0000 
     33 O9         59.1280   26.6070   34.7940 O.2       1 GNB1004     0.0000 
     34 H          66.5722   34.2142   22.8371 H         1 GNB1004     0.0000 
     35 H          68.1288   32.8583   25.0866 H         1 GNB1004     0.0000 
     36 H          67.0806   32.0436   23.9130 H         1 GNB1004     0.0000 
     37 H          61.2367   33.4894   26.8237 H         1 GNB1004     0.0000 
     38 H          60.2055   32.6368   25.6619 H         1 GNB1004     0.0000 
     39 H          66.0969   34.2111   25.8567 H         1 GNB1004     0.0000 
     40 H          66.0629   32.4794   26.2309 H         1 GNB1004     0.0000 
     41 H          63.5798   33.3651   26.5183 H         1 GNB1004     0.0000 
     42 H          62.1968   32.2519   24.2151 H         1 GNB1004     0.0000 
     43 H          60.3782   33.4115   22.9068 H         1 GNB1004     0.0000 
     44 H          60.5098   36.3919   23.3274 H         1 GNB1004     0.0000 
     45 H          59.0862   35.4936   22.7739 H         1 GNB1004     0.0000 
     46 H          60.1190   31.2268   28.4456 H         1 GNB1004     0.0000 
     47 H          60.4183   29.2299   30.5448 H         1 GNB1004     0.0000 
     48 H          57.7117   26.2539   29.3581 H         1 GNB1004     0.0000 
     49 H          60.5428   28.2441   32.7490 H         1 GNB1004     0.0000 
     50 H          57.8355   25.2621   31.5644 H         1 GNB1004     0.0000 
     51 H          58.1244   29.1752   28.3965 H         1 GNB1004     0.0000 
     52 H          58.8035   27.7192   27.6489 H         1 GNB1004     0.0000 
     53 H          69.0671   34.4815   22.1400 H         1 GNB1004     0.0000 
     54 H          69.2844   33.1680   23.0421 H         1 GNB1004     0.0000 
     55 H          68.2680   33.1290   21.7965 H         1 GNB1004     0.0000 
     56 H          58.7839   30.2030   26.1235 H         1 GNB1004     0.0000 
@<TRIPOS>BOND
     1    2    1 ar   
     2    3    1 ar   
     3    5    1 1    
     4    5    4 1    
     5   53    4 1    
     6   54    4 1    
     7   55    4 1    
     8    6    5 1    
     9   34    5 1    
    10    9    6 1    
    11   35    6 1    
    12   36    6 1    
    13    8    7 1    
    14   13    7 1    
    15   37    7 1    
    16   38    7 1    
    17   21    8 1    
    18   10    9 1    
    19   39    9 1    
    20   40    9 1    
    21   11   10 2    
    22   12   10 am   
    23   13   12 1    
    24   41   12 1    
    25   14   13 1    
    26   42   13 1    
    27   15   14 2    
    28   16   14 am   
    29   17   16 1    
    30   43   16 1    
    31   18   17 1    
    32   44   17 1    
    33   45   17 1    
    34   19   18 ar   
    35   20   18 ar   
    36   22   21 1    
    37   29   21 1    
    38   46   21 1    
    39   56   22 1    
    40   24   23 ar   
    41   25   23 ar   
    42   30   23 1    
    43   26   24 ar   
    44   47   24 1    
    45   27   25 ar   
    46   48   25 1    
    47   28   26 ar   
    48   49   26 1    
    49   28   27 ar   
    50   50   27 1    
    51   31   28 1    
    52   30   29 1    
    53   51   30 1    
    54   52   30 1    
    55   32   31 2    
    56   33   31 2    
@<TRIPOS>SUBSTRUCTURE
     1 GNB1004     1 GROUP   
@<TRIPOS>SET

