#    Name: 2yek_EAM_3_INTS_M
#    Modification time : Tue Mar 25 08:45:43 2014

@<TRIPOS>MOLECULE
2yek_EAM_3_INTS_M
   79     0     6     0     0
SMALL
NO_CHARGES


@<TRIPOS>ATOM
      1 CA          9.2320    5.1935   20.8210 C.3       2 GLC5        0.0000 
      2 CA          8.6170    6.9760   20.9700 C.3       6 GLL5        0.0000 
      3 CA          9.8470    3.4110   20.6720 C.3       4 GLP5        0.0000 
      4 CA         10.4225    6.9995   20.5870 C.3       2 GLC5        0.0000 
      5 CA         12.2280    7.0230   20.2040 C.3       4 GLP5        0.0000 
      6 CA          8.4105    8.3290   19.4870 C.3       2 GLC5        0.0000 
      7 CA          8.2040    9.6820   18.0040 C.3       4 GLP5        0.0000 
      8 CA          8.3085    8.9230   21.7885 C.3       2 GLC5        0.0000 
      9 CA          8.0000   10.8700   22.6070 C.3       4 GLP5        0.0000 
     10 CA          5.2645    8.3490   22.4540 C.3       2 GLC5        0.0000 
     11 CA          6.1880    8.0860   20.6270 C.3       6 GLL5        0.0000 
     12 CA          4.3410    8.6120   24.2810 C.3       4 GLP5        0.0000 
     13 CA          7.0940    9.4780   21.6170 C.3       2 GLC5        0.0000 
     14 CA          8.0505    4.5495   20.7125 C.3       2 GLC5        0.0000 
     15 CA          6.2540    5.6880   20.7530 C.3       6 GLL5        0.0000 
     16 CA          6.1685    3.5740   20.8620 C.3       2 GLC5        0.0000 
     17 CA          6.0830    1.4600   20.9710 C.3       4 GLP5        0.0000 
     18 CA          4.9860    3.8725   19.6720 C.3       2 GLC5        0.0000 
     19 CA          4.8850    5.6480   20.5940 C.3       6 GLL5        0.0000 
     20 CA          5.0870    2.0970   18.7500 C.3       4 GLP5        0.0000 
     21 CA         -1.5705    9.4390   18.9620 C.3       2 GLC5        0.0000 
     22 CA          0.3940    9.1450   18.4510 C.3       6 GLL5        0.0000 
     23 CA         -3.5350    9.7330   19.4730 C.3       4 GLP5        0.0000 
     24 N           3.2870    7.2575   15.3695 N.am      1 SEC2        0.0000 
     25 N           2.9060    8.6430   15.8490 N.am      5 SEL2        0.0000 
     26 N           3.6680    5.8720   14.8900 N.am      3 SEP2        0.0000 
     27 CA          3.8055    8.8945   13.7140 C.3       2 GLC5        0.0000 
     28 CA          2.4000    9.4710   14.8080 C.3       6 GLL5        0.0000 
     29 CA          5.2110    8.3180   12.6200 C.3       4 GLP5        0.0000 
     30 CA          4.3135   10.0735   15.5205 C.3       2 GLC5        0.0000 
     31 CA          6.2270   10.6760   16.2330 C.3       4 GLP5        0.0000 
     32 CA          2.7680   10.8300   16.5205 C.3       2 GLC5        0.0000 
     33 CA          3.1360   12.1890   18.2330 C.3       4 GLP5        0.0000 
     34 CA          4.2775    6.6580   16.9915 C.3       2 GLC5        0.0000 
     35 CA          2.7310    7.7560   18.0210 C.3       6 GLL5        0.0000 
     36 CA          5.8240    5.5600   15.9620 C.3       4 GLP5        0.0000 
     37 CA          3.1180    9.6090   18.7775 C.3       2 GLC5        0.0000 
     38 CA          3.5050   11.4620   19.5340 C.3       4 GLP5        0.0000 
     39 N          -0.4455    7.2560   24.0620 N.am      1 SEC2        0.0000 
     40 N          -0.6750    7.3480   22.5030 N.am      5 SEL2        0.0000 
     41 N          -0.2160    7.1640   25.6210 N.am      3 SEP2        0.0000 
     42 CA          1.5025   11.0575   20.3140 C.3       2 GLC5        0.0000 
     43 CA         -0.5000   10.6530   21.0940 C.3       6 GLL5        0.0000 
     44 CA          0.3560   12.1135   22.1315 C.3       2 GLC5        0.0000 
     45 CA          1.2120   13.5740   23.1690 C.3       4 GLP5        0.0000 
     46 CA         -2.0175   10.1930   20.2835 C.3       2 GLC5        0.0000 
     47 CA          1.0110   10.0440   21.9090 C.3       2 GLC5        0.0000 
     48 CA          2.5220    9.4350   22.7240 C.3       4 GLP5        0.0000 
     49 CA         -0.4000    5.9765   18.9160 C.3       2 GLC5        0.0000 
     50 CA          0.6100    5.7860   20.9080 C.3       6 GLL5        0.0000 
     51 CA         -1.4100    6.1670   16.9240 C.3       4 GLP5        0.0000 
     52 CA         -1.4140    3.9650   22.8740 C.3       2 GLC5        0.0000 
     53 CA          0.1930    4.6360   21.8370 C.3       6 GLL5        0.0000 
     54 CA         -3.0210    3.2940   23.9110 C.3       4 GLP5        0.0000 
     55 CA          2.9685    0.4390   20.7850 C.3       2 GLC5        0.0000 
     56 CA          1.3730    1.0540   21.8240 C.3       6 GLL5        0.0000 
     57 CA          4.5640   -0.1760   19.7460 C.3       4 GLP5        0.0000 
     58 CA          8.4462    6.8403   22.7358 C.3       2 GLC5        0.0000 
     59 CA          6.8900    6.9090   20.7630 C.3       6 GLL5        0.0000 
     60 CA          9.1390    6.7380   24.6050 C.3       4 GLP5        0.0000 
     61 CA          5.2313    9.8610   20.1220 C.3       2 GLC5        0.0000 
     62 CA          4.9560   11.6650   19.6930 C.3       4 GLP5        0.0000 
     63 CA          3.5088    8.4292   21.5955 C.3       2 GLC5        0.0000 
     64 CA          4.8250    8.0280   20.4750 C.3       6 GLL5        0.0000 
     65 CA          0.0408    7.0787   18.1370 C.3       2 GLC5        0.0000 
     66 CA          0.9040    8.3460   19.4570 C.3       6 GLL5        0.0000 
     67 CA          2.0067    8.7127   21.0370 C.3       2 GLC5        0.0000 
     68 CA          2.2239   10.0149   19.2172 C.3       2 GLC5        0.0000 
     69 CA          2.0790    7.6350   19.2430 C.3       6 GLL5        0.0000 
     70 CA         -0.3495    7.6900   17.3828 C.3       2 GLC5        0.0000 
     71 CA          2.3755   10.5580   17.6852 C.3       2 GLC5        0.0000 
     72 CA          1.0280    9.2810   17.2320 C.3       6 GLL5        0.0000 
     73 CA          1.5192    6.5478   16.7820 C.3       2 GLC5        0.0000 
     74 CA          2.2020    8.5730   17.0430 C.3       6 GLL5        0.0000 
     75 CA          0.5720    4.9310   16.0320 C.3       4 GLP5        0.0000 
     76 CA         -1.2803    4.5430   20.4892 C.3       2 GLC5        0.0000 
     77 CA         -2.9620    3.8750   19.6060 C.3       4 GLP5        0.0000 
     78 CA         -0.4955    1.0232   21.2455 C.3       2 GLC5        0.0000 
     79 CA         -2.1180    1.5320   20.2000 C.3       4 GLP5        0.0000 
@<TRIPOS>BOND
@<TRIPOS>SUBSTRUCTURE
     1 SEC2       24 GROUP        1 X    SEC  0     ROOT SEC X 2
     2 GLC5        1 GROUP        1 X    GLC  0     **** GLC X 6
     3 SEP2       26 GROUP        1 Y    SEP  0     ROOT SEP Y 9
     4 GLP5        3 GROUP        1 Y    GLP  0     **** GLP Y 13
     5 SEL2       25 GROUP        1 Z    SEL  0     ROOT SEL Z 16
     6 GLL5        2 GROUP        1 Z    GLL  0     **** GLL Z 20
@<TRIPOS>SET

