#    Name: 2yek_EAM_3_ligand
#    Modification time : Tue Mar 25 08:45:43 2014

@<TRIPOS>MOLECULE
2yek_EAM_3_ligand
   52    55     1     0     0
SMALL
NO_CHARGES


@<TRIPOS>ATOM
      1 CL          8.6170    6.9760   20.9700 Cl        1 EAM1183     0.0000 
      2 C10         6.8900    6.9090   20.7630 C.ar      1 EAM1183     0.0000 
      3 C9          6.1880    8.0860   20.6270 C.ar      1 EAM1183     0.0000 
      4 C8          4.8250    8.0280   20.4750 C.ar      1 EAM1183     0.0000 
      5 C11         6.2540    5.6880   20.7530 C.ar      1 EAM1183     0.0000 
      6 C12         4.8850    5.6480   20.5940 C.ar      1 EAM1183     0.0000 
      7 C7          4.1660    6.8190   20.4590 C.ar      1 EAM1183     0.0000 
      8 C6          2.6870    6.7570   20.2880 C.2       1 EAM1183     0.0000 
      9 N2          2.0650    5.9200   21.0410 N.2       1 EAM1183     0.0000 
     10 C13         2.0790    7.6350   19.2430 C.ar      1 EAM1183     0.0000 
     11 C19         0.9040    8.3460   19.4570 C.ar      1 EAM1183     0.0000 
     12 C18         0.3940    9.1450   18.4510 C.ar      1 EAM1183     0.0000 
     13 C17         1.0280    9.2810   17.2320 C.ar      1 EAM1183     0.0000 
     14 C15         2.2020    8.5730   17.0430 C.ar      1 EAM1183     0.0000 
     15 O2          2.9060    8.6430   15.8490 O.3       1 EAM1183     0.0000 
     16 C16         2.4000    9.4710   14.8080 C.3       1 EAM1183     0.0000 
     17 C14         2.7310    7.7560   18.0210 C.ar      1 EAM1183     0.0000 
     18 N3          0.2100    8.2640   20.7170 N.pl3     1 EAM1183     0.0000 
     19 C22         0.0210    7.0930   21.4180 C.2       1 EAM1183     0.0000 
     20 N5         -0.6750    7.3480   22.5030 N.2       1 EAM1183     0.0000 
     21 N4         -0.9620    8.6890   22.5290 N.2       1 EAM1183     0.0000 
     22 C20        -0.4240    9.2290   21.4580 C.2       1 EAM1183     0.0000 
     23 C21        -0.5000   10.6530   21.0940 C.3       1 EAM1183     0.0000 
     24 C5          0.6100    5.7860   20.9080 C.3       1 EAM1183     0.0000 
     25 C4          0.1930    4.6360   21.8370 C.3       1 EAM1183     0.0000 
     26 C3          0.7080    3.3440   21.2870 C.2       1 EAM1183     0.0000 
     27 O1          1.0180    3.2240   20.1110 O.2       1 EAM1183     0.0000 
     28 N1          0.8030    2.3440   22.1570 N.am      1 EAM1183     0.0000 
     29 C2          1.3730    1.0540   21.8240 C.3       1 EAM1183     0.0000 
     30 C1          0.8810   -0.0250   22.7580 C.3       1 EAM1183     0.0000 
     31 H           6.6759    8.9872   20.6393 H         1 EAM1183     0.0000 
     32 H           4.2810    8.9079   20.3704 H         1 EAM1183     0.0000 
     33 H           6.7900    4.8202   20.8622 H         1 EAM1183     0.0000 
     34 H           4.3943    4.7385   20.5757 H         1 EAM1183     0.0000 
     35 H          -0.4990    9.6618   18.6188 H         1 EAM1183     0.0000 
     36 H           0.6501    9.8750   16.5039 H         1 EAM1183     0.0000 
     37 H           3.6021    7.2377   17.8517 H         1 EAM1183     0.0000 
     38 H           0.3215    5.5983   19.9359 H         1 EAM1183     0.0000 
     39 H          -0.8902    4.6141   21.8988 H         1 EAM1183     0.0000 
     40 H           0.6078    4.8177   22.8232 H         1 EAM1183     0.0000 
     41 H           0.4620    2.4442   23.1479 H         1 EAM1183     0.0000 
     42 H           2.4736    1.0865   21.8802 H         1 EAM1183     0.0000 
     43 H           1.1121    0.7657   20.7924 H         1 EAM1183     0.0000 
     44 H           2.3373   10.4278   15.0918 H         1 EAM1183     0.0000 
     45 H           2.9824    9.4438   13.9956 H         1 EAM1183     0.0000 
     46 H           1.4841    9.1896   14.5216 H         1 EAM1183     0.0000 
     47 H           0.4076   11.0659   21.0180 H         1 EAM1183     0.0000 
     48 H          -0.9579   10.7878   20.2152 H         1 EAM1183     0.0000 
     49 H          -1.0073   11.1834   21.7732 H         1 EAM1183     0.0000 
     50 H           1.2700   -0.9180   22.5315 H         1 EAM1183     0.0000 
     51 H           1.1236    0.1678   23.7088 H         1 EAM1183     0.0000 
     52 H          -0.1137   -0.1212   22.7231 H         1 EAM1183     0.0000 
@<TRIPOS>BOND
     1    2    1 1    
     2    3    2 ar   
     3    5    2 ar   
     4    4    3 ar   
     5   31    3 1    
     6    7    4 ar   
     7   32    4 1    
     8    6    5 ar   
     9   33    5 1    
    10    7    6 ar   
    11   34    6 1    
    12    8    7 1    
    13    9    8 2    
    14   10    8 1    
    15   24    9 1    
    16   11   10 ar   
    17   17   10 ar   
    18   12   11 ar   
    19   18   11 1    
    20   13   12 ar   
    21   35   12 1    
    22   14   13 ar   
    23   36   13 1    
    24   15   14 1    
    25   17   14 ar   
    26   16   15 1    
    27   44   16 1    
    28   45   16 1    
    29   46   16 1    
    30   37   17 1    
    31   19   18 1    
    32   22   18 1    
    33   20   19 2    
    34   24   19 1    
    35   21   20 1    
    36   22   21 2    
    37   23   22 1    
    38   47   23 1    
    39   48   23 1    
    40   49   23 1    
    41   25   24 1    
    42   38   24 1    
    43   26   25 1    
    44   39   25 1    
    45   40   25 1    
    46   27   26 2    
    47   28   26 am   
    48   29   28 1    
    49   41   28 1    
    50   30   29 1    
    51   42   29 1    
    52   43   29 1    
    53   50   30 1    
    54   51   30 1    
    55   52   30 1    
@<TRIPOS>SUBSTRUCTURE
     1 EAM1183     1 GROUP   
@<TRIPOS>SET

