#    Name: 3pj8_404_1_INTS_M
#    Modification time : Tue Mar 25 06:40:12 2014

@<TRIPOS>MOLECULE
3pj8_404_1_INTS_M
   63     0     9     0     0
SMALL
NO_CHARGES


@<TRIPOS>ATOM
      1 CA         11.9575   11.1240  -10.0155 C.3       3 GLC5        0.0000 
      2 CA         11.1770   10.3100  -11.5830 C.3       9 GLL5        0.0000 
      3 CA         12.7380   11.9380   -8.4480 C.3       6 GLP5        0.0000 
      4 CA         12.6860   12.2360  -11.6510 C.3       3 GLC5        0.0000 
      5 CA         12.0910   10.3960  -12.7450 C.3       9 GLL5        0.0000 
      6 CA         13.2810   14.0760  -10.5570 C.3       6 GLP5        0.0000 
      7 CA         12.7180   10.3480   -9.5125 C.3       3 GLC5        0.0000 
      8 CA         12.6980    8.7580  -10.5770 C.3       9 GLL5        0.0000 
      9 CA         11.2165    7.8345  -11.5335 C.3       3 GLC5        0.0000 
     10 CA          9.7350    6.9110  -12.4900 C.3       6 GLP5        0.0000 
     11 CA         16.2095   10.0285  -15.6850 C.3       3 GLC5        0.0000 
     12 CA         15.3130    9.2500  -14.3210 C.3       9 GLL5        0.0000 
     13 CA         17.1060   10.8070  -17.0490 C.3       6 GLP5        0.0000 
     14 CA         16.6245    8.7045  -15.7215 C.3       3 GLC5        0.0000 
     15 CA         15.1580    7.7330  -14.4780 C.3       9 GLL5        0.0000 
     16 CA         18.0910    9.6760  -16.9650 C.3       6 GLP5        0.0000 
     17 CA         14.4790    6.2335  -14.5505 C.3       3 GLC5        0.0000 
     18 CA         13.8000    4.7340  -14.6230 C.3       6 GLP5        0.0000 
     19 CA         16.5260   10.7660  -11.8505 C.3       3 GLC5        0.0000 
     20 CA         16.3970    9.5970  -13.2980 C.3       9 GLL5        0.0000 
     21 CA         16.6550   11.9350  -10.4030 C.3       6 GLP5        0.0000 
     22 CA         17.7100    9.6120  -14.6220 C.3       3 GLC5        0.0000 
     23 CA         19.0230    9.6270  -15.9460 C.3       6 GLP5        0.0000 
     24 O           9.2710   11.7260  -12.4960 O.2       1 ALC1        0.0000 
     25 O          10.0270   11.0220  -11.5370 O.2       7 ALL1        0.0000 
     26 O           8.5150   12.4300  -13.4550 O.2       4 ALP1        0.0000 
     27 CA          7.1650   10.4155  -10.8115 C.3       3 GLC5        0.0000 
     28 CA          9.0420   10.7800  -10.4920 C.3       9 GLL5        0.0000 
     29 CA          5.2880   10.0510  -11.1310 C.3       6 GLP5        0.0000 
     30 CA          9.3885    8.8455  -11.4910 C.3       3 GLC5        0.0000 
     31 CA          7.3325   13.2055  -11.5140 C.3       3 GLC5        0.0000 
     32 CA          8.7570   13.2100   -9.8780 C.3       9 GLL5        0.0000 
     33 CA          5.9080   13.2010  -13.1500 C.3       6 GLP5        0.0000 
     34 CA         13.8770   10.0505   -8.1070 C.3       3 GLC5        0.0000 
     35 CA         15.0160    8.1630   -7.7660 C.3       9 GLL5        0.0000 
     36 CA         14.8980    9.5335   -6.1755 C.3       3 GLC5        0.0000 
     37 CA         14.7800   10.9040   -4.5850 C.3       6 GLP5        0.0000 
     38 CA         12.8020    4.4080  -10.9465 C.3       3 GLC5        0.0000 
     39 CA         13.8180    6.0990  -10.7430 C.3       9 GLL5        0.0000 
     40 CA         11.7860    2.7170  -11.1500 C.3       6 GLP5        0.0000 
     41 CA         13.8090    5.4165  -12.6830 C.3       3 GLC5        0.0000 
     42 N          16.3800    6.4955  -11.3355 N.am      2 SEC2        0.0000 
     43 N          15.0520    6.4970  -11.3520 N.am      8 SEL2        0.0000 
     44 N          17.7080    6.4940  -11.3190 N.am      5 SEP2        0.0000 
     45 CA         13.9670   11.5840  -13.3885 C.3       3 GLC5        0.0000 
     46 CA         15.2290   13.1740  -14.0600 C.3       6 GLP5        0.0000 
     47 CA         11.8038    8.8678  -13.4102 C.3       3 GLC5        0.0000 
     48 CA         13.3190    9.5920  -12.6890 C.3       9 GLL5        0.0000 
     49 CA         11.1310    7.7630  -14.3940 C.3       6 GLP5        0.0000 
     50 CA         15.5420   11.2988  -13.9348 C.3       3 GLC5        0.0000 
     51 CA         14.5578    8.3957  -16.3468 C.3       3 GLC5        0.0000 
     52 CA         13.8800    8.3000  -18.2940 C.3       6 GLP5        0.0000 
     53 CA         13.1833    8.1273  -14.3968 C.3       3 GLC5        0.0000 
     54 CA         11.0580   12.0490   -8.0700 C.3       3 GLC5        0.0000 
     55 CA          9.3700   11.6450   -8.1570 C.3       9 GLL5        0.0000 
     56 CA         10.9802   14.2265   -8.6895 C.3       3 GLC5        0.0000 
     57 CA          9.0850   13.9710   -7.6260 C.3       9 GLL5        0.0000 
     58 CA         13.0340   14.3470   -9.0910 C.3       6 GLP5        0.0000 
     59 CA         10.8201   12.1076   -9.1904 C.3       3 GLC5        0.0000 
     60 CA         16.7445    6.9705   -7.5735 C.3       3 GLC5        0.0000 
     61 CA         18.4290    6.2810   -6.8190 C.3       6 GLP5        0.0000 
     62 CA         16.5375    8.8540   -8.9045 C.3       3 GLC5        0.0000 
     63 CA         18.0150   10.0480   -9.4810 C.3       6 GLP5        0.0000 
@<TRIPOS>BOND
@<TRIPOS>SUBSTRUCTURE
     1 ALC1       24 GROUP        1 X    ALC  0     ROOT ALC X 1
     2 SEC2       42 GROUP        1 X    SEC  0     **** SEC X 2
     3 GLC5        1 GROUP        1 X    GLC  0     **** GLC X 6
     4 ALP1       26 GROUP        1 Y    ALP  0     ROOT ALP Y 8
     5 SEP2       44 GROUP        1 Y    SEP  0     **** SEP Y 9
     6 GLP5        3 GROUP        1 Y    GLP  0     **** GLP Y 13
     7 ALL1       25 GROUP        1 Z    ALL  0     ROOT ALL Z 15
     8 SEL2       43 GROUP        1 Z    SEL  0     **** SEL Z 16
     9 GLL5        2 GROUP        1 Z    GLL  0     **** GLL Z 20
@<TRIPOS>SET

