#    Name: 3pj8_404_1_ligand
#    Modification time : Tue Mar 25 06:40:12 2014

@<TRIPOS>MOLECULE
3pj8_404_1_ligand
   52    54     1     0     0
SMALL
NO_CHARGES


@<TRIPOS>ATOM
      1 C1         11.1770   10.3100  -11.5830 C.ar      1 404299      0.0000 
      2 C2         12.0910   10.3960  -12.7450 C.ar      1 404299      0.0000 
      3 C3         13.3190    9.5920  -12.6890 C.ar      1 404299      0.0000 
      4 N4         13.6010    8.7900  -11.6140 N.ar      1 404299      0.0000 
      5 C5         12.6980    8.7580  -10.5770 C.ar      1 404299      0.0000 
      6 N6         11.5490    9.5020  -10.5730 N.ar      1 404299      0.0000 
      7 N7         12.0930   11.0730  -13.9130 N.pl3     1 404299      0.0000 
      8 N8         13.2450   10.7550  -14.6600 N.2       1 404299      0.0000 
      9 C9         14.0070    9.8830  -13.9780 C.2       1 404299      0.0000 
     10 C10        15.3130    9.2500  -14.3210 C.3       1 404299      0.0000 
     11 C11        15.1580    7.7330  -14.4780 C.3       1 404299      0.0000 
     12 C12        16.3970    9.5970  -13.2980 C.3       1 404299      0.0000 
     13 N13        10.0270   11.0220  -11.5370 N.pl3     1 404299      0.0000 
     14 C14         9.0420   10.7800  -10.4920 C.3       1 404299      0.0000 
     15 C15         9.0530   11.9090   -9.4830 C.ar      1 404299      0.0000 
     16 C16         9.3700   11.6450   -8.1570 C.ar      1 404299      0.0000 
     17 C17         9.3860   12.6750   -7.2270 C.ar      1 404299      0.0000 
     18 C18         9.0850   13.9710   -7.6260 C.ar      1 404299      0.0000 
     19 C19         8.7680   14.2410   -8.9500 C.ar      1 404299      0.0000 
     20 C20         8.7570   13.2100   -9.8780 C.ar      1 404299      0.0000 
     21 N21        12.8930    8.0020   -9.4650 N.pl3     1 404299      0.0000 
     22 C22        13.7100    6.8020   -9.3950 C.3       1 404299      0.0000 
     23 C23        15.1040    7.1570   -8.8900 C.3       1 404299      0.0000 
     24 C24        15.0160    8.1630   -7.7660 C.3       1 404299      0.0000 
     25 C25        13.8180    6.0990  -10.7430 C.3       1 404299      0.0000 
     26 O26        15.0520    6.4970  -11.3520 O.3       1 404299      0.0000 
     27 H          11.4187   11.6926  -14.2221 H         1 404299      0.0000 
     28 H          15.6439    9.6433  -15.2967 H         1 404299      0.0000 
     29 H           9.8040   11.7528  -12.2278 H         1 404299      0.0000 
     30 H           9.2550    9.8415   -9.9657 H         1 404299      0.0000 
     31 H           8.0338   10.7037  -10.9172 H         1 404299      0.0000 
     32 H           9.5934   10.6836   -7.8638 H         1 404299      0.0000 
     33 H           9.6199   12.4799   -6.2453 H         1 404299      0.0000 
     34 H           9.0973   14.7361   -6.9346 H         1 404299      0.0000 
     35 H           8.5426   15.1999   -9.2410 H         1 404299      0.0000 
     36 H           8.5292   13.4062  -10.8634 H         1 404299      0.0000 
     37 H          12.4253    8.2804   -8.5522 H         1 404299      0.0000 
     38 H          13.2791    6.0957   -8.6829 H         1 404299      0.0000 
     39 H          15.6851    7.5747   -9.7109 H         1 404299      0.0000 
     40 H          15.5956    6.2526   -8.5345 H         1 404299      0.0000 
     41 H          12.9581    6.3884  -11.3450 H         1 404299      0.0000 
     42 H          13.7813    5.0250  -10.5680 H         1 404299      0.0000 
     43 H          16.0256    7.2930  -14.7097 H         1 404299      0.0000 
     44 H          14.8274    7.3045  -13.6371 H         1 404299      0.0000 
     45 H          14.5083    7.4989  -15.2013 H         1 404299      0.0000 
     46 H          17.2733    9.1732  -13.5272 H         1 404299      0.0000 
     47 H          16.5538   10.5831  -13.2431 H         1 404299      0.0000 
     48 H          16.1531    9.2874  -12.3790 H         1 404299      0.0000 
     49 H          15.9201    8.4112   -7.4181 H         1 404299      0.0000 
     50 H          14.5723    9.0098   -8.0594 H         1 404299      0.0000 
     51 H          14.4908    7.8099   -6.9918 H         1 404299      0.0000 
     52 H          14.8957    7.4339  -11.6648 H         1 404299      0.0000 
@<TRIPOS>BOND
     1    2    1 ar   
     2    6    1 ar   
     3   13    1 1    
     4    3    2 ar   
     5    7    2 1    
     6    4    3 ar   
     7    9    3 1    
     8    5    4 ar   
     9    6    5 ar   
    10   21    5 1    
    11    8    7 1    
    12   27    7 1    
    13    9    8 2    
    14   10    9 1    
    15   11   10 1    
    16   12   10 1    
    17   28   10 1    
    18   43   11 1    
    19   44   11 1    
    20   45   11 1    
    21   46   12 1    
    22   47   12 1    
    23   48   12 1    
    24   14   13 1    
    25   29   13 1    
    26   15   14 1    
    27   30   14 1    
    28   31   14 1    
    29   16   15 ar   
    30   20   15 ar   
    31   17   16 ar   
    32   32   16 1    
    33   18   17 ar   
    34   33   17 1    
    35   19   18 ar   
    36   34   18 1    
    37   20   19 ar   
    38   35   19 1    
    39   36   20 1    
    40   22   21 1    
    41   37   21 1    
    42   23   22 1    
    43   25   22 1    
    44   38   22 1    
    45   24   23 1    
    46   39   23 1    
    47   40   23 1    
    48   49   24 1    
    49   50   24 1    
    50   51   24 1    
    51   26   25 1    
    52   41   25 1    
    53   42   25 1    
    54   52   26 1    
@<TRIPOS>SUBSTRUCTURE
     1 404299      1 GROUP   
@<TRIPOS>SET

