#    Name: 1kif_FAD_1_INTS_M
#    Modification time : Tue Mar 25 10:05:44 2014

@<TRIPOS>MOLECULE
1kif_FAD_1_INTS_M
  133     0     9     0     0
SMALL
NO_CHARGES


@<TRIPOS>ATOM
      1 N          68.7405    4.8600   60.4120 N.am      2 SEC2        0.0000 
      2 N          68.0420    3.9540   61.4920 N.am      8 SEL2        0.0000 
      3 N          69.4390    5.7660   59.3320 N.am      5 SEP2        0.0000 
      4 N          67.4500    5.0300   61.0180 N.am      2 SEC2        0.0000 
      5 N          66.8580    6.1060   60.5440 N.am      5 SEP2        0.0000 
      6 N          70.3145    2.9880   60.4990 N.am      2 SEC2        0.0000 
      7 N          69.3900    1.8450   60.9600 N.am      8 SEL2        0.0000 
      8 N          71.2390    4.1310   60.0380 N.am      5 SEP2        0.0000 
      9 N          69.9595    1.7990   59.8295 N.am      2 SEC2        0.0000 
     10 N          70.5290    1.7530   58.6990 N.am      5 SEP2        0.0000 
     11 CA         67.3070   -0.9950   64.1705 C.3       3 GLC5        0.0000 
     12 CA         68.2880    0.8920   63.5830 C.3       9 GLL5        0.0000 
     13 CA         66.3260   -2.8820   64.7580 C.3       6 GLP5        0.0000 
     14 CA         69.7725   -0.0155   62.6160 C.3       3 GLC5        0.0000 
     15 CA         71.2570   -0.9230   61.6490 C.3       6 GLP5        0.0000 
     16 CA         70.5670    3.5850   64.6965 C.3       3 GLC5        0.0000 
     17 CA         70.0600    1.5800   65.2590 C.3       9 GLL5        0.0000 
     18 CA         71.0740    5.5900   64.1340 C.3       6 GLP5        0.0000 
     19 N          68.8075    2.7490   67.0970 N.am      2 SEC2        0.0000 
     20 N          70.0480    2.2970   66.4880 N.am      8 SEL2        0.0000 
     21 N          67.5670    3.2010   67.7060 N.am      5 SEP2        0.0000 
     22 O          71.1625    3.0110   66.8825 O.2       1 ALC1        0.0000 
     23 O          70.0480    2.2970   66.4880 O.2       7 ALL1        0.0000 
     24 O          72.2770    3.7250   67.2770 O.2       4 ALP1        0.0000 
     25 CA         72.6870    1.4495   65.7210 C.3       3 GLC5        0.0000 
     26 CA         70.8630    0.3340   65.5610 C.3       9 GLL5        0.0000 
     27 CA         74.5110    2.5650   65.8810 C.3       6 GLP5        0.0000 
     28 CA         71.0600   -0.2945   63.6050 C.3       3 GLC5        0.0000 
     29 O          72.1265    2.2305   66.8025 O.2       1 ALC1        0.0000 
     30 O          71.9760    0.7360   66.3280 O.2       7 ALL1        0.0000 
     31 CA         68.3040    0.2870   67.2505 C.3       3 GLC5        0.0000 
     32 CA         69.8320   -0.3620   66.4340 C.3       9 GLL5        0.0000 
     33 CA         66.7760    0.9360   68.0670 C.3       6 GLP5        0.0000 
     34 CA         70.1400    0.8615   68.2490 C.3       3 GLC5        0.0000 
     35 CA         70.4480    2.0850   70.0640 C.3       6 GLP5        0.0000 
     36 O          71.2090   -6.9595   69.4960 O.2       1 ALC1        0.0000 
     37 O          71.0020   -5.9420   68.2740 O.2       7 ALL1        0.0000 
     38 O          71.4160   -7.9770   70.7180 O.2       4 ALP1        0.0000 
     39 N          71.5135   -4.8490   70.8840 N.am      2 SEC2        0.0000 
     40 N          71.0400   -4.1260   69.7110 N.am      8 SEL2        0.0000 
     41 N          71.9870   -5.5720   72.0570 N.am      5 SEP2        0.0000 
     42 CA         68.9885   -3.0495   70.0510 C.3       3 GLC5        0.0000 
     43 CA         70.8900   -2.8130   69.8920 C.3       9 GLL5        0.0000 
     44 CA         67.0870   -3.2860   70.2100 C.3       6 GLP5        0.0000 
     45 CA         70.8835   -1.0085   70.3005 C.3       3 GLC5        0.0000 
     46 CA         70.8770    0.7960   70.7090 C.3       6 GLP5        0.0000 
     47 CA         72.8350   -2.1795   69.5155 C.3       3 GLC5        0.0000 
     48 CA         74.7800   -1.5460   69.1390 C.3       6 GLP5        0.0000 
     49 CA         72.4935   -3.5890   70.8320 C.3       3 GLC5        0.0000 
     50 CA         74.0970   -4.3650   71.7720 C.3       6 GLP5        0.0000 
     51 N          71.7460   -0.9465   69.3625 N.am      2 SEC2        0.0000 
     52 N          70.5780   -1.8820   68.9990 N.am      8 SEL2        0.0000 
     53 N          72.9140   -0.0110   69.7260 N.am      5 SEP2        0.0000 
     54 CA         70.6395   -0.8115   69.2470 C.3       3 GLC5        0.0000 
     55 CA         70.4020   -2.4190   67.7850 C.3       9 GLL5        0.0000 
     56 N          60.7890    8.1585   54.2260 N.am      2 SEC2        0.0000 
     57 N          61.8460    7.8760   53.3570 N.am      8 SEL2        0.0000 
     58 N          59.7320    8.4410   55.0950 N.am      5 SEP2        0.0000 
     59 N          60.6515    8.3230   52.8340 N.am      2 SEC2        0.0000 
     60 N          59.4570    8.7700   52.3110 N.am      5 SEP2        0.0000 
     61 O          62.7320    9.9750   51.9570 O.2       1 ALC1        0.0000 
     62 O          63.4980    8.8680   52.2500 O.2       7 ALL1        0.0000 
     63 O          61.9660   11.0820   51.6640 O.2       4 ALP1        0.0000 
     64 N          64.8090   11.3170   51.4055 N.am      2 SEC2        0.0000 
     65 N          65.2010    9.8720   51.1450 N.am      8 SEL2        0.0000 
     66 N          64.4170   12.7620   51.6660 N.am      5 SEP2        0.0000 
     67 N          67.7410    8.9145   51.8685 N.am      2 SEC2        0.0000 
     68 N          66.8240    7.7570   51.5390 N.am      8 SEL2        0.0000 
     69 N          68.6580   10.0720   52.1980 N.am      5 SEP2        0.0000 
     70 CA         68.4965    8.7320   50.5675 C.3       3 GLC5        0.0000 
     71 CA         68.8600    6.7020   51.2060 C.3       9 GLL5        0.0000 
     72 CA         68.1330   10.7620   49.9290 C.3       6 GLP5        0.0000 
     73 CA         72.2455    6.9940   50.1845 C.3       3 GLC5        0.0000 
     74 CA         71.1800    5.6760   51.0350 C.3       9 GLL5        0.0000 
     75 CA         73.3110    8.3120   49.3340 C.3       6 GLP5        0.0000 
     76 CA         70.0690    3.2855   54.8280 C.3       3 GLC5        0.0000 
     77 CA         70.3510    3.6240   52.8930 C.3       9 GLL5        0.0000 
     78 CA         69.7870    2.9470   56.7630 C.3       6 GLP5        0.0000 
     79 CA         71.7565    5.1580   53.4685 C.3       3 GLC5        0.0000 
     80 CA         73.1620    6.6920   54.0440 C.3       6 GLP5        0.0000 
     81 CA         72.1260    2.9215   53.6860 C.3       3 GLC5        0.0000 
     82 CA         73.9010    2.2190   54.4790 C.3       6 GLP5        0.0000 
     83 CA         68.9205    3.8155   54.9095 C.3       3 GLC5        0.0000 
     84 CA         68.0540    4.6840   53.0560 C.3       9 GLL5        0.0000 
     85 CA         66.3370    3.0520   52.7990 C.3       3 GLC5        0.0000 
     86 CA         65.3560    4.6140   54.0270 C.3       9 GLL5        0.0000 
     87 CA         67.3180    1.4900   51.5710 C.3       6 GLP5        0.0000 
     88 CA         64.5635    3.8305   52.5385 C.3       3 GLC5        0.0000 
     89 CA         63.7710    3.0470   51.0500 C.3       6 GLP5        0.0000 
     90 CA         65.7495    1.6145   56.1875 C.3       3 GLC5        0.0000 
     91 CA         65.3400    3.6110   56.2810 C.3       9 GLL5        0.0000 
     92 CA         66.1590   -0.3820   56.0940 C.3       6 GLP5        0.0000 
     93 N          62.8060    3.8480   55.5555 N.am      2 SEC2        0.0000 
     94 N          64.0380    3.1520   55.9480 N.am      8 SEL2        0.0000 
     95 N          61.5740    4.5440   55.1630 N.am      5 SEP2        0.0000 
     96 O          64.1010    2.5140   54.8065 O.2       1 ALC1        0.0000 
     97 O          64.0380    3.1520   55.9480 O.2       7 ALL1        0.0000 
     98 O          64.1640    1.8760   53.6650 O.2       4 ALP1        0.0000 
     99 CA         64.3540    5.3070   59.1920 C.3       3 GLC5        0.0000 
    100 CA         65.2170    4.0310   57.7280 C.3       9 GLL5        0.0000 
    101 CA         63.4910    6.5830   60.6560 C.3       6 GLP5        0.0000 
    102 O          66.5865    5.4990   59.2905 O.2       1 ALC1        0.0000 
    103 O          66.3150    4.8920   58.0370 O.2       7 ALL1        0.0000 
    104 O          66.8580    6.1060   60.5440 O.2       4 ALP1        0.0000 
    105 CA         63.5090    2.8845   60.1790 C.3       3 GLC5        0.0000 
    106 CA         65.1630    2.8420   58.6760 C.3       9 GLL5        0.0000 
    107 CA         61.8550    2.9270   61.6820 C.3       6 GLP5        0.0000 
    108 CA         65.1170    0.9495   57.8135 C.3       3 GLC5        0.0000 
    109 CA         65.0710   -0.9430   56.9510 C.3       6 GLP5        0.0000 
    110 N          64.0150    3.9985   62.9585 N.am      2 SEC2        0.0000 
    111 N          65.2670    2.9530   62.5790 N.am      8 SEL2        0.0000 
    112 N          62.7630    5.0440   63.3380 N.am      5 SEP2        0.0000 
    113 N          63.9485    0.1395   61.8625 N.am      2 SEC2        0.0000 
    114 N          64.3810    1.2010   60.9380 N.am      8 SEL2        0.0000 
    115 N          63.5160   -0.9220   62.7870 N.am      5 SEP2        0.0000 
    116 CA         68.0685    1.1220   66.6077 C.3       3 GLC5        0.0000 
    117 CA         68.6620    1.0360   65.0380 C.3       9 GLL5        0.0000 
    118 CA         68.8159   -3.2940   69.0392 C.3       3 GLC5        0.0000 
    119 CA         70.5180   -3.7420   67.4320 C.3       9 GLL5        0.0000 
    120 CA         68.6749   -3.6390   67.3928 C.3       3 GLC5        0.0000 
    121 CA         66.8050   -3.9760   66.9170 C.3       6 GLP5        0.0000 
    122 CA         71.8183    6.1915   52.6745 C.3       3 GLC5        0.0000 
    123 CA         69.7690    5.7060   51.5750 C.3       9 GLL5        0.0000 
    124 CA         68.9730    7.5429   52.8924 C.3       3 GLC5        0.0000 
    125 CA         68.9490    8.8850   54.2490 C.3       6 GLP5        0.0000 
    126 CA         68.5845    2.8235   52.1345 C.3       3 GLC5        0.0000 
    127 CA         69.3510    4.6900   52.5030 C.3       9 GLL5        0.0000 
    128 CA         68.2732    7.0297   53.5540 C.3       3 GLC5        0.0000 
    129 CA         67.4578    3.3323   52.2150 C.3       3 GLC5        0.0000 
    130 CA         67.1410    5.6650   52.6620 C.3       9 GLL5        0.0000 
    131 CA         63.3513    4.4206   56.7004 C.3       3 GLC5        0.0000 
    132 CA         65.5600    4.8960   55.4980 C.3       9 GLL5        0.0000 
    133 CA         61.3690    4.6990   56.5920 C.3       6 GLP5        0.0000 
@<TRIPOS>BOND
@<TRIPOS>SUBSTRUCTURE
     1 ALC1       22 GROUP        1 X    ALC  0     ROOT ALC X 1
     2 SEC2        1 GROUP        1 X    SEC  0     **** SEC X 2
     3 GLC5       11 GROUP        1 X    GLC  0     **** GLC X 6
     4 ALP1       24 GROUP        1 Y    ALP  0     ROOT ALP Y 8
     5 SEP2        3 GROUP        1 Y    SEP  0     **** SEP Y 9
     6 GLP5       13 GROUP        1 Y    GLP  0     **** GLP Y 13
     7 ALL1       23 GROUP        1 Z    ALL  0     ROOT ALL Z 15
     8 SEL2        2 GROUP        1 Z    SEL  0     **** SEL Z 16
     9 GLL5       12 GROUP        1 Z    GLL  0     **** GLL Z 20
@<TRIPOS>SET

