#    Name: 1kif_FAD_1_ligand
#    Modification time : Tue Mar 25 10:05:44 2014

@<TRIPOS>MOLECULE
1kif_FAD_1_ligand
   84    89     1     0     0
SMALL
NO_CHARGES


@<TRIPOS>ATOM
      1 PA         68.1950    2.4800   61.5660 P.3       1 FAD348      0.0000 
      2 O1A        68.0420    3.9540   61.4920 O.co2     1 FAD348      0.0000 
      3 O2A        69.3900    1.8450   60.9600 O.co2     1 FAD348      0.0000 
      4 O5B        67.9920    2.1770   63.1190 O.3       1 FAD348      0.0000 
      5 C5B        68.2880    0.8920   63.5830 C.3       1 FAD348      0.0000 
      6 C4B        68.6620    1.0360   65.0380 C.3       1 FAD348      0.0000 
      7 O4B        68.6110   -0.2130   65.7460 O.3       1 FAD348      0.0000 
      8 C3B        70.0600    1.5800   65.2590 C.3       1 FAD348      0.0000 
      9 O3B        70.0480    2.2970   66.4880 O.3       1 FAD348      0.0000 
     10 C2B        70.8630    0.3340   65.5610 C.3       1 FAD348      0.0000 
     11 O2B        71.9760    0.7360   66.3280 O.3       1 FAD348      0.0000 
     12 C1B        69.8320   -0.3620   66.4340 C.3       1 FAD348      0.0000 
     13 N9A        70.0680   -1.7850   66.6180 N.pl3     1 FAD348      0.0000 
     14 C8A        70.0050   -2.7450   65.6460 C.2       1 FAD348      0.0000 
     15 N7A        70.2740   -3.9450   66.0850 N.2       1 FAD348      0.0000 
     16 C5A        70.5180   -3.7420   67.4320 C.ar      1 FAD348      0.0000 
     17 C6A        70.8570   -4.6280   68.4720 C.ar      1 FAD348      0.0000 
     18 N6A        71.0020   -5.9420   68.2740 N.pl3     1 FAD348      0.0000 
     19 N1A        71.0400   -4.1260   69.7110 N.ar      1 FAD348      0.0000 
     20 C2A        70.8900   -2.8130   69.8920 C.ar      1 FAD348      0.0000 
     21 N3A        70.5780   -1.8820   68.9990 N.ar      1 FAD348      0.0000 
     22 C4A        70.4020   -2.4190   67.7850 C.ar      1 FAD348      0.0000 
     23 N1         63.7860    6.7810   53.2790 N.2       1 FAD348      0.0000 
     24 C2         63.0200    7.8090   52.9860 C.2       1 FAD348      0.0000 
     25 O2         61.8460    7.8760   53.3570 O.2       1 FAD348      0.0000 
     26 N3         63.4980    8.8680   52.2500 N.am      1 FAD348      0.0000 
     27 C4         64.7920    8.9150   51.7900 C.2       1 FAD348      0.0000 
     28 O4         65.2010    9.8720   51.1450 O.2       1 FAD348      0.0000 
     29 C4X        65.6040    7.7880   52.0870 C.2       1 FAD348      0.0000 
     30 N5         66.8240    7.7570   51.5390 N.2       1 FAD348      0.0000 
     31 C5X        67.5900    6.6890   51.7870 C.ar      1 FAD348      0.0000 
     32 C6         68.8600    6.7020   51.2060 C.ar      1 FAD348      0.0000 
     33 C7         69.7690    5.7060   51.5750 C.ar      1 FAD348      0.0000 
     34 C7M        71.1800    5.6760   51.0350 C.3       1 FAD348      0.0000 
     35 C8         69.3510    4.6900   52.5030 C.ar      1 FAD348      0.0000 
     36 C8M        70.3510    3.6240   52.8930 C.3       1 FAD348      0.0000 
     37 C9         68.0540    4.6840   53.0560 C.ar      1 FAD348      0.0000 
     38 C9A        67.1410    5.6650   52.6620 C.ar      1 FAD348      0.0000 
     39 N10        65.8800    5.6990   53.1750 N.pl3     1 FAD348      0.0000 
     40 C10        65.0690    6.7540   52.8810 C.2       1 FAD348      0.0000 
     41 C1'        65.3560    4.6140   54.0270 C.3       1 FAD348      0.0000 
     42 C2'        65.5600    4.8960   55.4980 C.3       1 FAD348      0.0000 
     43 O2'        66.9210    5.2990   55.5560 O.3       1 FAD348      0.0000 
     44 C3'        65.3400    3.6110   56.2810 C.3       1 FAD348      0.0000 
     45 O3'        64.0380    3.1520   55.9480 O.3       1 FAD348      0.0000 
     46 C4'        65.2170    4.0310   57.7280 C.3       1 FAD348      0.0000 
     47 O4'        66.3150    4.8920   58.0370 O.3       1 FAD348      0.0000 
     48 C5'        65.1630    2.8420   58.6760 C.3       1 FAD348      0.0000 
     49 O5'        65.2550    3.3060   60.0100 O.3       1 FAD348      0.0000 
     50 P          65.3370    2.2990   61.2430 P.3       1 FAD348      0.0000 
     51 O1P        65.2670    2.9530   62.5790 O.co2     1 FAD348      0.0000 
     52 O2P        64.3810    1.2010   60.9380 O.co2     1 FAD348      0.0000 
     53 O3P        66.8540    1.8260   60.9660 O.3       1 FAD348      0.0000 
     54 H          69.1319    0.4431   63.0611 H         1 FAD348      0.0000 
     55 H          67.4351    0.2178   63.5195 H         1 FAD348      0.0000 
     56 H          67.9673    1.7424   65.5134 H         1 FAD348      0.0000 
     57 H          70.4136    2.0645   64.4595 H         1 FAD348      0.0000 
     58 H          71.0282   -0.1870   64.7137 H         1 FAD348      0.0000 
     59 H          69.7891    0.1499   67.3775 H         1 FAD348      0.0000 
     60 H          69.7720   -2.5165   64.6978 H         1 FAD348      0.0000 
     61 H          70.8003   -6.2730   67.3522 H         1 FAD348      0.0000 
     62 H          71.2992   -6.4761   69.0655 H         1 FAD348      0.0000 
     63 H          71.0476   -2.4535   70.9282 H         1 FAD348      0.0000 
     64 H          62.8530    9.6660   52.0329 H         1 FAD348      0.0000 
     65 H          69.1171    7.4161   50.5329 H         1 FAD348      0.0000 
     66 H          67.7919    3.9708   53.7338 H         1 FAD348      0.0000 
     67 H          65.8538    3.6630   53.7779 H         1 FAD348      0.0000 
     68 H          64.2790    4.4730   53.8410 H         1 FAD348      0.0000 
     69 H          64.8990    5.6430   55.8022 H         1 FAD348      0.0000 
     70 H          66.0844    2.9475   56.1446 H         1 FAD348      0.0000 
     71 H          64.2756    4.5851   57.8291 H         1 FAD348      0.0000 
     72 H          65.9888    2.1697   58.4163 H         1 FAD348      0.0000 
     73 H          64.2238    2.3084   58.4898 H         1 FAD348      0.0000 
     74 H          71.6861    6.5052   51.2721 H         1 FAD348      0.0000 
     75 H          71.6997    4.9020   51.3967 H         1 FAD348      0.0000 
     76 H          71.1946    5.5987   50.0381 H         1 FAD348      0.0000 
     77 H          70.6661    3.1024   52.1001 H         1 FAD348      0.0000 
     78 H          71.1621    4.0165   53.3267 H         1 FAD348      0.0000 
     79 H          69.9614    2.9680   53.5394 H         1 FAD348      0.0000 
     80 H          70.9599    2.7010   66.5607 H         1 FAD348      0.0000 
     81 H          71.7450    1.6508   66.6594 H         1 FAD348      0.0000 
     82 H          67.1458    5.3114   56.5303 H         1 FAD348      0.0000 
     83 H          64.1860    2.3226   55.4093 H         1 FAD348      0.0000 
     84 H          66.1733    5.1602   58.9899 H         1 FAD348      0.0000 
@<TRIPOS>BOND
     1    2    1 ar   
     2    3    1 ar   
     3    4    1 1    
     4   53    1 1    
     5    5    4 1    
     6    6    5 1    
     7   54    5 1    
     8   55    5 1    
     9    7    6 1    
    10    8    6 1    
    11   56    6 1    
    12   12    7 1    
    13    9    8 1    
    14   10    8 1    
    15   57    8 1    
    16   80    9 1    
    17   11   10 1    
    18   12   10 1    
    19   58   10 1    
    20   81   11 1    
    21   13   12 1    
    22   59   12 1    
    23   14   13 1    
    24   22   13 1    
    25   15   14 2    
    26   60   14 1    
    27   16   15 1    
    28   17   16 ar   
    29   22   16 ar   
    30   18   17 1    
    31   19   17 ar   
    32   61   18 1    
    33   62   18 1    
    34   20   19 ar   
    35   21   20 ar   
    36   63   20 1    
    37   22   21 ar   
    38   24   23 1    
    39   40   23 2    
    40   25   24 2    
    41   26   24 am   
    42   27   26 am   
    43   64   26 1    
    44   28   27 2    
    45   29   27 1    
    46   30   29 2    
    47   40   29 1    
    48   31   30 1    
    49   32   31 ar   
    50   38   31 ar   
    51   33   32 ar   
    52   65   32 1    
    53   34   33 1    
    54   35   33 ar   
    55   74   34 1    
    56   75   34 1    
    57   76   34 1    
    58   36   35 1    
    59   37   35 ar   
    60   77   36 1    
    61   78   36 1    
    62   79   36 1    
    63   38   37 ar   
    64   66   37 1    
    65   39   38 1    
    66   40   39 1    
    67   41   39 1    
    68   42   41 1    
    69   67   41 1    
    70   68   41 1    
    71   43   42 1    
    72   44   42 1    
    73   69   42 1    
    74   82   43 1    
    75   45   44 1    
    76   46   44 1    
    77   70   44 1    
    78   83   45 1    
    79   47   46 1    
    80   48   46 1    
    81   71   46 1    
    82   84   47 1    
    83   49   48 1    
    84   72   48 1    
    85   73   48 1    
    86   50   49 1    
    87   51   50 ar   
    88   52   50 ar   
    89   53   50 1    
@<TRIPOS>SUBSTRUCTURE
     1 FAD348      1 GROUP   
@<TRIPOS>SET

