#    Name: 2cen_4AH_1_INTS_M
#    Modification time : Mon Mar 24 23:37:00 2014

@<TRIPOS>MOLECULE
2cen_4AH_1_INTS_M
  113     0     9     0     0
SMALL
NO_CHARGES


@<TRIPOS>ATOM
      1 O          17.1720   21.9415    5.2135 O.2       1 ALC1        0.0000 
      2 O          15.8330   20.9260    5.1890 O.2       7 ALL1        0.0000 
      3 O          18.5110   22.9570    5.2380 O.2       4 ALP1        0.0000 
      4 CA         13.1185   19.5250    2.8205 C.3       3 GLC5        0.0000 
      5 CA         15.2500   19.4110    2.4890 C.3       9 GLL5        0.0000 
      6 CA         10.9870   19.6390    3.1520 C.3       6 GLP5        0.0000 
      7 CA         13.6565   20.3100    1.3700 C.3       3 GLC5        0.0000 
      8 CA         12.0630   21.2090    0.2510 C.3       6 GLP5        0.0000 
      9 CA         15.0785   20.5010    0.0830 C.3       3 GLC5        0.0000 
     10 CA         15.4250   18.7590    1.2180 C.3       9 GLL5        0.0000 
     11 CA         14.7320   22.2430   -1.0520 C.3       6 GLP5        0.0000 
     12 CA         17.7160   20.0635    3.0020 C.3       3 GLC5        0.0000 
     13 CA         17.0540   17.9780    3.4120 C.3       9 GLL5        0.0000 
     14 CA         18.3780   22.1490    2.5920 C.3       6 GLP5        0.0000 
     15 CA         19.8445   18.2640    3.9385 C.3       3 GLC5        0.0000 
     16 CA         17.7990   17.7320    4.7040 C.3       9 GLL5        0.0000 
     17 CA         21.8900   18.7960    3.1730 C.3       6 GLP5        0.0000 
     18 N          19.3670   20.1995    3.9135 N.am      2 SEC2        0.0000 
     19 N          18.5730   19.9140    5.1680 N.am      8 SEL2        0.0000 
     20 N          20.1610   20.4850    2.6590 N.am      5 SEP2        0.0000 
     21 O          18.5420   21.4355    5.2030 O.2       1 ALC1        0.0000 
     22 O          18.5730   19.9140    5.1680 O.2       7 ALL1        0.0000 
     23 CA         12.6520   21.7940    9.6430 C.3       3 GLC5        0.0000 
     24 CA         14.3750   21.2800    8.8770 C.3       9 GLL5        0.0000 
     25 CA         10.9290   22.3080   10.4090 C.3       6 GLP5        0.0000 
     26 O          15.5075   24.8905    5.8635 O.2       1 ALC1        0.0000 
     27 O          15.4120   23.7170    5.2220 O.2       7 ALL1        0.0000 
     28 O          15.6030   26.0640    6.5050 O.2       4 ALP1        0.0000 
     29 CA         12.0090   21.2935    3.9485 C.3       3 GLC5        0.0000 
     30 CA         13.0310   22.9480    4.7450 C.3       9 GLL5        0.0000 
     31 O          11.4875   25.9215    4.3735 O.2       1 ALC1        0.0000 
     32 O          11.4140   24.7110    5.3210 O.2       7 ALL1        0.0000 
     33 O          11.5610   27.1320    3.4260 O.2       4 ALP1        0.0000 
     34 CA         10.7925   27.2155    6.2320 C.3       3 GLC5        0.0000 
     35 CA          9.7620   25.6600    6.8290 C.3       9 GLL5        0.0000 
     36 CA         11.8230   28.7710    5.6350 C.3       6 GLP5        0.0000 
     37 CA          8.5185   29.0960    9.5795 C.3       3 GLC5        0.0000 
     38 CA          8.9260   27.2100    8.7310 C.3       9 GLL5        0.0000 
     39 CA          8.1110   30.9820   10.4280 C.3       6 GLP5        0.0000 
     40 CA          8.1430   26.3860   10.6295 C.3       3 GLC5        0.0000 
     41 CA          7.3600   25.5620   12.5280 C.3       6 GLP5        0.0000 
     42 CA         11.3945   26.2770   11.0630 C.3       3 GLC5        0.0000 
     43 CA         11.0770   26.0020    9.0310 C.3       9 GLL5        0.0000 
     44 CA         11.7120   26.5520   13.0950 C.3       6 GLP5        0.0000 
     45 CA         12.6715   25.4190    9.8490 C.3       3 GLC5        0.0000 
     46 CA         14.2660   24.8360   10.6670 C.3       6 GLP5        0.0000 
     47 O           7.4600   24.4075    6.4990 O.2       1 ALC1        0.0000 
     48 O           8.3920   25.5860    6.2930 O.2       7 ALL1        0.0000 
     49 O           6.5280   23.2290    6.7050 O.2       4 ALP1        0.0000 
     50 N           9.0915   28.7330    5.4255 N.am      2 SEC2        0.0000 
     51 N           8.4670   27.4840    5.1070 N.am      8 SEL2        0.0000 
     52 N           9.7160   29.9820    5.7440 N.am      5 SEP2        0.0000 
     53 CA         10.3460   25.5210    0.9295 C.3       3 GLC5        0.0000 
     54 CA          9.4220   24.4510    2.1580 C.3       9 GLL5        0.0000 
     55 CA         11.2700   26.5910   -0.2990 C.3       6 GLP5        0.0000 
     56 CA          6.6255   28.9790    4.9375 C.3       3 GLC5        0.0000 
     57 CA          5.8550   27.1580    4.2320 C.3       9 GLL5        0.0000 
     58 CA          7.3960   30.8000    5.6430 C.3       6 GLP5        0.0000 
     59 CA          8.1365   25.1645   10.7870 C.3       3 GLC5        0.0000 
     60 CA          8.9130   24.7670    9.0460 C.3       9 GLL5        0.0000 
     61 CA          5.6215   24.1510   -0.0010 C.3       3 GLC5        0.0000 
     62 CA          5.0560   24.6540    1.8370 C.3       9 GLL5        0.0000 
     63 CA          6.1870   23.6480   -1.8390 C.3       6 GLP5        0.0000 
     64 CA         17.6020   20.7040    3.9228 C.3       3 GLC5        0.0000 
     65 CA         16.1290   19.4960    4.9900 C.3       9 GLL5        0.0000 
     66 CA         16.5168   20.6485    2.2393 C.3       3 GLC5        0.0000 
     67 CA         16.0890   18.9950    3.5740 C.3       9 GLL5        0.0000 
     68 CA         17.3640   22.0940    1.4470 C.3       6 GLP5        0.0000 
     69 CA         16.6412   20.1680    1.2935 C.3       3 GLC5        0.0000 
     70 CA         15.0583   16.4180    1.3135 C.3       3 GLC5        0.0000 
     71 CA         16.4120   17.7250    1.0620 C.3       9 GLL5        0.0000 
     72 CA         14.1980   14.5940    1.4870 C.3       6 GLP5        0.0000 
     73 CA         18.2122   17.0832    0.5393 C.3       3 GLC5        0.0000 
     74 CA         19.5990   16.6430   -0.5340 C.3       6 GLP5        0.0000 
     75 CA         15.7414   16.9160    0.1072 C.3       3 GLC5        0.0000 
     76 CA         17.2390   17.3220    2.1630 C.3       9 GLL5        0.0000 
     77 CA         14.9040   16.0500   -1.4370 C.3       6 GLP5        0.0000 
     78 CA         16.4742   15.6935    3.0312 C.3       3 GLC5        0.0000 
     79 CA         15.8020   13.7370    3.2750 C.3       6 GLP5        0.0000 
     80 CA         14.3622   23.4291    9.4645 C.3       3 GLC5        0.0000 
     81 CA         14.9730   22.3470    8.1180 C.3       9 GLL5        0.0000 
     82 CA         13.8460   19.4098    8.6415 C.3       3 GLC5        0.0000 
     83 CA         12.9180   17.9410    7.9720 C.3       6 GLP5        0.0000 
     84 CA         15.3170   19.9230   11.4040 C.3       3 GLC5        0.0000 
     85 CA         15.1730   20.4770    9.7450 C.3       9 GLL5        0.0000 
     86 CA         14.7590   19.2400   13.0060 C.3       6 GLP5        0.0000 
     87 CA         16.7660   21.7780   10.9935 C.3       3 GLC5        0.0000 
     88 CA         17.6570   22.9500   12.1850 C.3       6 GLP5        0.0000 
     89 CA         18.0382   23.5695    8.5130 C.3       3 GLC5        0.0000 
     90 CA         17.1780   21.7980    9.1060 C.3       9 GLL5        0.0000 
     91 CA         19.2970   24.9380    8.3550 C.3       6 GLP5        0.0000 
     92 CA         17.2182   22.5755   10.4280 C.3       3 GLC5        0.0000 
     93 CA         16.3810   22.6040    8.2360 C.3       9 GLL5        0.0000 
     94 CA         15.5228   23.5185    9.6690 C.3       3 GLC5        0.0000 
     95 CA         10.8890   21.5440    3.1022 C.3       3 GLC5        0.0000 
     96 CA         11.5480   23.4280    3.1080 C.3       9 GLL5        0.0000 
     97 CA         11.4270   22.3290    1.6517 C.3       3 GLC5        0.0000 
     98 CA         11.4147   27.4424    7.8551 C.3       3 GLC5        0.0000 
     99 CA         12.6370   28.6050    6.9180 C.3       6 GLP5        0.0000 
    100 CA          6.6167   21.7320    2.2322 C.3       3 GLC5        0.0000 
    101 CA          7.1660   23.6030    2.7910 C.3       9 GLL5        0.0000 
    102 CA          5.7550   20.3540    1.2530 C.3       6 GLP5        0.0000 
    103 CA          8.2686   23.6619    0.5889 C.3       3 GLC5        0.0000 
    104 CA          8.5990   23.2800   -1.2700 C.3       6 GLP5        0.0000 
    105 CA          8.2945   21.7718    5.1165 C.3       3 GLC5        0.0000 
    106 CA          7.7910   22.6170    3.6320 C.3       9 GLL5        0.0000 
    107 CA          8.0860   20.9600    6.5520 C.3       6 GLP5        0.0000 
    108 CA          9.7450   21.1112    3.4165 C.3       3 GLC5        0.0000 
    109 CA         10.2886   23.8341    9.6419 C.3       3 GLC5        0.0000 
    110 CA          4.9430   21.5873    2.3195 C.3       3 GLC5        0.0000 
    111 CA          4.8410   22.7860    3.4320 C.3       9 GLL5        0.0000 
    112 CA          5.5607   22.2610    1.7568 C.3       3 GLC5        0.0000 
    113 CA          5.6770   23.6820    2.6840 C.3       9 GLL5        0.0000 
@<TRIPOS>BOND
@<TRIPOS>SUBSTRUCTURE
     1 ALC1        1 GROUP        1 X    ALC  0     ROOT ALC X 1
     2 SEC2       18 GROUP        1 X    SEC  0     **** SEC X 2
     3 GLC5        4 GROUP        1 X    GLC  0     **** GLC X 6
     4 ALP1        3 GROUP        1 Y    ALP  0     ROOT ALP Y 8
     5 SEP2       20 GROUP        1 Y    SEP  0     **** SEP Y 9
     6 GLP5        6 GROUP        1 Y    GLP  0     **** GLP Y 13
     7 ALL1        2 GROUP        1 Z    ALL  0     ROOT ALL Z 15
     8 SEL2       19 GROUP        1 Z    SEL  0     **** SEL Z 16
     9 GLL5        5 GROUP        1 Z    GLL  0     **** GLL Z 20
@<TRIPOS>SET

