#    Name: 2cen_4AH_1_ligand
#    Modification time : Mon Mar 24 23:37:00 2014

@<TRIPOS>MOLECULE
2cen_4AH_1_ligand
   95    99     1     0     0
SMALL
NO_CHARGES


@<TRIPOS>ATOM
      1 C1         14.3070   22.9110    5.6430 C.3       1 4AH1200     0.0000 
      2 C2         14.5790   21.3770    5.3860 C.2       1 4AH1200     0.0000 
      3 O3         13.6330   20.5620    5.4030 O.2       1 4AH1200     0.0000 
      4 N4         15.8330   20.9260    5.1890 N.am      1 4AH1200     0.0000 
      5 C5         16.1290   19.4960    4.9900 C.3       1 4AH1200     0.0000 
      6 C6         16.0890   18.9950    3.5740 C.ar      1 4AH1200     0.0000 
      7 C7         15.2500   19.4110    2.4890 C.ar      1 4AH1200     0.0000 
      8 C8         15.4250   18.7590    1.2180 C.ar      1 4AH1200     0.0000 
      9 C9         16.4120   17.7250    1.0620 C.ar      1 4AH1200     0.0000 
     10 C10        17.2390   17.3220    2.1630 C.ar      1 4AH1200     0.0000 
     11 C11        17.0540   17.9780    3.4120 C.ar      1 4AH1200     0.0000 
     12 C12        17.7990   17.7320    4.7040 C.3       1 4AH1200     0.0000 
     13 C13        17.5230   19.0220    5.5170 C.3       1 4AH1200     0.0000 
     14 O14        18.5730   19.9140    5.1680 O.3       1 4AH1200     0.0000 
     15 C24        14.1110   23.1820    7.1760 C.3       1 4AH1200     0.0000 
     16 C25        14.9730   22.3470    8.1180 C.ar      1 4AH1200     0.0000 
     17 C26        14.3750   21.2800    8.8770 C.ar      1 4AH1200     0.0000 
     18 C27        15.1730   20.4770    9.7450 C.ar      1 4AH1200     0.0000 
     19 C28        16.5770   20.7350    9.8590 C.ar      1 4AH1200     0.0000 
     20 C29        17.1780   21.7980    9.1060 C.ar      1 4AH1200     0.0000 
     21 C30        16.3810   22.6040    8.2360 C.ar      1 4AH1200     0.0000 
     22 O36        15.4120   23.7170    5.2220 O.3       1 4AH1200     0.0000 
     23 C41        13.0310   22.9480    4.7450 C.3       1 4AH1200     0.0000 
     24 N42        12.0780   23.9550    4.3850 N.3       1 4AH1200     0.0000 
     25 N43        11.4140   24.7110    5.3210 N.am      1 4AH1200     0.0000 
     26 C44        11.5480   23.4280    3.1080 C.3       1 4AH1200     0.0000 
     27 C45        10.5400   24.4360    6.3090 C.2       1 4AH1200     0.0000 
     28 O46        10.3620   23.2950    6.7660 O.2       1 4AH1200     0.0000 
     29 C47         9.7620   25.6600    6.8290 C.3       1 4AH1200     0.0000 
     30 C48         9.6900   25.9050    8.3760 C.3       1 4AH1200     0.0000 
     31 C49         8.9260   27.2100    8.7310 C.3       1 4AH1200     0.0000 
     32 C50        11.0770   26.0020    9.0310 C.3       1 4AH1200     0.0000 
     33 N51         8.3920   25.5860    6.2930 N.am      1 4AH1200     0.0000 
     34 C54         7.8210   26.4840    5.4740 C.2       1 4AH1200     0.0000 
     35 O55         8.4670   27.4840    5.1070 O.2       1 4AH1200     0.0000 
     36 O56         6.5440   26.2540    5.0890 O.3       1 4AH1200     0.0000 
     37 C78        10.0340   23.4700    2.9970 C.ar      1 4AH1200     0.0000 
     38 C79         9.4220   24.4510    2.1580 C.ar      1 4AH1200     0.0000 
     39 C80         7.9990   24.5180    2.0510 C.ar      1 4AH1200     0.0000 
     40 C81         7.1660   23.6030    2.7910 C.ar      1 4AH1200     0.0000 
     41 C82         9.2150   22.5500    3.7300 C.ar      1 4AH1200     0.0000 
     42 C83         7.7910   22.6170    3.6320 C.ar      1 4AH1200     0.0000 
     43 C91         5.8550   27.1580    4.2320 C.3       1 4AH1200     0.0000 
     44 C92         8.9130   24.7670    9.0460 C.3       1 4AH1200     0.0000 
     45 C93         3.4210   22.8550    3.3400 C.ar      1 4AH1200     0.0000 
     46 C94         4.8410   22.7860    3.4320 C.ar      1 4AH1200     0.0000 
     47 C95         5.6770   23.6820    2.6840 C.ar      1 4AH1200     0.0000 
     48 C96         5.0560   24.6540    1.8370 C.ar      1 4AH1200     0.0000 
     49 N97         3.6370   24.7180    1.7470 N.ar      1 4AH1200     0.0000 
     50 C98         2.8160   23.8240    2.4950 C.ar      1 4AH1200     0.0000 
     51 H          16.6528   21.5627    5.1675 H         1 4AH1200     0.0000 
     52 H          15.3960   18.8700    5.5590 H         1 4AH1200     0.0000 
     53 H          14.5672   20.1277    2.6080 H         1 4AH1200     0.0000 
     54 H          14.8487   19.0307    0.4282 H         1 4AH1200     0.0000 
     55 H          16.5248   17.2723    0.1550 H         1 4AH1200     0.0000 
     56 H          17.9239   16.6006    2.0503 H         1 4AH1200     0.0000 
     57 H          18.8375   17.6527    4.5252 H         1 4AH1200     0.0000 
     58 H          17.3881   16.9055    5.2187 H         1 4AH1200     0.0000 
     59 H          17.4576   18.7722    6.5151 H         1 4AH1200     0.0000 
     60 H          13.0419   23.0170    7.4129 H         1 4AH1200     0.0000 
     61 H          14.3062   24.2573    7.3553 H         1 4AH1200     0.0000 
     62 H          13.3776   21.1022    8.7900 H         1 4AH1200     0.0000 
     63 H          14.7507   19.7269   10.2795 H         1 4AH1200     0.0000 
     64 H          17.1494   20.1650   10.4738 H         1 4AH1200     0.0000 
     65 H          18.1748   21.9765    9.1934 H         1 4AH1200     0.0000 
     66 H          16.8041   23.3539    7.7036 H         1 4AH1200     0.0000 
     67 H          12.4080   21.9749    5.1160 H         1 4AH1200     0.0000 
     68 H          13.4040   22.4181    3.7190 H         1 4AH1200     0.0000 
     69 H          11.6648   25.8206    5.2355 H         1 4AH1200     0.0000 
     70 H          11.8790   22.3780    2.9672 H         1 4AH1200     0.0000 
     71 H          11.9760   23.9990    2.2580 H         1 4AH1200     0.0000 
     72 H          10.2307   26.5648    6.3818 H         1 4AH1200     0.0000 
     73 H           7.8481   24.7275    6.6119 H         1 4AH1200     0.0000 
     74 H          10.0010   25.1036    1.6354 H         1 4AH1200     0.0000 
     75 H           7.5649   25.2141    1.4501 H         1 4AH1200     0.0000 
     76 H           9.6510   21.8474    4.3217 H         1 4AH1200     0.0000 
     77 H           7.2130   21.9668    4.1573 H         1 4AH1200     0.0000 
     78 H           2.8450   22.2136    3.8768 H         1 4AH1200     0.0000 
     79 H           5.2768   22.0880    4.0399 H         1 4AH1200     0.0000 
     80 H           5.6316   25.2975    1.3007 H         1 4AH1200     0.0000 
     81 H           1.8055   23.8812    2.4228 H         1 4AH1200     0.0000 
     82 H           8.8881   27.3611    9.7188 H         1 4AH1200     0.0000 
     83 H           9.3598   28.0157    8.3277 H         1 4AH1200     0.0000 
     84 H           7.9822   27.1892    8.4012 H         1 4AH1200     0.0000 
     85 H          11.6074   25.1639    8.9034 H         1 4AH1200     0.0000 
     86 H          11.6169   26.7517    8.6483 H         1 4AH1200     0.0000 
     87 H          11.0122   26.1607   10.0162 H         1 4AH1200     0.0000 
     88 H           5.7886   28.0719    4.6325 H         1 4AH1200     0.0000 
     89 H           6.3153   27.2573    3.3498 H         1 4AH1200     0.0000 
     90 H           4.9218   26.8523    4.0429 H         1 4AH1200     0.0000 
     91 H           9.3465   23.8794    8.8904 H         1 4AH1200     0.0000 
     92 H           8.8499   24.8929   10.0360 H         1 4AH1200     0.0000 
     93 H           7.9775   24.7012    8.6987 H         1 4AH1200     0.0000 
     94 H          18.1890   20.8284    5.2962 H         1 4AH1200     0.0000 
     95 H          15.3823   24.5247    5.8109 H         1 4AH1200     0.0000 
@<TRIPOS>BOND
     1    2    1 1    
     2   15    1 1    
     3   22    1 1    
     4   23    1 1    
     5    3    2 2    
     6    4    2 am   
     7    5    4 1    
     8   51    4 1    
     9    6    5 1    
    10   13    5 1    
    11   52    5 1    
    12    7    6 ar   
    13   11    6 ar   
    14    8    7 ar   
    15   53    7 1    
    16    9    8 ar   
    17   54    8 1    
    18   10    9 ar   
    19   55    9 1    
    20   11   10 ar   
    21   56   10 1    
    22   12   11 1    
    23   13   12 1    
    24   57   12 1    
    25   58   12 1    
    26   14   13 1    
    27   59   13 1    
    28   94   14 1    
    29   16   15 1    
    30   60   15 1    
    31   61   15 1    
    32   17   16 ar   
    33   21   16 ar   
    34   18   17 ar   
    35   62   17 1    
    36   19   18 ar   
    37   63   18 1    
    38   20   19 ar   
    39   64   19 1    
    40   21   20 ar   
    41   65   20 1    
    42   66   21 1    
    43   95   22 1    
    44   24   23 1    
    45   67   23 1    
    46   68   23 1    
    47   25   24 1    
    48   26   24 1    
    49   27   25 am   
    50   69   25 1    
    51   37   26 1    
    52   70   26 1    
    53   71   26 1    
    54   28   27 2    
    55   29   27 1    
    56   30   29 1    
    57   33   29 1    
    58   72   29 1    
    59   31   30 1    
    60   32   30 1    
    61   44   30 1    
    62   82   31 1    
    63   83   31 1    
    64   84   31 1    
    65   85   32 1    
    66   86   32 1    
    67   87   32 1    
    68   34   33 am   
    69   73   33 1    
    70   35   34 2    
    71   36   34 1    
    72   43   36 1    
    73   38   37 ar   
    74   41   37 ar   
    75   39   38 ar   
    76   74   38 1    
    77   40   39 ar   
    78   75   39 1    
    79   42   40 ar   
    80   47   40 1    
    81   42   41 ar   
    82   76   41 1    
    83   77   42 1    
    84   88   43 1    
    85   89   43 1    
    86   90   43 1    
    87   91   44 1    
    88   92   44 1    
    89   93   44 1    
    90   46   45 ar   
    91   50   45 ar   
    92   78   45 1    
    93   47   46 ar   
    94   79   46 1    
    95   48   47 ar   
    96   49   48 ar   
    97   80   48 1    
    98   50   49 ar   
    99   81   50 1    
@<TRIPOS>SUBSTRUCTURE
     1 4AH1200     1 GROUP   
@<TRIPOS>SET

