#    Name: 4dpf_0LG_1_INTS_M
#    Modification time : Tue Mar 25 10:00:30 2014

@<TRIPOS>MOLECULE
4dpf_0LG_1_INTS_M
  100     0    12     0     0
SMALL
NO_CHARGES


@<TRIPOS>ATOM
      1 N           4.5195   -1.7745  -11.2540 N.am      2 SEC2        0.0000 
      2 N           5.9760   -1.6610  -11.7930 N.am     10 SEL2        0.0000 
      3 N           3.0630   -1.8880  -10.7150 N.am      6 SEP2        0.0000 
      4 CA          9.5845    2.1325  -13.6665 C.3       4 GLC5        0.0000 
      5 CA          8.8770    0.5160  -13.0700 C.3      12 GLL5        0.0000 
      6 CA         10.2920    3.7490  -14.2630 C.3       8 GLP5        0.0000 
      7 CA          9.4160   -0.1470  -15.0110 C.3       4 GLC5        0.0000 
      8 CA          9.9550   -0.8100  -16.9520 C.3       8 GLP5        0.0000 
      9 CA          8.0685    1.4190  -11.3110 C.3       4 GLC5        0.0000 
     10 CA          7.2600    2.3220   -9.5520 C.3       8 GLP5        0.0000 
     11 CA          8.2080    2.3215  -15.3945 C.3       4 GLC5        0.0000 
     12 CA          6.9870    0.6680  -15.2270 C.3      12 GLL5        0.0000 
     13 CA          9.4290    3.9750  -15.5620 C.3       8 GLP5        0.0000 
     14 N           8.9070    2.2410  -17.5985 N.am      2 SEC2        0.0000 
     15 N           7.2760    2.3960  -17.5970 N.am     10 SEL2        0.0000 
     16 N          10.5380    2.0860  -17.6000 N.am      6 SEP2        0.0000 
     17 O           4.0650    0.7300  -17.9055 O.2       1 ALC1        0.0000 
     18 O           5.2450    1.5860  -18.1650 O.2       9 ALL1        0.0000 
     19 O           2.8850   -0.1260  -17.6460 O.2       5 ALP1        0.0000 
     20 OD1         2.2910    4.6730  -17.0490 O.co2     3 ASC3        0.0000 
     21 OD1         3.9380    5.6950  -17.4350 O.co2    11 ASL3        0.0000 
     22 OD1         0.6440    3.6510  -16.6630 O.co2     7 ASP3        0.0000 
     23 OD1         3.1320    5.1560  -16.5110 O.co2     3 ASC3        0.0000 
     24 OD1         2.3260    4.6170  -15.5870 O.co2     7 ASP3        0.0000 
     25 CA          4.0165    8.6540  -17.0625 C.3       4 GLC5        0.0000 
     26 CA          4.6560    6.8050  -16.8220 C.3      12 GLL5        0.0000 
     27 CA          3.3770   10.5030  -17.3030 C.3       8 GLP5        0.0000 
     28 CA          3.3250    7.4770  -15.4580 C.3       4 GLC5        0.0000 
     29 CA          1.9940    8.1490  -14.0940 C.3       8 GLP5        0.0000 
     30 CA          4.0955    7.9000  -21.7210 C.3       4 GLC5        0.0000 
     31 CA          5.7980    8.9570  -21.1210 C.3      12 GLL5        0.0000 
     32 CA          2.3930    6.8430  -22.3210 C.3       8 GLP5        0.0000 
     33 CA          3.2595   10.9095  -20.5655 C.3       4 GLC5        0.0000 
     34 CA          5.0330   10.2400  -20.9540 C.3      12 GLL5        0.0000 
     35 CA          1.4860   11.5790  -20.1770 C.3       8 GLP5        0.0000 
     36 CA          4.2050   10.3715  -19.1285 C.3       4 GLC5        0.0000 
     37 CA          7.3240    7.9035  -23.6405 C.3       4 GLC5        0.0000 
     38 CA          6.9320    9.1060  -22.1170 C.3      12 GLL5        0.0000 
     39 CA          7.7160    6.7010  -25.1640 C.3       8 GLP5        0.0000 
     40 O           2.6175    4.0305  -20.6735 O.2       1 ALC1        0.0000 
     41 O           3.5880    4.4510  -19.9130 O.2       9 ALL1        0.0000 
     42 O           1.6470    3.6100  -21.4340 O.2       5 ALP1        0.0000 
     43 CA          5.2630    3.2060  -21.1045 C.3       4 GLC5        0.0000 
     44 CA          4.1810    1.6140  -20.3580 C.3      12 GLL5        0.0000 
     45 CA          6.3450    4.7980  -21.8510 C.3       8 GLP5        0.0000 
     46 CA          3.4070    1.5540  -22.0910 C.3       4 GLC5        0.0000 
     47 CA          2.6330    1.4940  -23.8240 C.3       8 GLP5        0.0000 
     48 CA          2.4310    1.1255  -19.2070 C.3       4 GLC5        0.0000 
     49 CA          0.6810    0.6370  -18.0560 C.3       8 GLP5        0.0000 
     50 CA          5.1475   -0.5820  -22.7440 C.3       4 GLC5        0.0000 
     51 CA          3.9460   -0.7780  -20.9130 C.3      12 GLL5        0.0000 
     52 CA          6.3490   -0.3860  -24.5750 C.3       8 GLP5        0.0000 
     53 CA          3.2895    0.3580  -22.3685 C.3       4 GLC5        0.0000 
     54 CA          2.1670   -3.3285  -20.7990 C.3       4 GLC5        0.0000 
     55 CA          3.9550   -3.0700  -19.7950 C.3      12 GLL5        0.0000 
     56 CA          0.3790   -3.5870  -21.8030 C.3       8 GLP5        0.0000 
     57 N           3.6900   -2.7725  -14.5290 N.am      2 SEC2        0.0000 
     58 N           4.5210   -3.6290  -15.5340 N.am     10 SEL2        0.0000 
     59 N           2.8590   -1.9160  -13.5240 N.am      6 SEP2        0.0000 
     60 N           3.7120   -4.2735  -14.7355 N.am      2 SEC2        0.0000 
     61 N           2.9030   -4.9180  -13.9370 N.am      6 SEP2        0.0000 
     62 CA          8.3472   -0.9193  -15.7263 C.3       4 GLC5        0.0000 
     63 CA          6.4810   -1.6510  -14.6830 C.3      12 GLL5        0.0000 
     64 CA          5.4117    0.6370  -13.7492 C.3       4 GLC5        0.0000 
     65 CA          6.9980   -0.4060  -14.3180 C.3      12 GLL5        0.0000 
     66 CA          3.8310    1.1430  -12.7260 C.3       8 GLP5        0.0000 
     67 CA          4.4722   -0.7885  -15.0815 C.3       4 GLC5        0.0000 
     68 CA          2.7270    0.1600  -14.8560 C.3       8 GLP5        0.0000 
     69 CA          7.9480   -1.0545  -16.6677 C.3       4 GLC5        0.0000 
     70 CA          5.9540   -1.8230  -15.9310 C.3      12 GLL5        0.0000 
     71 CA          8.3320   -0.1210  -16.4040 C.3       4 GLC5        0.0000 
     72 CA          6.4310    0.4680  -16.4850 C.3      12 GLL5        0.0000 
     73 CA          4.4532    0.0033  -15.7583 C.3       4 GLC5        0.0000 
     74 CA          5.4543    4.2874  -20.1301 C.3       4 GLC5        0.0000 
     75 CA          4.8980    2.4830  -19.2910 C.3      12 GLL5        0.0000 
     76 CA          6.3550    6.9147  -21.7350 C.3       4 GLC5        0.0000 
     77 CA          8.9383    5.9895  -17.2617 C.3       4 GLC5        0.0000 
     78 CA          8.0050    7.8980  -18.2150 C.3      12 GLL5        0.0000 
     79 CA         10.3380    4.3400  -16.7520 C.3       8 GLP5        0.0000 
     80 CA          8.3382    6.4112  -19.2150 C.3       4 GLC5        0.0000 
     81 CA          7.0720    7.3800  -17.3280 C.3      12 GLL5        0.0000 
     82 CA          9.2290    5.0480  -20.3500 C.3       8 GLP5        0.0000 
     83 CA          2.7110   -1.4035  -21.5493 C.3       4 GLC5        0.0000 
     84 CA          1.1970   -1.3330  -22.3490 C.3       8 GLP5        0.0000 
     85 CA          5.1973   -6.0425  -20.0440 C.3       4 GLC5        0.0000 
     86 CA          4.7130   -4.3800  -19.6330 C.3      12 GLL5        0.0000 
     87 CA          5.6170   -7.5330  -21.2030 C.3       8 GLP5        0.0000 
     88 CA          4.2426   -4.3405  -21.7189 C.3       4 GLC5        0.0000 
     89 CA          4.0140   -5.1810  -23.5260 C.3       8 GLP5        0.0000 
     90 CA          3.6580   -7.6330  -18.0895 C.3       4 GLC5        0.0000 
     91 CA          5.5670   -5.9990  -17.9190 C.3      12 GLL5        0.0000 
     92 CA          2.1310   -8.7350  -18.5180 C.3       8 GLP5        0.0000 
     93 CA          5.9315   -6.8078  -19.6298 C.3       4 GLC5        0.0000 
     94 CA          6.3662   -7.7293  -19.4360 C.3       4 GLC5        0.0000 
     95 CA          7.4990   -7.3960  -17.9330 C.3      12 GLL5        0.0000 
     96 CA          4.8515   -9.5892  -18.0048 C.3       4 GLC5        0.0000 
     97 CA          6.7320   -8.4550  -17.4050 C.3      12 GLL5        0.0000 
     98 CA          3.6500  -10.7990  -18.7340 C.3       8 GLP5        0.0000 
     99 CA          5.3528   -7.6082  -19.2387 C.3       4 GLC5        0.0000 
    100 CA          5.3740   -8.3040  -17.1460 C.3      12 GLL5        0.0000 
@<TRIPOS>BOND
@<TRIPOS>SUBSTRUCTURE
     1 ALC1       17 GROUP        1 X    ALC  0     ROOT ALC X 1
     2 SEC2        1 GROUP        1 X    SEC  0     **** SEC X 2
     3 ASC3       20 GROUP        1 X    ASC  0     **** ASC X 3
     4 GLC5        4 GROUP        1 X    GLC  0     **** GLC X 6
     5 ALP1       19 GROUP        1 Y    ALP  0     ROOT ALP Y 8
     6 SEP2        3 GROUP        1 Y    SEP  0     **** SEP Y 9
     7 ASP3       22 GROUP        1 Y    ASP  0     **** ASP Y 10
     8 GLP5        6 GROUP        1 Y    GLP  0     **** GLP Y 13
     9 ALL1       18 GROUP        1 Z    ALL  0     ROOT ALL Z 15
    10 SEL2        2 GROUP        1 Z    SEL  0     **** SEL Z 16
    11 ASL3       21 GROUP        1 Z    ASL  0     **** ASL Z 17
    12 GLL5        5 GROUP        1 Z    GLL  0     **** GLL Z 20
@<TRIPOS>SET

