#    Name: 4dpf_0LG_1_ligand
#    Modification time : Tue Mar 25 10:00:30 2014

@<TRIPOS>MOLECULE
4dpf_0LG_1_ligand
   89    92     1     0     0
SMALL
NO_CHARGES


@<TRIPOS>ATOM
      1 O14         7.5780   -0.4430  -10.6280 O.2       1 0LG500      0.0000 
      2 S11         7.3040   -1.1830  -11.7790 S.o2      1 0LG500      0.0000 
      3 O13         5.9760   -1.6610  -11.7930 O.2       1 0LG500      0.0000 
      4 C12         8.4810   -2.4350  -11.8480 C.3       1 0LG500      0.0000 
      5 N7          7.5460   -0.1170  -13.0160 N.pl3     1 0LG500      0.0000 
      6 C10         8.8770    0.5160  -13.0700 C.3       1 0LG500      0.0000 
      7 C6          6.9980   -0.4060  -14.3180 C.ar      1 0LG500      0.0000 
      8 C1          6.4810   -1.6510  -14.6830 C.ar      1 0LG500      0.0000 
      9 C2          5.9540   -1.8230  -15.9310 C.ar      1 0LG500      0.0000 
     10 C5          6.9870    0.6680  -15.2270 C.ar      1 0LG500      0.0000 
     11 C4          6.4310    0.4680  -16.4850 C.ar      1 0LG500      0.0000 
     12 C3          5.9280   -0.7750  -16.8360 C.ar      1 0LG500      0.0000 
     13 C8          6.3730    1.5850  -17.4780 C.2       1 0LG500      0.0000 
     14 O15         7.2760    2.3960  -17.5970 O.2       1 0LG500      0.0000 
     15 N16         5.2450    1.5860  -18.1650 N.am      1 0LG500      0.0000 
     16 C17         4.8980    2.4830  -19.2910 C.3       1 0LG500      0.0000 
     17 C18         3.9740    3.6200  -18.7920 C.3       1 0LG500      0.0000 
     18 C19         4.6910    4.5020  -17.7770 C.3       1 0LG500      0.0000 
     19 N20         3.9380    5.6950  -17.4350 N.4       1 0LG500      0.0000 
     20 C37         4.6560    6.8050  -16.8220 C.3       1 0LG500      0.0000 
     21 C38         5.7220    7.3850  -17.7290 C.ar      1 0LG500      0.0000 
     22 C39         5.3590    7.9170  -18.9450 C.ar      1 0LG500      0.0000 
     23 C40         6.2920    8.4520  -19.8100 C.ar      1 0LG500      0.0000 
     24 C44         5.7980    8.9570  -21.1210 C.3       1 0LG500      0.0000 
     25 C45         5.0330   10.2400  -20.9540 C.3       1 0LG500      0.0000 
     26 C46         6.9320    9.1060  -22.1170 C.3       1 0LG500      0.0000 
     27 C41         7.6410    8.4400  -19.4490 C.ar      1 0LG500      0.0000 
     28 C42         8.0050    7.8980  -18.2150 C.ar      1 0LG500      0.0000 
     29 C43         7.0720    7.3800  -17.3280 C.ar      1 0LG500      0.0000 
     30 O21         3.5880    4.4510  -19.9130 O.3       1 0LG500      0.0000 
     31 C22         4.1810    1.6140  -20.3580 C.3       1 0LG500      0.0000 
     32 O34         4.8280    0.3110  -20.5180 O.3       1 0LG500      0.0000 
     33 C35         3.9460   -0.7780  -20.9130 C.3       1 0LG500      0.0000 
     34 C36         4.5040   -2.1700  -20.5860 C.2       1 0LG500      0.0000 
     35 C33         3.9550   -3.0700  -19.7950 C.2       1 0LG500      0.0000 
     36 C26         4.7130   -4.3800  -19.6330 C.3       1 0LG500      0.0000 
     37 C25         4.8420   -4.7240  -18.1370 C.3       1 0LG500      0.0000 
     38 N23         5.5020   -3.5510  -17.5570 N.am      1 0LG500      0.0000 
     39 C9          5.3080   -3.1100  -16.3360 C.2       1 0LG500      0.0000 
     40 O24         4.5210   -3.6290  -15.5340 O.2       1 0LG500      0.0000 
     41 C27         5.5670   -5.9990  -17.9190 C.ar      1 0LG500      0.0000 
     42 C28         6.9250   -6.1660  -18.1940 C.ar      1 0LG500      0.0000 
     43 C29         7.4990   -7.3960  -17.9330 C.ar      1 0LG500      0.0000 
     44 C30         6.7320   -8.4550  -17.4050 C.ar      1 0LG500      0.0000 
     45 C31         5.3740   -8.3040  -17.1460 C.ar      1 0LG500      0.0000 
     46 C32         4.8030   -7.0630  -17.4030 C.ar      1 0LG500      0.0000 
     47 H           6.5036   -2.4250  -14.0057 H         1 0LG500      0.0000 
     48 H           7.3788    1.5667  -14.9620 H         1 0LG500      0.0000 
     49 H           5.5314   -0.9200  -17.7786 H         1 0LG500      0.0000 
     50 H           4.4621    0.8888  -17.9300 H         1 0LG500      0.0000 
     51 H           5.7736    2.8984  -19.7228 H         1 0LG500      0.0000 
     52 H           3.1157    3.1821  -18.3271 H         1 0LG500      0.0000 
     53 H           5.6797    4.7688  -18.1966 H         1 0LG500      0.0000 
     54 H           4.8893    3.8912  -16.8756 H         1 0LG500      0.0000 
     55 H           5.1408    6.4811  -15.8817 H         1 0LG500      0.0000 
     56 H           3.9553    7.6165  -16.5491 H         1 0LG500      0.0000 
     57 H           4.3522    7.9168  -19.2221 H         1 0LG500      0.0000 
     58 H           5.0986    8.2032  -21.5327 H         1 0LG500      0.0000 
     59 H           8.3479    8.8207  -20.0762 H         1 0LG500      0.0000 
     60 H           9.0158    7.8835  -17.9535 H         1 0LG500      0.0000 
     61 H           7.3405    7.0119  -16.4287 H         1 0LG500      0.0000 
     62 H           4.1863    2.1758  -21.3008 H         1 0LG500      0.0000 
     63 H           3.1356    1.4998  -20.0442 H         1 0LG500      0.0000 
     64 H           3.7445   -0.7447  -22.0023 H         1 0LG500      0.0000 
     65 H           2.9606   -0.6858  -20.4142 H         1 0LG500      0.0000 
     66 H           5.4298   -2.3490  -21.0880 H         1 0LG500      0.0000 
     67 H           3.0992   -2.9925  -19.2893 H         1 0LG500      0.0000 
     68 H           5.7043   -4.2836  -20.0590 H         1 0LG500      0.0000 
     69 H           4.1759   -5.1771  -20.1326 H         1 0LG500      0.0000 
     70 H           3.8282   -4.7867  -17.7512 H         1 0LG500      0.0000 
     71 H           6.1757   -3.0634  -18.2219 H         1 0LG500      0.0000 
     72 H           7.4724   -5.3992  -18.5762 H         1 0LG500      0.0000 
     73 H           8.5017   -7.5538  -18.1229 H         1 0LG500      0.0000 
     74 H           7.1962   -9.3582  -17.2094 H         1 0LG500      0.0000 
     75 H           4.8216   -9.0703  -16.7835 H         1 0LG500      0.0000 
     76 H           3.7972   -6.9105  -17.2139 H         1 0LG500      0.0000 
     77 H           9.4104   -2.0689  -11.8936 H         1 0LG500      0.0000 
     78 H           8.4390   -3.0289  -11.0446 H         1 0LG500      0.0000 
     79 H           8.3561   -3.0184  -12.6505 H         1 0LG500      0.0000 
     80 H           9.6064   -0.1609  -13.1692 H         1 0LG500      0.0000 
     81 H           8.9567    1.1479  -13.8409 H         1 0LG500      0.0000 
     82 H           9.0734    1.0391  -12.2407 H         1 0LG500      0.0000 
     83 H           5.5972   10.9586  -20.5475 H         1 0LG500      0.0000 
     84 H           4.6987   10.5897  -21.8292 H         1 0LG500      0.0000 
     85 H           4.2360   10.1228  -20.3615 H         1 0LG500      0.0000 
     86 H           7.6299    9.7444  -21.7924 H         1 0LG500      0.0000 
     87 H           7.3902    8.2344  -22.2912 H         1 0LG500      0.0000 
     88 H           6.6089    9.4487  -22.9991 H         1 0LG500      0.0000 
     89 H           2.8145    3.9762  -20.3327 H         1 0LG500      0.0000 
@<TRIPOS>BOND
     1    2    1 2    
     2    3    2 2    
     3    4    2 1    
     4    5    2 1    
     5   77    4 1    
     6   78    4 1    
     7   79    4 1    
     8    6    5 1    
     9    7    5 1    
    10   80    6 1    
    11   81    6 1    
    12   82    6 1    
    13    8    7 ar   
    14   10    7 ar   
    15    9    8 ar   
    16   47    8 1    
    17   12    9 ar   
    18   39    9 1    
    19   11   10 ar   
    20   48   10 1    
    21   12   11 ar   
    22   13   11 1    
    23   49   12 1    
    24   14   13 2    
    25   15   13 am   
    26   16   15 1    
    27   50   15 1    
    28   17   16 1    
    29   31   16 1    
    30   51   16 1    
    31   18   17 1    
    32   30   17 1    
    33   52   17 1    
    34   19   18 1    
    35   53   18 1    
    36   54   18 1    
    37   20   19 1    
    38   21   20 1    
    39   55   20 1    
    40   56   20 1    
    41   22   21 ar   
    42   29   21 ar   
    43   23   22 ar   
    44   57   22 1    
    45   24   23 1    
    46   27   23 ar   
    47   25   24 1    
    48   26   24 1    
    49   58   24 1    
    50   83   25 1    
    51   84   25 1    
    52   85   25 1    
    53   86   26 1    
    54   87   26 1    
    55   88   26 1    
    56   28   27 ar   
    57   59   27 1    
    58   29   28 ar   
    59   60   28 1    
    60   61   29 1    
    61   89   30 1    
    62   32   31 1    
    63   62   31 1    
    64   63   31 1    
    65   33   32 1    
    66   34   33 1    
    67   64   33 1    
    68   65   33 1    
    69   35   34 2    
    70   66   34 1    
    71   36   35 1    
    72   67   35 1    
    73   37   36 1    
    74   68   36 1    
    75   69   36 1    
    76   38   37 1    
    77   41   37 1    
    78   70   37 1    
    79   39   38 am   
    80   71   38 1    
    81   40   39 2    
    82   42   41 ar   
    83   46   41 ar   
    84   43   42 ar   
    85   72   42 1    
    86   44   43 ar   
    87   73   43 1    
    88   45   44 ar   
    89   74   44 1    
    90   46   45 ar   
    91   75   45 1    
    92   76   46 1    
@<TRIPOS>SUBSTRUCTURE
     1 0LG500      1 GROUP   
@<TRIPOS>SET

