#    Name: 1szg_FNS_1_INTS_M
#    Modification time : Tue Mar 25 04:00:43 2014

@<TRIPOS>MOLECULE
1szg_FNS_1_INTS_M
   96     0    12     0     0
SMALL
NO_CHARGES


@<TRIPOS>ATOM
      1 N          67.7740   50.1300   -2.4500 N.am      2 SEC2        0.0000 
      2 N          67.8970   51.3220   -2.0480 N.am     10 SEL2        0.0000 
      3 N          67.6510   48.9380   -2.8520 N.am      6 SEP2        0.0000 
      4 N          66.7960   51.5355   -1.1530 N.am      2 SEC2        0.0000 
      5 N          65.6950   51.7490   -0.2580 N.am      6 SEP2        0.0000 
      6 O          70.4990   52.0015   -2.3145 O.2       1 ALC1        0.0000 
      7 O          69.4150   53.0210   -2.7590 O.2       9 ALL1        0.0000 
      8 O          71.5830   50.9820   -1.8700 O.2       5 ALP1        0.0000 
      9 N          69.8805   53.8410   -4.4810 N.am      2 SEC2        0.0000 
     10 N          70.7960   54.6990   -3.2800 N.am     10 SEL2        0.0000 
     11 N          68.9650   52.9830   -5.6820 N.am      6 SEP2        0.0000 
     12 CA         69.6015   56.1850   -0.6305 C.3       4 GLC5        0.0000 
     13 CA         68.6160   55.2590   -2.3880 C.3      12 GLL5        0.0000 
     14 CA         70.5870   57.1110    1.1270 C.3       8 GLP5        0.0000 
     15 CA         67.3810   54.5035   -3.6465 C.3       4 GLC5        0.0000 
     16 CA         66.1460   53.7480   -4.9050 C.3       8 GLP5        0.0000 
     17 N          69.2440   54.2325   -5.4580 N.am      2 SEC2        0.0000 
     18 N          69.5230   55.4820   -5.2340 N.am     10 SEL2        0.0000 
     19 N          67.9150   55.2635   -4.9660 N.am      2 SEC2        0.0000 
     20 N          66.3070   55.0450   -4.6980 N.am      6 SEP2        0.0000 
     21 N          67.1110   56.2355   -4.8870 N.am      2 SEC2        0.0000 
     22 N          67.9150   57.4260   -5.0760 N.am     10 SEL2        0.0000 
     23 N          67.7195   58.9880   -4.8470 N.am      2 SEC2        0.0000 
     24 N          67.5240   60.5500   -4.6180 N.am      6 SEP2        0.0000 
     25 CA         69.1775   59.0910    0.2930 C.3       4 GLC5        0.0000 
     26 CA         68.0290   59.8370   -1.4320 C.3      12 GLL5        0.0000 
     27 CA         70.3260   58.3450    2.0180 C.3       8 GLP5        0.0000 
     28 CA         70.2105   61.5180   -2.4295 C.3       4 GLC5        0.0000 
     29 CA         68.4800   61.2840   -1.4780 C.3      12 GLL5        0.0000 
     30 CA         71.9410   61.7520   -3.3810 C.3       8 GLP5        0.0000 
     31 CA         68.2845   63.1340   -1.2005 C.3       4 GLC5        0.0000 
     32 CA         68.0890   64.9840   -0.9230 C.3       8 GLP5        0.0000 
     33 CA         68.7475   61.6475    0.4605 C.3       4 GLC5        0.0000 
     34 CA         69.0150   62.0110    2.3990 C.3       8 GLP5        0.0000 
     35 CA         65.4355   61.6860    1.1655 C.3       4 GLC5        0.0000 
     36 CA         66.2250   60.4900    0.1410 C.3      12 GLL5        0.0000 
     37 CA         64.6460   62.8820    2.1900 C.3       8 GLP5        0.0000 
     38 CA         67.6200   61.2505    1.2700 C.3       4 GLC5        0.0000 
     39 CA         65.3320   55.5760   -2.5390 C.3       4 GLC5        0.0000 
     40 CA         65.5870   55.5470   -0.6350 C.3      12 GLL5        0.0000 
     41 CA         65.0770   55.6050   -4.4430 C.3       8 GLP5        0.0000 
     42 CA         65.4705   52.9950    0.7960 C.3       4 GLC5        0.0000 
     43 CA         65.7100   55.2290    0.8150 C.3      12 GLL5        0.0000 
     44 CA         65.2310   50.7610    0.7770 C.3       8 GLP5        0.0000 
     45 N          66.1035   53.4495    2.1295 N.am      2 SEC2        0.0000 
     46 N          66.3360   53.9420    0.9520 N.am     10 SEL2        0.0000 
     47 N          65.8710   52.9570    3.3070 N.am      6 SEP2        0.0000 
     48 N          66.0155   52.8455    0.3470 N.am      2 SEC2        0.0000 
     49 O          67.4560   54.5415    1.0495 O.2       1 ALC1        0.0000 
     50 O          66.3360   53.9420    0.9520 O.2       9 ALL1        0.0000 
     51 O          68.5760   55.1410    1.1470 O.2       5 ALP1        0.0000 
     52 O          62.7915   53.5870    1.3860 O.2       1 ALC1        0.0000 
     53 O          63.4010   54.3210    0.6550 O.2       9 ALL1        0.0000 
     54 O          62.1820   52.8530    2.1170 O.2       5 ALP1        0.0000 
     55 CA         61.6825   54.7740    3.1830 C.3       4 GLC5        0.0000 
     56 CA         62.5850   56.4710    2.2720 C.3      12 GLL5        0.0000 
     57 CA         60.7800   53.0770    4.0940 C.3       8 GLP5        0.0000 
     58 CA         60.5570   56.5695    2.6675 C.3       4 GLC5        0.0000 
     59 CA         58.5290   56.6680    3.0630 C.3       8 GLP5        0.0000 
     60 NZ         62.7555   60.7725    1.2425 N.4       3 LYC4        0.0000 
     61 NZ         63.1380   59.5990    2.7680 N.4      11 LYL4        0.0000 
     62 NZ         62.3730   61.9460   -0.2830 N.4       7 LYP4        0.0000 
     63 N          64.0635   60.1305    3.6265 N.am      2 SEC2        0.0000 
     64 N          63.1380   59.5990    2.7680 N.am     10 SEL2        0.0000 
     65 N          64.9890   60.6620    4.4850 N.am      6 SEP2        0.0000 
     66 N          63.0910   58.0520    5.0660 N.am      2 SEC2        0.0000 
     67 N          61.8330   58.2160    4.5680 N.am     10 SEL2        0.0000 
     68 N          64.3490   57.8880    5.5640 N.am      6 SEP2        0.0000 
     69 NZ         60.5340   60.2740    3.8820 N.4       3 LYC4        0.0000 
     70 NZ         60.5580   59.5700    2.8220 N.4      11 LYL4        0.0000 
     71 NZ         60.0510   62.1050    5.4490 N.4       7 LYP4        0.0000 
     72 N          59.2065   59.1870    3.4040 N.am      2 SEC2        0.0000 
     73 N          60.5580   59.5700    2.8220 N.am     10 SEL2        0.0000 
     74 N          57.8550   58.8040    3.9860 N.am      6 SEP2        0.0000 
     75 N          60.5340   60.2740    3.8820 N.am      2 SEC2        0.0000 
     76 N          60.5100   60.9780    4.9420 N.am      6 SEP2        0.0000 
     77 N          59.6415   59.5885    1.7230 N.am      2 SEC2        0.0000 
     78 N          58.7250   59.6070    0.6240 N.am      6 SEP2        0.0000 
     79 CA         66.7570   58.8002   -2.9530 C.3       4 GLC5        0.0000 
     80 CA         68.2740   57.5680   -1.9240 C.3      12 GLL5        0.0000 
     81 CA         65.0090   59.4000   -3.9120 C.3       8 GLP5        0.0000 
     82 CA         65.9273   59.7379   -2.1876 C.3       4 GLC5        0.0000 
     83 CA         67.7570   58.6662    1.1760 C.3       4 GLC5        0.0000 
     84 CA         66.9030   59.4860   -0.7030 C.3      12 GLL5        0.0000 
     85 CA         68.9970   58.2370    2.7720 C.3       8 GLP5        0.0000 
     86 CA         65.9133   58.5545   -2.3872 C.3       4 GLC5        0.0000 
     87 CA         66.4700   58.2030   -0.5590 C.3      12 GLL5        0.0000 
     88 CA         69.2110   57.4094   -0.2265 C.3       4 GLC5        0.0000 
     89 CA         67.1650   57.2150   -1.1660 C.3      12 GLL5        0.0000 
     90 CA         65.4605   54.5065    2.7722 C.3       4 GLC5        0.0000 
     91 CA         65.9120   53.7940    4.4520 C.3       8 GLP5        0.0000 
     92 CA         61.9417   57.1532    0.3465 C.3       4 GLC5        0.0000 
     93 CA         63.7020   56.5860    1.3180 C.3      12 GLL5        0.0000 
     94 CA         60.7400   57.7780   -1.1020 C.3       8 GLP5        0.0000 
     95 CA         64.3088   57.4368    3.2910 C.3       4 GLC5        0.0000 
     96 CA         65.4740   58.3450    4.7870 C.3       8 GLP5        0.0000 
@<TRIPOS>BOND
@<TRIPOS>SUBSTRUCTURE
     1 ALC1        6 GROUP        1 X    ALC  0     ROOT ALC X 1
     2 SEC2        1 GROUP        1 X    SEC  0     **** SEC X 2
     3 LYC4       60 GROUP        1 X    LYC  0     **** LYC X 4
     4 GLC5       12 GROUP        1 X    GLC  0     **** GLC X 6
     5 ALP1        8 GROUP        1 Y    ALP  0     ROOT ALP Y 8
     6 SEP2        3 GROUP        1 Y    SEP  0     **** SEP Y 9
     7 LYP4       62 GROUP        1 Y    LYP  0     **** LYP Y 11
     8 GLP5       14 GROUP        1 Y    GLP  0     **** GLP Y 13
     9 ALL1        7 GROUP        1 Z    ALL  0     ROOT ALL Z 15
    10 SEL2        2 GROUP        1 Z    SEL  0     **** SEL Z 16
    11 LYL4       61 GROUP        1 Z    LYL  0     **** LYL Z 18
    12 GLL5       13 GROUP        1 Z    GLL  0     **** GLL Z 20
@<TRIPOS>SET

