#    Name: 1szg_FNS_1_ligand
#    Modification time : Tue Mar 25 04:00:44 2014

@<TRIPOS>MOLECULE
1szg_FNS_1_ligand
   54    56     1     0     0
SMALL
NO_CHARGES


@<TRIPOS>ATOM
      1 N1         67.3680   53.4890   -1.6270 N.2       1 FNS5570     0.0000 
      2 C2         68.2130   52.5210   -2.1510 C.2       1 FNS5570     0.0000 
      3 O2         67.8970   51.3220   -2.0480 O.2       1 FNS5570     0.0000 
      4 N3         69.4150   53.0210   -2.7590 N.am      1 FNS5570     0.0000 
      5 C4         69.6930   54.3820   -2.8150 C.2       1 FNS5570     0.0000 
      6 O4         70.7960   54.6990   -3.2800 O.2       1 FNS5570     0.0000 
      7 C4A        68.6160   55.2590   -2.3880 C.2       1 FNS5570     0.0000 
      8 N5         68.7930   56.5550   -2.6190 N.pl3     1 FNS5570     0.0000 
      9 S          69.2660   56.8120   -4.3610 S.o2      1 FNS5570     0.0000 
     10 O1S        70.3180   57.9480   -4.6400 O.co2     1 FNS5570     0.0000 
     11 O2S        69.5230   55.4820   -5.2340 O.co2     1 FNS5570     0.0000 
     12 O3S        67.9150   57.4260   -5.0760 O.co2     1 FNS5570     0.0000 
     13 C5A        68.2740   57.5680   -1.9240 C.ar      1 FNS5570     0.0000 
     14 C6         68.7360   58.8330   -2.0640 C.ar      1 FNS5570     0.0000 
     15 C7         68.0290   59.8370   -1.4320 C.ar      1 FNS5570     0.0000 
     16 C7M        68.4800   61.2840   -1.4780 C.3       1 FNS5570     0.0000 
     17 C8         66.9030   59.4860   -0.7030 C.ar      1 FNS5570     0.0000 
     18 C8M        66.2250   60.4900    0.1410 C.3       1 FNS5570     0.0000 
     19 C9         66.4700   58.2030   -0.5590 C.ar      1 FNS5570     0.0000 
     20 C9A        67.1650   57.2150   -1.1660 C.ar      1 FNS5570     0.0000 
     21 N10        66.7800   55.8510   -1.0980 N.pl3     1 FNS5570     0.0000 
     22 C10        67.5570   54.8430   -1.6270 C.2       1 FNS5570     0.0000 
     23 C1'        65.5870   55.5470   -0.6350 C.3       1 FNS5570     0.0000 
     24 C2'        65.7100   55.2290    0.8150 C.3       1 FNS5570     0.0000 
     25 O2'        66.3360   53.9420    0.9520 O.3       1 FNS5570     0.0000 
     26 C3'        64.3080   55.2090    1.3700 C.3       1 FNS5570     0.0000 
     27 O3'        63.4010   54.3210    0.6550 O.3       1 FNS5570     0.0000 
     28 C4'        63.7020   56.5860    1.3180 C.3       1 FNS5570     0.0000 
     29 O4'        64.5740   57.6910    1.6550 O.3       1 FNS5570     0.0000 
     30 C5'        62.5850   56.4710    2.2720 C.3       1 FNS5570     0.0000 
     31 O5'        61.7990   57.6000    2.0910 O.3       1 FNS5570     0.0000 
     32 P          61.8570   58.8610    3.1550 P.3       1 FNS5570     0.0000 
     33 O1P        63.1380   59.5990    2.7680 O.co2     1 FNS5570     0.0000 
     34 O2P        61.8330   58.2160    4.5680 O.co2     1 FNS5570     0.0000 
     35 O3P        60.5580   59.5700    2.8220 O.co2     1 FNS5570     0.0000 
     36 H          70.0765   52.3361   -3.1589 H         1 FNS5570     0.0000 
     37 H          69.5673   59.0482   -2.6088 H         1 FNS5570     0.0000 
     38 H          65.6314   57.9947    0.0007 H         1 FNS5570     0.0000 
     39 H          65.1242   54.6632   -1.1220 H         1 FNS5570     0.0000 
     40 H          64.8442   56.3672   -0.7245 H         1 FNS5570     0.0000 
     41 H          66.2653   55.9989    1.2956 H         1 FNS5570     0.0000 
     42 H          64.3494   54.9167    2.4220 H         1 FNS5570     0.0000 
     43 H          63.2612   56.7081    0.3263 H         1 FNS5570     0.0000 
     44 H          62.9924   56.4074    3.2845 H         1 FNS5570     0.0000 
     45 H          62.0384   55.5475    2.0637 H         1 FNS5570     0.0000 
     46 H          69.3884   61.4028   -1.0771 H         1 FNS5570     0.0000 
     47 H          68.5260   61.6291   -2.4155 H         1 FNS5570     0.0000 
     48 H          67.8570   61.8833   -0.9753 H         1 FNS5570     0.0000 
     49 H          66.8345   60.8572    0.8436 H         1 FNS5570     0.0000 
     50 H          65.8964   61.2664   -0.3968 H         1 FNS5570     0.0000 
     51 H          65.4324   60.1041    0.6131 H         1 FNS5570     0.0000 
     52 H          67.3110   54.1384    1.0563 H         1 FNS5570     0.0000 
     53 H          63.3643   53.4887    1.2081 H         1 FNS5570     0.0000 
     54 H          63.9724   58.3828    2.0543 H         1 FNS5570     0.0000 
@<TRIPOS>BOND
     1    2    1 1    
     2   22    1 2    
     3    3    2 2    
     4    4    2 am   
     5    5    4 am   
     6   36    4 1    
     7    6    5 2    
     8    7    5 1    
     9    8    7 2    
    10   22    7 1    
    11    9    8 1    
    12   13    8 1    
    13   10    9 ar   
    14   11    9 ar   
    15   12    9 ar   
    16   14   13 ar   
    17   20   13 ar   
    18   15   14 ar   
    19   37   14 1    
    20   16   15 1    
    21   17   15 ar   
    22   46   16 1    
    23   47   16 1    
    24   48   16 1    
    25   18   17 1    
    26   19   17 ar   
    27   49   18 1    
    28   50   18 1    
    29   51   18 1    
    30   20   19 ar   
    31   38   19 1    
    32   21   20 1    
    33   22   21 1    
    34   23   21 1    
    35   24   23 1    
    36   39   23 1    
    37   40   23 1    
    38   25   24 1    
    39   26   24 1    
    40   41   24 1    
    41   52   25 1    
    42   27   26 1    
    43   28   26 1    
    44   42   26 1    
    45   53   27 1    
    46   29   28 1    
    47   30   28 1    
    48   43   28 1    
    49   54   29 1    
    50   31   30 1    
    51   44   30 1    
    52   45   30 1    
    53   32   31 1    
    54   33   32 ar   
    55   34   32 ar   
    56   35   32 ar   
@<TRIPOS>SUBSTRUCTURE
     1 FNS5570     1 GROUP   
@<TRIPOS>SET

