#    Name: 3awi_FAD_2_INTS_M
#    Modification time : Mon Mar 24 18:18:40 2014

@<TRIPOS>MOLECULE
3awi_FAD_2_INTS_M
  104     0     9     0     0
SMALL
NO_CHARGES


@<TRIPOS>ATOM
      1 N          76.1870   95.0135   74.9860 N.am      2 SEC2        0.0000 
      2 N          77.0010   96.2080   74.7970 N.am      8 SEL2        0.0000 
      3 N          75.3730   93.8190   75.1750 N.am      5 SEP2        0.0000 
      4 N          74.5305   95.1675   72.9450 N.am      2 SEC2        0.0000 
      5 N          75.6060   96.2270   72.7130 N.am      8 SEL2        0.0000 
      6 N          73.4550   94.1080   73.1770 N.am      5 SEP2        0.0000 
      7 N          74.4175   96.2730   72.0220 N.am      2 SEC2        0.0000 
      8 N          73.2290   96.3190   71.3310 N.am      5 SEP2        0.0000 
      9 CA         79.0890   98.5875   74.5585 C.3       3 GLC5        0.0000 
     10 CA         79.2890   97.1980   73.0330 C.3       9 GLL5        0.0000 
     11 CA         78.8890   99.9770   76.0840 C.3       6 GLP5        0.0000 
     12 CA         81.0785   97.8795   70.7015 C.3       3 GLC5        0.0000 
     13 CA         80.2770   96.6320   72.0330 C.3       9 GLL5        0.0000 
     14 CA         81.8800   99.1270   69.3700 C.3       6 GLP5        0.0000 
     15 O          82.0590   92.6035   71.8655 O.2       1 ALC1        0.0000 
     16 O          82.4810   93.8560   71.8070 O.2       7 ALL1        0.0000 
     17 O          81.6370   91.3510   71.9240 O.2       4 ALP1        0.0000 
     18 CA         82.2100   97.6630   70.7910 C.3       3 GLC5        0.0000 
     19 CA         82.5400   96.1990   72.2120 C.3       9 GLL5        0.0000 
     20 CA         82.8885   98.1220   73.0465 C.3       3 GLC5        0.0000 
     21 CA         83.2370  100.0450   73.8810 C.3       6 GLP5        0.0000 
     22 CA         88.5120   96.3560   72.8380 C.3       3 GLC5        0.0000 
     23 CA         87.0190   97.4590   73.6070 C.3       9 GLL5        0.0000 
     24 CA         90.0050   95.2530   72.0690 C.3       6 GLP5        0.0000 
     25 CA         88.6255   98.7400   73.0395 C.3       3 GLC5        0.0000 
     26 CA         90.2320  100.0210   72.4720 C.3       6 GLP5        0.0000 
     27 O          89.0975   98.5785   74.8465 O.2       1 ALC1        0.0000 
     28 O          87.6230   98.2410   74.4960 O.2       7 ALL1        0.0000 
     29 O          90.5720   98.9160   75.1970 O.2       4 ALP1        0.0000 
     30 N          88.9025   97.5015   72.4765 N.am      2 SEC2        0.0000 
     31 N          87.5400   97.4150   72.3340 N.am      8 SEL2        0.0000 
     32 N          90.2650   97.5880   72.6190 N.am      5 SEP2        0.0000 
     33 CA         86.4850   98.7070   71.2575 C.3       3 GLC5        0.0000 
     34 CA         86.7580   97.0840   71.2460 C.3       9 GLL5        0.0000 
     35 CA         86.2120  100.3300   71.2690 C.3       6 GLP5        0.0000 
     36 CA         86.0275   96.1850   69.7365 C.3       3 GLC5        0.0000 
     37 CA         85.2970   95.2860   68.2270 C.3       6 GLP5        0.0000 
     38 CA         86.6085   95.3525   71.9340 C.3       3 GLC5        0.0000 
     39 CA         86.4590   93.6210   72.6220 C.3       6 GLP5        0.0000 
     40 CA         88.3815   96.1685   71.6575 C.3       3 GLC5        0.0000 
     41 N          85.6555   95.4770   70.8670 N.am      2 SEC2        0.0000 
     42 N          85.4300   96.7860   71.4270 N.am      8 SEL2        0.0000 
     43 N          85.8810   94.1680   70.3070 N.am      5 SEP2        0.0000 
     44 N          66.1485   99.4765   72.9280 N.am      2 SEC2        0.0000 
     45 N          65.2810   98.6620   73.6040 N.am      8 SEL2        0.0000 
     46 N          67.0160  100.2910   72.2520 N.am      5 SEP2        0.0000 
     47 O          63.2800   97.4670   74.2875 O.2       1 ALC1        0.0000 
     48 O          64.4500   97.1650   75.0640 O.2       7 ALL1        0.0000 
     49 O          62.1100   97.7690   73.5110 O.2       4 ALP1        0.0000 
     50 N          62.8230   95.3085   75.1180 N.am      2 SEC2        0.0000 
     51 N          63.7240   95.6410   76.5560 N.am      8 SEL2        0.0000 
     52 N          61.9220   94.9760   73.6800 N.am      5 SEP2        0.0000 
     53 CA         69.5160   94.9970   80.1295 C.3       3 GLC5        0.0000 
     54 CA         69.0760   93.1990   78.8880 C.3       9 GLL5        0.0000 
     55 CA         69.9560   96.7950   81.3710 C.3       6 GLP5        0.0000 
     56 CA         70.1310   91.5885   81.6635 C.3       3 GLC5        0.0000 
     57 CA         69.3150   92.1370   79.9210 C.3       9 GLL5        0.0000 
     58 CA         70.9470   91.0400   83.4060 C.3       6 GLP5        0.0000 
     59 CA         72.7250   94.4330   77.4385 C.3       3 GLC5        0.0000 
     60 CA         71.5500   93.4420   78.6170 C.3       9 GLL5        0.0000 
     61 CA         73.9000   95.4240   76.2600 C.3       6 GLP5        0.0000 
     62 CA         73.0080   92.2650   78.8320 C.3       3 GLC5        0.0000 
     63 CA         74.4660   91.0880   79.0470 C.3       6 GLP5        0.0000 
     64 CA         71.9050   95.1170   76.7795 C.3       3 GLC5        0.0000 
     65 CA         69.9100   94.8100   77.2990 C.3       9 GLL5        0.0000 
     66 CA         68.8135   98.5970   77.5860 C.3       3 GLC5        0.0000 
     67 CA         70.0800   97.9780   76.0790 C.3       9 GLL5        0.0000 
     68 CA         67.5470   99.2160   79.0930 C.3       6 GLP5        0.0000 
     69 CA         69.3290   99.6780   74.9280 C.3       3 GLC5        0.0000 
     70 CA         68.5780  101.3780   73.7770 C.3       6 GLP5        0.0000 
     71 N          68.6100  100.1590   75.2955 N.am      2 SEC2        0.0000 
     72 N          69.4570   99.1590   75.6310 N.am      8 SEL2        0.0000 
     73 N          67.7630  101.1590   74.9600 N.am      5 SEP2        0.0000 
     74 O          71.1950   99.2970   77.6070 O.2       1 ALC1        0.0000 
     75 O          72.1450   99.0580   76.6590 O.2       7 ALL1        0.0000 
     76 O          70.2450   99.5360   78.5550 O.2       4 ALP1        0.0000 
     77 O          72.7375   96.6815   72.5650 O.2       1 ALC1        0.0000 
     78 O          72.2460   97.0440   73.7990 O.2       7 ALL1        0.0000 
     79 O          73.2290   96.3190   71.3310 O.2       4 ALP1        0.0000 
     80 N          75.1880  100.0800   70.2565 N.am      2 SEC2        0.0000 
     81 N          75.8430   99.4210   71.5310 N.am      8 SEL2        0.0000 
     82 N          74.5330  100.7390   68.9820 N.am      5 SEP2        0.0000 
     83 CA         78.2375   96.9640   71.0005 C.3       3 GLC5        0.0000 
     84 CA         76.6920   97.0130   69.4680 C.3       6 GLP5        0.0000 
     85 CA         80.7595   98.5760   73.0595 C.3       3 GLC5        0.0000 
     86 CA         81.7360  100.2370   73.5860 C.3       6 GLP5        0.0000 
     87 CA         80.1820   96.0545   69.9575 C.3       3 GLC5        0.0000 
     88 CA         80.0160   96.2290   67.8260 C.3       6 GLP5        0.0000 
     89 CA         84.2640   98.5157   73.5538 C.3       3 GLC5        0.0000 
     90 CA         85.6750   97.1510   73.7810 C.3       9 GLL5        0.0000 
     91 CA         85.9195   98.6967   72.2260 C.3       3 GLC5        0.0000 
     92 CA         86.0430   95.3422   72.9025 C.3       3 GLC5        0.0000 
     93 CA         67.8676   91.1940   79.1243 C.3       3 GLC5        0.0000 
     94 CA         66.8650   89.6310   78.9280 C.3       6 GLP5        0.0000 
     95 CA         70.8280   95.5564   79.2396 C.3       3 GLC5        0.0000 
     96 CA         70.1460   93.8290   78.2620 C.3       9 GLL5        0.0000 
     97 CA         71.2770   96.8900   80.6100 C.3       6 GLP5        0.0000 
     98 CA         72.3798   98.8995   72.3390 C.3       3 GLC5        0.0000 
     99 CA         71.9720   98.2770   74.4120 C.3       9 GLL5        0.0000 
    100 CA         72.1680   99.0820   70.3130 C.3       6 GLP5        0.0000 
    101 CA         72.1927  100.6690   74.8210 C.3       3 GLC5        0.0000 
    102 CA         73.2110   99.1570   74.3180 C.3       9 GLL5        0.0000 
    103 CA         71.7940  102.6210   75.2770 C.3       6 GLP5        0.0000 
    104 CA         73.1983   97.0404   75.4944 C.3       3 GLC5        0.0000 
@<TRIPOS>BOND
@<TRIPOS>SUBSTRUCTURE
     1 ALC1       15 GROUP        1 X    ALC  0     ROOT ALC X 1
     2 SEC2        1 GROUP        1 X    SEC  0     **** SEC X 2
     3 GLC5        9 GROUP        1 X    GLC  0     **** GLC X 6
     4 ALP1       17 GROUP        1 Y    ALP  0     ROOT ALP Y 8
     5 SEP2        3 GROUP        1 Y    SEP  0     **** SEP Y 9
     6 GLP5       11 GROUP        1 Y    GLP  0     **** GLP Y 13
     7 ALL1       16 GROUP        1 Z    ALL  0     ROOT ALL Z 15
     8 SEL2        2 GROUP        1 Z    SEL  0     **** SEL Z 16
     9 GLL5       10 GROUP        1 Z    GLL  0     **** GLL Z 20
@<TRIPOS>SET

