#    Name: 3awi_FAD_2_ligand
#    Modification time : Mon Mar 24 18:18:40 2014

@<TRIPOS>MOLECULE
3awi_FAD_2_ligand
   84    89     1     0     0
SMALL
NO_CHARGES


@<TRIPOS>ATOM
      1 PA         76.7160   96.8930   73.4810 P.3       1 FAD901      0.0000 
      2 O1A        77.0010   96.2080   74.7970 O.co2     1 FAD901      0.0000 
      3 O2A        75.6060   96.2270   72.7130 O.co2     1 FAD901      0.0000 
      4 O5B        78.0040   96.9290   72.5330 O.3       1 FAD901      0.0000 
      5 C5B        79.2890   97.1980   73.0330 C.3       1 FAD901      0.0000 
      6 C4B        80.2770   96.6320   72.0330 C.3       1 FAD901      0.0000 
      7 O4B        81.5410   97.1920   72.2760 O.3       1 FAD901      0.0000 
      8 C3B        80.4190   95.1280   72.1450 C.3       1 FAD901      0.0000 
      9 O3B        80.1340   94.5830   70.8770 O.3       1 FAD901      0.0000 
     10 C2B        81.8670   94.8880   72.5530 C.3       1 FAD901      0.0000 
     11 O2B        82.4810   93.8560   71.8070 O.3       1 FAD901      0.0000 
     12 C1B        82.5400   96.1990   72.2120 C.3       1 FAD901      0.0000 
     13 N9A        83.6440   96.5640   73.1130 N.pl3     1 FAD901      0.0000 
     14 C8A        83.6280   96.7470   74.4750 C.2       1 FAD901      0.0000 
     15 N7A        84.8730   97.1030   74.8730 N.2       1 FAD901      0.0000 
     16 C5A        85.6750   97.1510   73.7810 C.ar      1 FAD901      0.0000 
     17 C6A        87.0190   97.4590   73.6070 C.ar      1 FAD901      0.0000 
     18 N6A        87.6230   98.2410   74.4960 N.pl3     1 FAD901      0.0000 
     19 N1A        87.5400   97.4150   72.3340 N.ar      1 FAD901      0.0000 
     20 C2A        86.7580   97.0840   71.2460 C.ar      1 FAD901      0.0000 
     21 N3A        85.4300   96.7860   71.4270 N.ar      1 FAD901      0.0000 
     22 C4A        84.9070   96.8220   72.6720 C.ar      1 FAD901      0.0000 
     23 N1         66.8070   97.4540   74.7490 N.2       1 FAD901      0.0000 
     24 C2         65.5050   97.7930   74.4390 C.2       1 FAD901      0.0000 
     25 O2         65.2810   98.6620   73.6040 O.2       1 FAD901      0.0000 
     26 N3         64.4500   97.1650   75.0640 N.am      1 FAD901      0.0000 
     27 C4         64.6810   96.1910   76.0060 C.2       1 FAD901      0.0000 
     28 O4         63.7240   95.6410   76.5560 O.2       1 FAD901      0.0000 
     29 C4X        65.9920   95.8470   76.3260 C.2       1 FAD901      0.0000 
     30 N5         66.2430   94.8790   77.2720 N.2       1 FAD901      0.0000 
     31 C5X        67.5380   94.5340   77.5920 C.ar      1 FAD901      0.0000 
     32 C6         67.7750   93.5550   78.5520 C.ar      1 FAD901      0.0000 
     33 C7         69.0760   93.1990   78.8880 C.ar      1 FAD901      0.0000 
     34 C7M        69.3150   92.1370   79.9210 C.3       1 FAD901      0.0000 
     35 C8         70.1460   93.8290   78.2620 C.ar      1 FAD901      0.0000 
     36 C8M        71.5500   93.4420   78.6170 C.3       1 FAD901      0.0000 
     37 C9         69.9100   94.8100   77.2990 C.ar      1 FAD901      0.0000 
     38 C9A        68.6040   95.1650   76.9610 C.ar      1 FAD901      0.0000 
     39 N10        68.3580   96.1440   76.0140 N.pl3     1 FAD901      0.0000 
     40 C10        67.0560   96.4800   75.6950 C.2       1 FAD901      0.0000 
     41 C1'        69.4980   96.8180   75.3040 C.3       1 FAD901      0.0000 
     42 C2'        70.0800   97.9780   76.0790 C.3       1 FAD901      0.0000 
     43 O2'        69.4570   99.1590   75.6310 O.3       1 FAD901      0.0000 
     44 C3'        71.5920   98.0360   75.8670 C.3       1 FAD901      0.0000 
     45 O3'        72.1450   99.0580   76.6590 O.3       1 FAD901      0.0000 
     46 C4'        71.9720   98.2770   74.4120 C.3       1 FAD901      0.0000 
     47 O4'        72.2460   97.0440   73.7990 O.3       1 FAD901      0.0000 
     48 C5'        73.2110   99.1570   74.3180 C.3       1 FAD901      0.0000 
     49 O5'        73.9530   98.8330   73.1620 O.3       1 FAD901      0.0000 
     50 P          75.4470   99.4070   72.9890 P.3       1 FAD901      0.0000 
     51 O1P        75.8430   99.4210   71.5310 O.co2     1 FAD901      0.0000 
     52 O2P        75.5500  100.7790   73.6050 O.co2     1 FAD901      0.0000 
     53 O3P        76.3980   98.4270   73.8450 O.3       1 FAD901      0.0000 
     54 H          79.4709   96.7178   73.9930 H         1 FAD901      0.0000 
     55 H          79.4830   98.2650   73.1293 H         1 FAD901      0.0000 
     56 H          79.9354   96.8682   71.0362 H         1 FAD901      0.0000 
     57 H          79.7785   94.7879   72.9117 H         1 FAD901      0.0000 
     58 H          81.9106   94.7568   73.5994 H         1 FAD901      0.0000 
     59 H          82.9118   96.1227   71.1893 H         1 FAD901      0.0000 
     60 H          82.8590   96.6382   75.0387 H         1 FAD901      0.0000 
     61 H          88.5901   98.4327   74.3283 H         1 FAD901      0.0000 
     62 H          87.0559   98.5671   75.2523 H         1 FAD901      0.0000 
     63 H          87.1725   97.0615   70.3021 H         1 FAD901      0.0000 
     64 H          63.4785   97.4291   74.8219 H         1 FAD901      0.0000 
     65 H          66.9800   93.0910   79.0168 H         1 FAD901      0.0000 
     66 H          70.7030   95.2741   76.8356 H         1 FAD901      0.0000 
     67 H          69.1527   97.1806   74.3206 H         1 FAD901      0.0000 
     68 H          70.2952   96.0799   75.1101 H         1 FAD901      0.0000 
     69 H          69.8930   97.8031   77.1290 H         1 FAD901      0.0000 
     70 H          72.0035   97.0646   76.1579 H         1 FAD901      0.0000 
     71 H          71.1566   98.7891   73.9291 H         1 FAD901      0.0000 
     72 H          73.7951   99.0077   75.2390 H         1 FAD901      0.0000 
     73 H          72.8743  100.2050   74.3125 H         1 FAD901      0.0000 
     74 H          70.2907   91.9732   80.0664 H         1 FAD901      0.0000 
     75 H          68.9244   92.3863   80.8072 H         1 FAD901      0.0000 
     76 H          68.9073   91.2631   79.6564 H         1 FAD901      0.0000 
     77 H          72.2230   93.9673   78.0963 H         1 FAD901      0.0000 
     78 H          71.7440   93.5959   79.5859 H         1 FAD901      0.0000 
     79 H          71.7266   92.4751   78.4327 H         1 FAD901      0.0000 
     80 H          81.0130   94.2513   70.5345 H         1 FAD901      0.0000 
     81 H          81.9949   93.0225   72.0697 H         1 FAD901      0.0000 
     82 H          70.2023   99.8147   75.5097 H         1 FAD901      0.0000 
     83 H          71.4621   99.2340   77.3680 H         1 FAD901      0.0000 
     84 H          72.5765   97.2775   72.8845 H         1 FAD901      0.0000 
@<TRIPOS>BOND
     1    2    1 ar   
     2    3    1 ar   
     3    4    1 1    
     4   53    1 1    
     5    5    4 1    
     6    6    5 1    
     7   54    5 1    
     8   55    5 1    
     9    7    6 1    
    10    8    6 1    
    11   56    6 1    
    12   12    7 1    
    13    9    8 1    
    14   10    8 1    
    15   57    8 1    
    16   80    9 1    
    17   11   10 1    
    18   12   10 1    
    19   58   10 1    
    20   81   11 1    
    21   13   12 1    
    22   59   12 1    
    23   14   13 1    
    24   22   13 1    
    25   15   14 2    
    26   60   14 1    
    27   16   15 1    
    28   17   16 ar   
    29   22   16 ar   
    30   18   17 1    
    31   19   17 ar   
    32   61   18 1    
    33   62   18 1    
    34   20   19 ar   
    35   21   20 ar   
    36   63   20 1    
    37   22   21 ar   
    38   24   23 1    
    39   40   23 2    
    40   25   24 2    
    41   26   24 am   
    42   27   26 am   
    43   64   26 1    
    44   28   27 2    
    45   29   27 1    
    46   30   29 2    
    47   40   29 1    
    48   31   30 1    
    49   32   31 ar   
    50   38   31 ar   
    51   33   32 ar   
    52   65   32 1    
    53   34   33 1    
    54   35   33 ar   
    55   74   34 1    
    56   75   34 1    
    57   76   34 1    
    58   36   35 1    
    59   37   35 ar   
    60   77   36 1    
    61   78   36 1    
    62   79   36 1    
    63   38   37 ar   
    64   66   37 1    
    65   39   38 1    
    66   40   39 1    
    67   41   39 1    
    68   42   41 1    
    69   67   41 1    
    70   68   41 1    
    71   43   42 1    
    72   44   42 1    
    73   69   42 1    
    74   82   43 1    
    75   45   44 1    
    76   46   44 1    
    77   70   44 1    
    78   83   45 1    
    79   47   46 1    
    80   48   46 1    
    81   71   46 1    
    82   84   47 1    
    83   49   48 1    
    84   72   48 1    
    85   73   48 1    
    86   50   49 1    
    87   51   50 ar   
    88   52   50 ar   
    89   53   50 1    
@<TRIPOS>SUBSTRUCTURE
     1 FAD901      1 GROUP   
@<TRIPOS>SET

