#    Name: 3ant_S82_2_INTS_M
#    Modification time : Mon Mar 24 17:56:46 2014

@<TRIPOS>MOLECULE
3ant_S82_2_INTS_M
   53     0     9     0     0
SMALL
NO_CHARGES


@<TRIPOS>ATOM
      1 O          52.8910   56.4825   77.4505 O.2       1 ALC1        0.0000 
      2 O          54.2510   56.9210   77.3190 O.2       7 ALL1        0.0000 
      3 O          51.5310   56.0440   77.5820 O.2       4 ALP1        0.0000 
      4 CA         56.5350   58.4070   76.6755 C.3       3 GLC5        0.0000 
      5 CA         54.6290   58.1880   77.8390 C.3       9 GLL5        0.0000 
      6 CA         58.4410   58.6260   75.5120 C.3       6 GLP5        0.0000 
      7 CA         55.4820   57.2270   80.7370 C.3       3 GLC5        0.0000 
      8 CA         54.7190   58.4660   79.3050 C.3       9 GLL5        0.0000 
      9 CA         56.2450   55.9880   82.1690 C.3       6 GLP5        0.0000 
     10 CA         59.7985   61.0890   81.6680 C.3       3 GLC5        0.0000 
     11 CA         58.1250   60.4860   80.8430 C.3       9 GLL5        0.0000 
     12 CA         61.4720   61.6920   82.4930 C.3       6 GLP5        0.0000 
     13 CA         54.9510   58.6625   82.8795 C.3       3 GLC5        0.0000 
     14 CA         55.9910   59.4680   81.1710 C.3       9 GLL5        0.0000 
     15 CA         53.9110   57.8570   84.5880 C.3       6 GLP5        0.0000 
     16 N          56.8275   57.1870   75.9120 N.am      2 SEC2        0.0000 
     17 N          56.3720   56.3020   76.8060 N.am      8 SEL2        0.0000 
     18 N          57.2830   58.0720   75.0180 N.am      5 SEP2        0.0000 
     19 N          56.6585   55.8365   77.9405 N.am      2 SEC2        0.0000 
     20 N          56.9450   55.3710   79.0750 N.am      5 SEP2        0.0000 
     21 CA         56.2270   52.1250   75.4605 C.3       3 GLC5        0.0000 
     22 CA         55.8330   53.6720   74.5210 C.3       9 GLL5        0.0000 
     23 CA         56.6210   50.5780   76.4000 C.3       6 GLP5        0.0000 
     24 CA         51.6425   55.8525   74.7845 C.3       3 GLC5        0.0000 
     25 CA         53.4060   54.9490   75.4880 C.3       9 GLL5        0.0000 
     26 CA         49.8790   56.7560   74.0810 C.3       6 GLP5        0.0000 
     27 CA         55.1725   56.0410   69.1110 C.3       3 GLC5        0.0000 
     28 CA         54.0540   54.2130   69.0480 C.3       9 GLL5        0.0000 
     29 CA         56.2910   57.8690   69.1740 C.3       6 GLP5        0.0000 
     30 CA         53.1675   55.5825   68.5130 C.3       3 GLC5        0.0000 
     31 CA         52.2810   56.9520   67.9780 C.3       6 GLP5        0.0000 
     32 CA         51.5530   50.8300   69.9945 C.3       3 GLC5        0.0000 
     33 CA         52.2390   52.5420   68.9590 C.3       9 GLL5        0.0000 
     34 CA         50.8670   49.1180   71.0300 C.3       6 GLP5        0.0000 
     35 CA         50.5365   53.5275   68.5320 C.3       3 GLC5        0.0000 
     36 CA         48.8340   54.5130   68.1050 C.3       6 GLP5        0.0000 
     37 CA         51.7850   53.0230   66.9095 C.3       3 GLC5        0.0000 
     38 CA         51.3310   53.5040   64.8600 C.3       6 GLP5        0.0000 
     39 CA         53.6298   59.7160   76.4252 C.3       3 GLC5        0.0000 
     40 CA         53.0980   60.7530   74.6930 C.3       6 GLP5        0.0000 
     41 CA         52.2963   58.7455   77.8273 C.3       3 GLC5        0.0000 
     42 CA         53.6940   59.1700   78.4760 C.3       9 GLL5        0.0000 
     43 CA         50.4310   58.8120   77.4970 C.3       6 GLP5        0.0000 
     44 CA         57.6059   61.9465   79.2991 C.3       3 GLC5        0.0000 
     45 CA         57.4020   63.7110   78.5480 C.3       6 GLP5        0.0000 
     46 CA         56.7416   61.2828   82.4686 C.3       3 GLC5        0.0000 
     47 CA         56.6830   62.6810   83.7220 C.3       6 GLP5        0.0000 
     48 CA         57.0770   54.3323   76.0140 C.3       3 GLC5        0.0000 
     49 CA         55.6190   55.1650   74.4470 C.3       9 GLL5        0.0000 
     50 CA         58.4280   54.2460   77.5440 C.3       6 GLP5        0.0000 
     51 CA         54.8428   52.1060   76.1500 C.3       3 GLC5        0.0000 
     52 CA         54.5110   52.9390   74.4580 C.3       9 GLL5        0.0000 
     53 CA         55.6460   51.0200   77.3030 C.3       6 GLP5        0.0000 
@<TRIPOS>BOND
@<TRIPOS>SUBSTRUCTURE
     1 ALC1        1 GROUP        1 X    ALC  0     ROOT ALC X 1
     2 SEC2       16 GROUP        1 X    SEC  0     **** SEC X 2
     3 GLC5        4 GROUP        1 X    GLC  0     **** GLC X 6
     4 ALP1        3 GROUP        1 Y    ALP  0     ROOT ALP Y 8
     5 SEP2       18 GROUP        1 Y    SEP  0     **** SEP Y 9
     6 GLP5        6 GROUP        1 Y    GLP  0     **** GLP Y 13
     7 ALL1        2 GROUP        1 Z    ALL  0     ROOT ALL Z 15
     8 SEL2       17 GROUP        1 Z    SEL  0     **** SEL Z 16
     9 GLL5        5 GROUP        1 Z    GLL  0     **** GLL Z 20
@<TRIPOS>SET

