#    Name: 3ant_S82_2_ligand
#    Modification time : Mon Mar 24 17:56:46 2014

@<TRIPOS>MOLECULE
3ant_S82_2_ligand
   52    55     1     0     0
SMALL
NO_CHARGES


@<TRIPOS>ATOM
      1 N1         54.6860   55.6030   75.4560 N.am      1 S82602      0.0000 
      2 C2         55.1800   56.2710   76.5480 C.2       1 S82602      0.0000 
      3 N3         54.2510   56.9210   77.3190 N.am      1 S82602      0.0000 
      4 C4         54.6290   58.1880   77.8390 C.3       1 S82602      0.0000 
      5 C5         54.7190   58.4660   79.3050 C.3       1 S82602      0.0000 
      6 C6         53.6940   59.1700   78.4760 C.3       1 S82602      0.0000 
      7 C7         55.8950   59.1730   79.8300 C.ar      1 S82602      0.0000 
      8 C8         56.9400   59.5520   79.0130 C.ar      1 S82602      0.0000 
      9 C9         58.0490   60.2040   79.5020 C.ar      1 S82602      0.0000 
     10 C10        58.1250   60.4860   80.8430 C.ar      1 S82602      0.0000 
     11 C11        57.0940   60.1160   81.6760 C.ar      1 S82602      0.0000 
     12 C12        55.9910   59.4680   81.1710 C.ar      1 S82602      0.0000 
     13 O13        56.3720   56.3020   76.8060 O.2       1 S82602      0.0000 
     14 C14        55.6190   55.1650   74.4470 C.3       1 S82602      0.0000 
     15 C15        55.8330   53.6720   74.5210 C.3       1 S82602      0.0000 
     16 C16        54.5110   52.9390   74.4580 C.3       1 S82602      0.0000 
     17 C17        53.5680   53.4450   75.5360 C.3       1 S82602      0.0000 
     18 C18        53.4060   54.9490   75.4880 C.3       1 S82602      0.0000 
     19 C19        53.9180   52.9960   73.1090 C.2       1 S82602      0.0000 
     20 N20        54.4820   52.8280   71.9380 N.2       1 S82602      0.0000 
     21 C21        53.4160   53.0090   71.0940 C.2       1 S82602      0.0000 
     22 N22        52.2510   53.2740   71.6900 N.2       1 S82602      0.0000 
     23 O23        52.5900   53.2620   73.0360 O.3       1 S82602      0.0000 
     24 C24        53.5420   52.9190   69.6260 C.3       1 S82602      0.0000 
     25 C25        54.0540   54.2130   69.0480 C.3       1 S82602      0.0000 
     26 C26        52.2390   52.5420   68.9590 C.3       1 S82602      0.0000 
     27 H          53.3442   56.5416   77.5196 H         1 S82602      0.0000 
     28 H          55.3724   58.8010   77.4515 H         1 S82602      0.0000 
     29 H          54.2386   57.7137   79.7423 H         1 S82602      0.0000 
     30 H          52.8544   58.7421   78.6072 H         1 S82602      0.0000 
     31 H          54.0090   60.0480   78.2887 H         1 S82602      0.0000 
     32 H          56.8865   59.3365   77.9903 H         1 S82602      0.0000 
     33 H          58.8118   60.4763   78.8678 H         1 S82602      0.0000 
     34 H          58.9497   60.9726   81.2260 H         1 S82602      0.0000 
     35 H          57.1493   60.3268   82.6885 H         1 S82602      0.0000 
     36 H          55.2179   59.1967   81.8114 H         1 S82602      0.0000 
     37 H          56.5947   55.6604   74.5698 H         1 S82602      0.0000 
     38 H          55.2541   55.4122   73.4380 H         1 S82602      0.0000 
     39 H          56.3405   53.4231   75.4550 H         1 S82602      0.0000 
     40 H          56.4634   53.3532   73.6887 H         1 S82602      0.0000 
     41 H          54.7277   51.8726   74.6990 H         1 S82602      0.0000 
     42 H          53.9564   53.1529   76.5188 H         1 S82602      0.0000 
     43 H          52.5882   52.9701   75.4077 H         1 S82602      0.0000 
     44 H          52.8081   55.2011   74.5981 H         1 S82602      0.0000 
     45 H          52.8227   55.2592   76.3691 H         1 S82602      0.0000 
     46 H          54.2781   52.1371   69.3788 H         1 S82602      0.0000 
     47 H          54.9544   54.4517   69.4117 H         1 S82602      0.0000 
     48 H          54.1428   54.1659   68.0531 H         1 S82602      0.0000 
     49 H          53.4433   54.9782   69.2519 H         1 S82602      0.0000 
     50 H          52.3339   52.4830   67.9653 H         1 S82602      0.0000 
     51 H          51.9034   51.6544   69.2746 H         1 S82602      0.0000 
     52 H          51.5192   53.2107   69.1455 H         1 S82602      0.0000 
@<TRIPOS>BOND
     1    2    1 am   
     2   14    1 1    
     3   18    1 1    
     4    3    2 am   
     5   13    2 2    
     6    4    3 1    
     7   27    3 1    
     8    5    4 1    
     9    6    4 1    
    10   28    4 1    
    11    6    5 1    
    12    7    5 1    
    13   29    5 1    
    14   30    6 1    
    15   31    6 1    
    16    8    7 ar   
    17   12    7 ar   
    18    9    8 ar   
    19   32    8 1    
    20   10    9 ar   
    21   33    9 1    
    22   11   10 ar   
    23   34   10 1    
    24   12   11 ar   
    25   35   11 1    
    26   36   12 1    
    27   15   14 1    
    28   37   14 1    
    29   38   14 1    
    30   16   15 1    
    31   39   15 1    
    32   40   15 1    
    33   17   16 1    
    34   19   16 1    
    35   41   16 1    
    36   18   17 1    
    37   42   17 1    
    38   43   17 1    
    39   44   18 1    
    40   45   18 1    
    41   20   19 2    
    42   23   19 1    
    43   21   20 1    
    44   22   21 2    
    45   24   21 1    
    46   23   22 1    
    47   25   24 1    
    48   26   24 1    
    49   46   24 1    
    50   47   25 1    
    51   48   25 1    
    52   49   25 1    
    53   50   26 1    
    54   51   26 1    
    55   52   26 1    
@<TRIPOS>SUBSTRUCTURE
     1 S82602      1 GROUP   
@<TRIPOS>SET

