#    Name: 2VP4_1_CAVITY_N1_6.mol2
#    Modification time : Mon Mar 10 17:14:15 2014

@<TRIPOS>MOLECULE
2VP4_1_CAVITY_N1_6.mol2
   97     0     7     0     0
SMALL
NO_CHARGES


@<TRIPOS>ATOM
      1 CZ         33.1585   17.0159   14.8137 C.ar      5 PHE5        0.0000 
      2 O          31.4419   16.7333   13.5998 O.2       2 ALA2        0.0000 
      3 CZ         32.0799   14.7591   13.1573 C.ar      5 PHE5        0.0000 
      4 CZ         30.9026   15.6049   12.7717 C.ar      5 PHE5        0.0000 
      5 CZ         31.5406   13.6307   12.3291 C.ar      5 PHE5        0.0000 
      6 CZ         30.3633   14.4765   11.9435 C.ar      5 PHE5        0.0000 
      7 CZ         31.8621   15.3762   15.1752 C.ar      5 PHE5        0.0000 
      8 CA         30.6849   16.2219   14.7895 C.3       6 GLY6        0.0000 
      9 CA         36.9286   19.4496   14.4763 C.3       6 GLY6        0.0000 
     10 NZ         35.7513   20.2953   14.0907 N.2       4 LYS4        0.0000 
     11 OD1        34.5740   21.1411   13.7050 O.3       3 ASP3        0.0000 
     12 CA         36.3893   18.3212   13.6482 C.3       6 GLY6        0.0000 
     13 CA         35.2120   19.1670   13.2625 C.3       6 GLY6        0.0000 
     14 DU         34.0347   20.0127   12.8768 H         7 CUB7        0.0000 
     15 CA         32.8574   20.8584   12.4912 C.3       6 GLY6        0.0000 
     16 CA         35.8499   17.1928   12.8200 C.3       6 GLY6        0.0000 
     17 CZ         34.6727   18.0386   12.4343 C.ar      5 PHE5        0.0000 
     18 DU         33.4954   18.8843   12.0486 H         7 CUB7        0.0000 
     19 CA         32.3181   19.7301   11.6630 C.3       6 GLY6        0.0000 
     20 CZ         34.1334   16.9102   11.6061 C.ar      5 PHE5        0.0000 
     21 DU         32.9561   17.7559   11.2205 H         7 CUB7        0.0000 
     22 CA         31.7788   18.6017   10.8348 C.3       6 GLY6        0.0000 
     23 CZ         33.5940   15.7818   10.7779 C.ar      5 PHE5        0.0000 
     24 CZ         32.4168   16.6276   10.3923 C.ar      5 PHE5        0.0000 
     25 CZ         31.2395   17.4733   10.0066 C.ar      5 PHE5        0.0000 
     26 CZ         33.0547   14.6534    9.9498 C.ar      5 PHE5        0.0000 
     27 CZ         31.8775   15.4992    9.5641 C.ar      5 PHE5        0.0000 
     28 NZ         33.7132   18.2673   10.0308 N.2       4 LYS4        0.0000 
     29 CA         32.5359   19.1130    9.6451 C.3       6 GLY6        0.0000 
     30 OG         33.1738   17.1389    9.2026 O.2       1 SER1        0.0000 
     31 OG         31.9966   17.9846    8.8169 O.2       1 SER1        0.0000 
     32 OG         32.6345   16.0105    8.3744 O.2       1 SER1        0.0000 
     33 NZ         35.1133   22.2695   14.5332 N.2       4 LYS4        0.0000 
     34 O          36.9490   25.0376   14.9999 O.2       2 ALA2        0.0000 
     35 OG         37.5870   23.0635   14.5574 O.2       1 SER1        0.0000 
     36 O          36.4097   23.9092   14.1717 O.2       2 ALA2        0.0000 
     37 O          37.0477   21.9351   13.7292 O.2       2 ALA2        0.0000 
     38 O          35.8704   22.7808   13.3435 O.2       2 ALA2        0.0000 
     39 O          36.5084   20.8067   12.9010 O.2       2 ALA2        0.0000 
     40 O          35.3311   21.6524   12.5153 O.2       2 ALA2        0.0000 
     41 O          35.9691   19.6783   12.0728 O.2       2 ALA2        0.0000 
     42 O          34.7918   20.5240   11.6871 O.2       2 ALA2        0.0000 
     43 CA         35.4297   18.5499   11.2446 C.3       6 GLY6        0.0000 
     44 CA         34.2525   19.3957   10.8589 C.3       6 GLY6        0.0000 
     45 OG         40.0607   23.8574   14.5815 O.2       1 SER1        0.0000 
     46 OG         38.8834   24.7032   14.1958 O.2       1 SER1        0.0000 
     47 O          37.7061   25.5489   13.8102 O.2       2 ALA2        0.0000 
     48 O          36.5288   26.3947   13.4245 O.2       2 ALA2        0.0000 
     49 NZ         39.5213   22.7290   13.7533 N.2       4 LYS4        0.0000 
     50 O          38.3441   23.5748   13.3677 O.2       2 ALA2        0.0000 
     51 NZ         36.1715   18.9383   15.6660 N.2       4 LYS4        0.0000 
     52 NZ         34.9942   19.7840   15.2804 N.2       4 LYS4        0.0000 
     53 CZ         35.6322   17.8099   14.8379 C.ar      5 PHE5        0.0000 
     54 O          34.4549   18.6556   14.4522 O.2       2 ALA2        0.0000 
     55 O          33.2776   19.5014   14.0665 O.2       2 ALA2        0.0000 
     56 CZ         33.9156   17.5272   13.6240 C.ar      5 PHE5        0.0000 
     57 O          32.7383   18.3730   13.2383 O.2       2 ALA2        0.0000 
     58 CZ         32.1990   17.2446   12.4102 C.ar      5 PHE5        0.0000 
     59 CZ         32.8370   15.2705   11.9676 C.ar      5 PHE5        0.0000 
     60 CZ         31.6597   16.1162   11.5820 C.ar      5 PHE5        0.0000 
     61 CZ         32.2977   14.1421   11.1395 C.ar      5 PHE5        0.0000 
     62 CZ         31.1204   14.9878   10.7538 C.ar      5 PHE5        0.0000 
     63 OG         40.7191   27.4713   14.6625 O.2       1 SER1        0.0000 
     64 OG         38.3645   29.1628   13.8912 O.2       1 SER1        0.0000 
     65 CA         37.1873   30.0085   13.5055 C.3       6 GLY6        0.0000 
     66 OG         40.1798   26.3429   13.8343 O.2       1 SER1        0.0000 
     67 OG         39.0025   27.1886   13.4487 O.2       1 SER1        0.0000 
     68 OG         37.8252   28.0344   13.0630 O.2       1 SER1        0.0000 
     69 CA         36.6479   28.8801   12.6773 C.3       6 GLY6        0.0000 
     70 CA         41.1546   26.2372   10.6268 C.3       6 GLY6        0.0000 
     71 CA         39.9773   27.0829   10.2411 C.3       6 GLY6        0.0000 
     72 CA         38.8001   27.9287    9.8554 C.3       6 GLY6        0.0000 
     73 N          37.6228   28.7744    9.4698 N.2       2 ALA2        0.0000 
     74 CA         31.3228   14.2478   14.3470 C.3       6 GLY6        0.0000 
     75 CZ         30.1455   15.0935   13.9614 C.ar      5 PHE5        0.0000 
     76 OG         39.1216   29.6741   12.7015 O.2       1 SER1        0.0000 
     77 DU         37.9443   30.5199   12.3158 H         7 CUB7        0.0000 
     78 NZ         40.8177   24.3688   13.3918 N.2       4 LYS4        0.0000 
     79 O          39.6405   25.2145   13.0061 O.2       2 ALA2        0.0000 
     80 O          38.4632   26.0603   12.6205 O.2       2 ALA2        0.0000 
     81 O          37.2859   26.9060   12.2348 O.2       2 ALA2        0.0000 
     82 N          36.1086   27.7517   11.8491 N.2       2 ALA2        0.0000 
     83 O          39.1011   24.0861   12.1780 O.2       2 ALA2        0.0000 
     84 DU         40.9368   26.8542   12.6446 H         7 CUB7        0.0000 
     85 DU         39.7596   27.7000   12.2590 H         7 CUB7        0.0000 
     86 DU         38.5823   28.5457   11.8733 H         7 CUB7        0.0000 
     87 CA         37.4050   29.3915   11.4876 C.3       6 GLY6        0.0000 
     88 CA         40.3975   25.7259   11.8165 C.3       6 GLY6        0.0000 
     89 CA         39.2203   26.5716   11.4308 C.3       6 GLY6        0.0000 
     90 O          38.0430   27.4173   11.0451 O.2       2 ALA2        0.0000 
     91 CA         36.8657   28.2631   10.6595 C.3       6 GLY6        0.0000 
     92 DU         40.5166   28.2113   11.0693 H         7 CUB7        0.0000 
     93 DU         39.3394   29.0571   10.6836 H         7 CUB7        0.0000 
     94 CA         38.1621   29.9028   10.2979 C.3       6 GLY6        0.0000 
     95 CA         39.4227   25.8316   15.0240 C.3       6 GLY6        0.0000 
     96 OG         38.2454   26.6773   14.6384 O.2       1 SER1        0.0000 
     97 CA         37.0681   27.5230   14.2527 C.3       6 GLY6        0.0000 
@<TRIPOS>BOND
@<TRIPOS>SUBSTRUCTURE
     1 SER1       30 GROUP   
     2 ALA2        2 GROUP   
     3 ASP3       11 GROUP   
     4 LYS4       10 GROUP   
     5 PHE5        1 GROUP   
     6 GLY6        8 GROUP   
     7 CUB7       14 GROUP   
@<TRIPOS>SET

