#    Name: 2vp4_DCP_1_INTS_M
#    Modification time : Tue Mar 25 02:20:16 2014

@<TRIPOS>MOLECULE
2vp4_DCP_1_INTS_M
   84     0    12     0     0
SMALL
NO_CHARGES


@<TRIPOS>ATOM
      1 N          29.6785   12.8115   11.0660 N.am      2 SEC2        0.0000 
      2 N          30.3550   14.0270   11.5080 N.am     10 SEL2        0.0000 
      3 N          29.0020   11.5960   10.6240 N.am      6 SEP2        0.0000 
      4 CA         31.6055   13.5100   14.4055 C.3       4 GLC5        0.0000 
      5 CA         31.2860   15.3780   13.2440 C.3      12 GLL5        0.0000 
      6 CA         31.9250   11.6420   15.5670 C.3       8 GLP5        0.0000 
      7 CA         31.2010   16.7630   14.9460 C.3       4 GLC5        0.0000 
      8 CA         31.1160   18.1480   16.6480 C.3       8 GLP5        0.0000 
      9 O          29.3470   12.2480   13.2165 O.2       1 ALC1        0.0000 
     10 O          29.7590   13.6070   13.7140 O.2       9 ALL1        0.0000 
     11 O          28.9350   10.8890   12.7190 O.2       5 ALP1        0.0000 
     12 CA         34.0330   15.5410    8.9920 C.3       4 GLC5        0.0000 
     13 CA         32.6620   16.4900    9.9610 C.3      12 GLL5        0.0000 
     14 CA         35.4040   14.5920    8.0230 C.3       8 GLP5        0.0000 
     15 CA         31.3710   19.1805    8.8490 C.3       4 GLC5        0.0000 
     16 CA         32.3330   17.9150    9.5500 C.3      12 GLL5        0.0000 
     17 CA         30.4090   20.4460    8.1480 C.3       8 GLP5        0.0000 
     18 CA         33.2605   20.2975    9.1915 C.3       4 GLC5        0.0000 
     19 CA         33.7300   18.4480    9.2020 C.3      12 GLL5        0.0000 
     20 CA         32.7910   22.1470    9.1810 C.3       8 GLP5        0.0000 
     21 N          33.0275   17.6650    6.9490 N.am      2 SEC2        0.0000 
     22 N          34.0750   18.0640    7.8610 N.am     10 SEL2        0.0000 
     23 N          31.9800   17.2660    6.0370 N.am      6 SEP2        0.0000 
     24 O          35.0355   19.0445    7.7455 O.2       1 ALC1        0.0000 
     25 O          34.0750   18.0640    7.8610 O.2       9 ALL1        0.0000 
     26 O          35.9960   20.0250    7.6300 O.2       5 ALP1        0.0000 
     27 CA         34.8380   16.6750   12.5270 C.3       4 GLC5        0.0000 
     28 CA         34.9320   18.4740   11.4260 C.3      12 GLL5        0.0000 
     29 CA         34.7440   14.8760   13.6280 C.3       8 GLP5        0.0000 
     30 NZ         32.2800   18.8690   14.8155 N.4       3 LYC4        0.0000 
     31 NZ         33.5330   18.7230   14.1540 N.4      11 LYL4        0.0000 
     32 NZ         29.9790   19.7810   15.1900 N.4       7 LYP4        0.0000 
     33 N          32.2800   18.8690   14.8155 N.am      2 SEC2        0.0000 
     34 N          33.5330   18.7230   14.1540 N.am     10 SEL2        0.0000 
     35 N          31.0270   19.0150   15.4770 N.am      6 SEP2        0.0000 
     36 NZ         32.4120   21.8985   14.1370 N.4       3 LYC4        0.0000 
     37 NZ         32.4760   20.8590   13.1970 N.4      11 LYL4        0.0000 
     38 NZ         32.3480   22.9380   15.0770 N.4       7 LYP4        0.0000 
     39 NZ         31.2290   20.6885   13.6415 N.4       3 LYC4        0.0000 
     40 N          32.4120   21.8985   14.1370 N.am      2 SEC2        0.0000 
     41 N          32.4760   20.8590   13.1970 N.am     10 SEL2        0.0000 
     42 N          32.3480   22.9380   15.0770 N.am      6 SEP2        0.0000 
     43 N          31.7515   19.9370   14.3370 N.am      2 SEC2        0.0000 
     44 N          31.2290   20.6885   13.6415 N.am      2 SEC2        0.0000 
     45 N          29.9820   20.5180   14.0860 N.am      6 SEP2        0.0000 
     46 NZ         35.5980   22.7040   10.2275 N.4       3 LYC4        0.0000 
     47 NZ         35.2200   22.1290   11.5480 N.4      11 LYL4        0.0000 
     48 NZ         37.0150   23.9370    9.3880 N.4       7 LYP4        0.0000 
     49 N          36.0995   23.2565   11.0915 N.am      2 SEC2        0.0000 
     50 N          35.2200   22.1290   11.5480 N.am     10 SEL2        0.0000 
     51 N          36.9790   24.3840   10.6350 N.am      6 SEP2        0.0000 
     52 N          35.5980   22.7040   10.2275 N.am      2 SEC2        0.0000 
     53 N          35.9760   23.2790    8.9070 N.am      6 SEP2        0.0000 
     54 N          36.4390   21.4615   10.6510 N.am      2 SEC2        0.0000 
     55 N          37.6580   20.7940    9.7540 N.am      6 SEP2        0.0000 
     56 NZ         38.1990   21.6755   12.2155 N.4       3 LYC4        0.0000 
     57 NZ         37.1750   21.7100   13.2190 N.4      11 LYL4        0.0000 
     58 NZ         38.9160   21.0980   10.0450 N.4       7 LYP4        0.0000 
     59 N          38.1990   21.6755   12.2155 N.am      2 SEC2        0.0000 
     60 N          37.1750   21.7100   13.2190 N.am     10 SEL2        0.0000 
     61 N          39.2230   21.6410   11.2120 N.am      6 SEP2        0.0000 
     62 N          33.7110   22.9290   14.5355 N.am      2 SEC2        0.0000 
     63 N          35.0740   22.9200   13.9940 N.am     10 SEL2        0.0000 
     64 N          36.9490   24.7205   16.6225 N.am      2 SEC2        0.0000 
     65 N          36.6240   24.3730   15.1480 N.am     10 SEL2        0.0000 
     66 N          37.2740   25.0680   18.0970 N.am      6 SEP2        0.0000 
     67 NZ         33.2775   23.9940   14.9085 N.4       3 LYC4        0.0000 
     68 NZ         34.2070   25.0500   14.7400 N.4      11 LYL4        0.0000 
     69 N          34.1320   26.4725   14.7990 N.am      2 SEC2        0.0000 
     70 N          34.2070   25.0500   14.7400 N.am     10 SEL2        0.0000 
     71 N          34.0570   27.8950   14.8580 N.am      6 SEP2        0.0000 
     72 N          34.5550   25.7055   15.9170 N.am      2 SEC2        0.0000 
     73 N          34.9030   26.3610   17.0940 N.am      6 SEP2        0.0000 
     74 N          33.2775   23.9940   14.9085 N.am      2 SEC2        0.0000 
     75 NZ         36.4145   24.6835   11.7340 N.4       3 LYC4        0.0000 
     76 NZ         35.8500   24.9830   12.8330 N.4      11 LYL4        0.0000 
     77 N          36.4145   24.6835   11.7340 N.am      2 SEC2        0.0000 
     78 N          35.8500   24.9830   12.8330 N.am     10 SEL2        0.0000 
     79 CA         30.5707   17.3607   10.2028 C.3       4 GLC5        0.0000 
     80 CA         28.6440   17.5190   10.6500 C.3       8 GLP5        0.0000 
     81 CA         34.8045   16.3370    8.8448 C.3       4 GLC5        0.0000 
     82 CA         36.5220   17.3280   11.0568 C.3       4 GLC5        0.0000 
     83 CA         34.6800   17.7160   10.1310 C.3      12 GLL5        0.0000 
     84 CA         38.2380   16.5610   11.3350 C.3       8 GLP5        0.0000 
@<TRIPOS>BOND
@<TRIPOS>SUBSTRUCTURE
     1 ALC1        9 GROUP        1 X    ALC  0     ROOT ALC X 1
     2 SEC2        1 GROUP        1 X    SEC  0     **** SEC X 2
     3 LYC4       30 GROUP        1 X    LYC  0     **** LYC X 4
     4 GLC5        4 GROUP        1 X    GLC  0     **** GLC X 6
     5 ALP1       11 GROUP        1 Y    ALP  0     ROOT ALP Y 8
     6 SEP2        3 GROUP        1 Y    SEP  0     **** SEP Y 9
     7 LYP4       32 GROUP        1 Y    LYP  0     **** LYP Y 11
     8 GLP5        6 GROUP        1 Y    GLP  0     **** GLP Y 13
     9 ALL1       10 GROUP        1 Z    ALL  0     ROOT ALL Z 15
    10 SEL2        2 GROUP        1 Z    SEL  0     **** SEL Z 16
    11 LYL4       31 GROUP        1 Z    LYL  0     **** LYL Z 18
    12 GLL5        5 GROUP        1 Z    GLL  0     **** GLL Z 20
@<TRIPOS>SET

