#    Name: 2vp4_DCP_1_ligand
#    Modification time : Tue Mar 25 02:20:16 2014

@<TRIPOS>MOLECULE
2vp4_DCP_1_ligand
   40    41     1     0     0
SMALL
NO_CHARGES


@<TRIPOS>ATOM
      1 N1         31.8660   15.7910   10.9590 N.am      1 DCP1210     0.0000 
      2 C2         31.0220   14.7250   10.5570 C.2       1 DCP1210     0.0000 
      3 N3         30.3550   14.0270   11.5080 N.2       1 DCP1210     0.0000 
      4 C4         30.4650   14.3300   12.8160 C.2       1 DCP1210     0.0000 
      5 C5         31.2860   15.3780   13.2440 C.2       1 DCP1210     0.0000 
      6 C6         31.9970   16.0770   12.2680 C.2       1 DCP1210     0.0000 
      7 O2         30.8680   14.4210    9.3390 O.2       1 DCP1210     0.0000 
      8 N4         29.7590   13.6070   13.7140 N.pl3     1 DCP1210     0.0000 
      9 C1'        32.6620   16.4900    9.9610 C.3       1 DCP1210     0.0000 
     10 C2'        32.3330   17.9150    9.5500 C.3       1 DCP1210     0.0000 
     11 C3'        33.7300   18.4480    9.2020 C.3       1 DCP1210     0.0000 
     12 C4'        34.6800   17.7160   10.1310 C.3       1 DCP1210     0.0000 
     13 O4'        34.0010   16.5190   10.4830 O.3       1 DCP1210     0.0000 
     14 O3'        34.0750   18.0640    7.8610 O.3       1 DCP1210     0.0000 
     15 C5'        34.9320   18.4740   11.4260 C.3       1 DCP1210     0.0000 
     16 O5'        33.7960   19.2990   11.7170 O.3       1 DCP1210     0.0000 
     17 PA         33.6120   19.8820   13.1810 P.3       1 DCP1210     0.0000 
     18 O1A        33.5330   18.7230   14.1540 O.co2     1 DCP1210     0.0000 
     19 O2A        32.4760   20.8590   13.1970 O.co2     1 DCP1210     0.0000 
     20 O3A        35.0620   20.5010   13.4760 O.3       1 DCP1210     0.0000 
     21 PB         35.7140   21.8680   12.9340 P.3       1 DCP1210     0.0000 
     22 O1B        35.2200   22.1290   11.5480 O.co2     1 DCP1210     0.0000 
     23 O2B        37.1750   21.7100   13.2190 O.co2     1 DCP1210     0.0000 
     24 O3B        35.0740   22.9200   13.9940 O.3       1 DCP1210     0.0000 
     25 PG         35.4970   24.4820   14.2020 P.3       1 DCP1210     0.0000 
     26 O1G        36.6240   24.3730   15.1480 O.co2     1 DCP1210     0.0000 
     27 O2G        34.2070   25.0500   14.7400 O.co2     1 DCP1210     0.0000 
     28 O3G        35.8500   24.9830   12.8330 O.co2     1 DCP1210     0.0000 
     29 H          31.3603   15.6180   14.2204 H         1 DCP1210     0.0000 
     30 H          32.6423   16.8381   12.5826 H         1 DCP1210     0.0000 
     31 H          29.1400   12.9188   13.3356 H         1 DCP1210     0.0000 
     32 H          29.9185   13.8246   14.6769 H         1 DCP1210     0.0000 
     33 H          32.7076   15.8780    9.0337 H         1 DCP1210     0.0000 
     34 H          31.9452   18.4490   10.3664 H         1 DCP1210     0.0000 
     35 H          31.7309   17.9160    8.6901 H         1 DCP1210     0.0000 
     36 H          33.7772   19.4675    9.3777 H         1 DCP1210     0.0000 
     37 H          35.5874   17.5182    9.6383 H         1 DCP1210     0.0000 
     38 H          35.8403   19.0697   11.2989 H         1 DCP1210     0.0000 
     39 H          35.1113   17.7417   12.2181 H         1 DCP1210     0.0000 
     40 H          34.8098   18.6877    7.5943 H         1 DCP1210     0.0000 
@<TRIPOS>BOND
     1    2    1 am   
     2    6    1 1    
     3    9    1 1    
     4    3    2 1    
     5    7    2 2    
     6    4    3 2    
     7    5    4 1    
     8    8    4 1    
     9    6    5 2    
    10   29    5 1    
    11   30    6 1    
    12   31    8 1    
    13   32    8 1    
    14   10    9 1    
    15   13    9 1    
    16   33    9 1    
    17   11   10 1    
    18   34   10 1    
    19   35   10 1    
    20   12   11 1    
    21   14   11 1    
    22   36   11 1    
    23   13   12 1    
    24   15   12 1    
    25   37   12 1    
    26   40   14 1    
    27   16   15 1    
    28   38   15 1    
    29   39   15 1    
    30   17   16 1    
    31   18   17 ar   
    32   19   17 ar   
    33   20   17 1    
    34   21   20 1    
    35   22   21 ar   
    36   23   21 ar   
    37   24   21 1    
    38   25   24 1    
    39   26   25 ar   
    40   27   25 ar   
    41   28   25 ar   
@<TRIPOS>SUBSTRUCTURE
     1 DCP1210     1 GROUP   
@<TRIPOS>SET

