#    Name: 3vvc_NAP_1_INTS_M
#    Modification time : Tue Mar 25 01:39:49 2014

@<TRIPOS>MOLECULE
3vvc_NAP_1_INTS_M
  108     0    12     0     0
SMALL
NO_CHARGES


@<TRIPOS>ATOM
      1 NZ          5.9350  -29.5500   -4.1950 N.4       3 LYC4        0.0000 
      2 NZ          7.4680  -28.7510   -4.9590 N.4      11 LYL4        0.0000 
      3 NZ          4.4020  -30.3490   -3.4310 N.4       7 LYP4        0.0000 
      4 NZ          5.1190  -28.7335   -3.5000 N.4       3 LYC4        0.0000 
      5 NZ          5.8360  -27.1180   -3.5690 N.4      11 LYL4        0.0000 
      6 O          10.4085  -24.1110   -5.8875 O.2       1 ALC1        0.0000 
      7 O           9.2610  -24.7080   -5.4440 O.2       9 ALL1        0.0000 
      8 O          11.5560  -23.5140   -6.3310 O.2       5 ALP1        0.0000 
      9 CA          5.3600  -21.5805   -6.0145 C.3       4 GLC5        0.0000 
     10 CA          7.2290  -21.8580   -5.0560 C.3      12 GLL5        0.0000 
     11 CA          3.4910  -21.3030   -6.9730 C.3       8 GLP5        0.0000 
     12 CA          6.3280  -15.7905   -3.9785 C.3       4 GLC5        0.0000 
     13 CA          5.4340  -17.3830   -4.0680 C.3      12 GLL5        0.0000 
     14 CA          7.2220  -14.1980   -3.8890 C.3       8 GLP5        0.0000 
     15 CA          3.9505  -16.7410   -4.8140 C.3       4 GLC5        0.0000 
     16 CA          2.4670  -16.0990   -5.5600 C.3       8 GLP5        0.0000 
     17 O           4.9785  -14.9020   -3.0450 O.2       1 ALC1        0.0000 
     18 O           4.7220  -16.5370   -3.2420 O.2       9 ALL1        0.0000 
     19 O           5.2350  -13.2670   -2.8480 O.2       5 ALP1        0.0000 
     20 N           5.4255  -15.6350   -5.5065 N.am      2 SEC2        0.0000 
     21 N           5.9990  -16.9560   -5.2310 N.am     10 SEL2        0.0000 
     22 N           4.8520  -14.3140   -5.7820 N.am      6 SEP2        0.0000 
     23 CA          8.6685  -17.7870   -6.5715 C.3       4 GLC5        0.0000 
     24 CA          6.7320  -17.7230   -6.0580 C.3      12 GLL5        0.0000 
     25 CA         10.6050  -17.8510   -7.0850 C.3       8 GLP5        0.0000 
     26 CA          6.9425  -15.8090   -5.7245 C.3       4 GLC5        0.0000 
     27 CA          7.1530  -13.8950   -5.3910 C.3       8 GLP5        0.0000 
     28 CA          5.0855  -16.8955   -6.9690 C.3       4 GLC5        0.0000 
     29 CA          3.4390  -16.0680   -7.8800 C.3       8 GLP5        0.0000 
     30 CA          5.3185  -18.7850   -6.5230 C.3       4 GLC5        0.0000 
     31 CA          3.9050  -19.8470   -6.9880 C.3       8 GLP5        0.0000 
     32 CA          6.5960  -20.9575   -6.5100 C.3       4 GLC5        0.0000 
     33 CA          6.4620  -19.6070   -4.7470 C.3      12 GLL5        0.0000 
     34 CA          6.7300  -22.3080   -8.2730 C.3       8 GLP5        0.0000 
     35 NZ          4.5065  -30.2690   -4.9345 N.4       3 LYC4        0.0000 
     36 NZ          4.6110  -30.1890   -6.4380 N.4      11 LYL4        0.0000 
     37 N           4.5065  -30.2690   -4.9345 N.am      2 SEC2        0.0000 
     38 N           4.6110  -30.1890   -6.4380 N.am     10 SEL2        0.0000 
     39 N           4.4020  -30.3490   -3.4310 N.am      6 SEP2        0.0000 
     40 N           7.1025  -29.7245   -8.9585 N.am      2 SEC2        0.0000 
     41 N           6.5610  -28.9750   -7.7980 N.am     10 SEL2        0.0000 
     42 N           7.6440  -30.4740  -10.1190 N.am      6 SEP2        0.0000 
     43 CA          2.7135  -28.2540   -5.0605 C.3       4 GLC5        0.0000 
     44 CA          2.8310  -27.9220   -7.1680 C.3      12 GLL5        0.0000 
     45 CA          2.5960  -28.5860   -2.9530 C.3       8 GLP5        0.0000 
     46 CA          2.5170  -25.9190   -9.0105 C.3       4 GLC5        0.0000 
     47 CA          1.6220  -27.1990   -7.7900 C.3      12 GLL5        0.0000 
     48 CA          3.4120  -24.6390  -10.2310 C.3       8 GLP5        0.0000 
     49 CA          0.3895  -26.8165   -9.5240 C.3       4 GLC5        0.0000 
     50 CA         -0.8430  -26.4340  -11.2580 C.3       8 GLP5        0.0000 
     51 CA          0.6745  -24.8120   -5.5415 C.3       4 GLC5        0.0000 
     52 CA          0.8420  -26.4280   -6.7050 C.3      12 GLL5        0.0000 
     53 CA          0.5070  -23.1960   -4.3780 C.3       8 GLP5        0.0000 
     54 N          -0.9940  -24.8225   -6.8410 N.am      2 SEC2        0.0000 
     55 N           0.3200  -25.1720   -7.1940 N.am     10 SEL2        0.0000 
     56 N          -2.3080  -24.4730   -6.4880 N.am      6 SEP2        0.0000 
     57 O           1.5645  -24.4965   -7.4035 O.2       1 ALC1        0.0000 
     58 O           0.3200  -25.1720   -7.1940 O.2       9 ALL1        0.0000 
     59 O           2.8090  -23.8210   -7.6130 O.2       5 ALP1        0.0000 
     60 CA         -1.6055  -25.9500   -5.7230 C.3       4 GLC5        0.0000 
     61 CA         -0.2720  -27.3950   -6.3250 C.3      12 GLL5        0.0000 
     62 CA         -2.9390  -24.5050   -5.1210 C.3       8 GLP5        0.0000 
     63 N          -1.9110  -25.6125   -6.2560 N.am      2 SEC2        0.0000 
     64 N          -1.5140  -26.7520   -6.0240 N.am     10 SEL2        0.0000 
     65 CA         -0.6330  -27.4010   -9.3820 C.3       4 GLC5        0.0000 
     66 CA         -0.4230  -28.3680   -7.5060 C.3      12 GLL5        0.0000 
     67 N           3.4940  -31.1855   -4.4165 N.am      2 SEC2        0.0000 
     68 N           2.5860  -32.0220   -5.4020 N.am     10 SEL2        0.0000 
     69 O           0.1705  -34.5840   -6.6285 O.2       1 ALC1        0.0000 
     70 O           1.6160  -33.9120   -6.1030 O.2       9 ALL1        0.0000 
     71 O          -1.2750  -35.2560   -7.1540 O.2       5 ALP1        0.0000 
     72 NZ         11.2690  -22.8080   -2.5550 N.4       3 LYC4        0.0000 
     73 NZ         10.6080  -21.6590   -2.4080 N.4      11 LYL4        0.0000 
     74 NZ         11.9300  -23.9570   -2.7020 N.4       7 LYP4        0.0000 
     75 N           9.3800  -20.7925   -1.5205 N.am      2 SEC2        0.0000 
     76 N          10.6080  -21.6590   -2.4080 N.am     10 SEL2        0.0000 
     77 N           8.1520  -19.9260   -0.6330 N.am      6 SEP2        0.0000 
     78 N          11.2690  -22.8080   -2.5550 N.am      2 SEC2        0.0000 
     79 N          11.9300  -23.9570   -2.7020 N.am      6 SEP2        0.0000 
     80 NZ         11.8620  -22.5225   -3.6620 N.4       3 LYC4        0.0000 
     81 NZ         11.7940  -21.0880   -4.6220 N.4      11 LYL4        0.0000 
     82 N          11.6750  -22.3010   -5.4765 N.am      2 SEC2        0.0000 
     83 N          11.7940  -21.0880   -4.6220 N.am     10 SEL2        0.0000 
     84 N          11.5560  -23.5140   -6.3310 N.am      6 SEP2        0.0000 
     85 N          11.9570  -20.3510   -5.5705 N.am      2 SEC2        0.0000 
     86 N          12.1200  -19.6140   -6.5190 N.am      6 SEP2        0.0000 
     87 N          12.6875  -19.8025   -4.1600 N.am      2 SEC2        0.0000 
     88 N          13.5810  -18.5170   -3.6980 N.am      6 SEP2        0.0000 
     89 NZ          8.8040  -19.1645   -2.4175 N.4       3 LYC4        0.0000 
     90 NZ          9.8230  -19.6220   -3.7680 N.4      11 LYL4        0.0000 
     91 NZ          7.7850  -18.7070   -1.0670 N.4       7 LYP4        0.0000 
     92 N          10.5610  -18.4345   -4.3025 N.am      2 SEC2        0.0000 
     93 N           9.8230  -19.6220   -3.7680 N.am     10 SEL2        0.0000 
     94 N          11.2990  -17.2470   -4.8370 N.am      6 SEP2        0.0000 
     95 CA          6.6238  -23.4498   -6.9810 C.3       4 GLC5        0.0000 
     96 CA          6.9590  -23.9820   -5.7160 C.3      12 GLL5        0.0000 
     97 CA          7.2356  -22.4444   -6.5401 C.3       4 GLC5        0.0000 
     98 CA          7.0455  -17.3240   -2.9447 C.3       4 GLC5        0.0000 
     99 CA          5.6360  -18.8250   -3.7630 C.3      12 GLL5        0.0000 
    100 CA          8.5560  -16.5440   -1.9740 C.3       8 GLP5        0.0000 
    101 CA          3.5405  -18.2940   -3.0862 C.3       4 GLC5        0.0000 
    102 CA          1.5460  -18.4840   -2.2570 C.3       8 GLP5        0.0000 
    103 CA          4.9518  -19.3513   -5.6596 C.3       4 GLC5        0.0000 
    104 CA         -2.5130  -33.7360   -6.6898 C.3       4 GLC5        0.0000 
    105 CA         -1.9450  -31.6280   -6.4180 C.3      12 GLL5        0.0000 
    106 CA         -3.6370  -35.4690   -7.1190 C.3       8 GLP5        0.0000 
    107 CA         -3.3323  -30.3937   -6.0415 C.3       4 GLC5        0.0000 
    108 CA         -4.8240  -29.8110   -5.4290 C.3       8 GLP5        0.0000 
@<TRIPOS>BOND
@<TRIPOS>SUBSTRUCTURE
     1 ALC1        6 GROUP        1 X    ALC  0     ROOT ALC X 1
     2 SEC2       20 GROUP        1 X    SEC  0     **** SEC X 2
     3 LYC4        1 GROUP        1 X    LYC  0     **** LYC X 4
     4 GLC5        9 GROUP        1 X    GLC  0     **** GLC X 6
     5 ALP1        8 GROUP        1 Y    ALP  0     ROOT ALP Y 8
     6 SEP2       22 GROUP        1 Y    SEP  0     **** SEP Y 9
     7 LYP4        3 GROUP        1 Y    LYP  0     **** LYP Y 11
     8 GLP5       11 GROUP        1 Y    GLP  0     **** GLP Y 13
     9 ALL1        7 GROUP        1 Z    ALL  0     ROOT ALL Z 15
    10 SEL2       21 GROUP        1 Z    SEL  0     **** SEL Z 16
    11 LYL4        2 GROUP        1 Z    LYL  0     **** LYL Z 18
    12 GLL5       10 GROUP        1 Z    GLL  0     **** GLL Z 20
@<TRIPOS>SET

