#    Name: 3vvc_NAP_1_ligand
#    Modification time : Tue Mar 25 01:39:49 2014

@<TRIPOS>MOLECULE
3vvc_NAP_1_ligand
   73    77     1     0     0
SMALL
NO_CHARGES


@<TRIPOS>ATOM
      1 PA          6.4430  -27.6160   -4.8690 P.3       1 NAP401      0.0000 
      2 O1A         7.4680  -28.7510   -4.9590 O.co2     1 NAP401      0.0000 
      3 O2A         5.8360  -27.1180   -3.5690 O.co2     1 NAP401      0.0000 
      4 O5B         6.9620  -26.3160   -5.6300 O.3       1 NAP401      0.0000 
      5 C5B         6.0760  -25.2010   -5.6620 C.3       1 NAP401      0.0000 
      6 C4B         6.9590  -23.9820   -5.7160 C.3       1 NAP401      0.0000 
      7 O4B         6.2260  -22.8320   -5.3240 O.3       1 NAP401      0.0000 
      8 C3B         8.1620  -24.0380   -4.7730 C.3       1 NAP401      0.0000 
      9 O3B         9.2610  -24.7080   -5.4440 O.3       1 NAP401      0.0000 
     10 C2B         8.3450  -22.5690   -4.3440 C.3       1 NAP401      0.0000 
     11 O2B         9.4620  -21.9290   -4.8430 O.3       1 NAP401      0.0000 
     12 C1B         7.2290  -21.8580   -5.0560 C.3       1 NAP401      0.0000 
     13 N9A         6.5340  -20.8420   -4.2730 N.pl3     1 NAP401      0.0000 
     14 C8A         5.8270  -20.9260   -3.1180 C.2       1 NAP401      0.0000 
     15 N7A         5.2850  -19.6910   -2.7970 N.2       1 NAP401      0.0000 
     16 C5A         5.6360  -18.8250   -3.7630 C.ar      1 NAP401      0.0000 
     17 C6A         5.4340  -17.3830   -4.0680 C.ar      1 NAP401      0.0000 
     18 N6A         4.7220  -16.5370   -3.2420 N.pl3     1 NAP401      0.0000 
     19 N1A         5.9990  -16.9560   -5.2310 N.ar      1 NAP401      0.0000 
     20 C2A         6.7320  -17.7230   -6.0580 C.ar      1 NAP401      0.0000 
     21 N3A         6.9780  -19.0380   -5.8740 N.ar      1 NAP401      0.0000 
     22 C4A         6.4620  -19.6070   -4.7470 C.ar      1 NAP401      0.0000 
     23 O3          5.1810  -27.9580   -5.8030 O.3       1 NAP401      0.0000 
     24 PN          5.1990  -28.9450   -7.0750 P.3       1 NAP401      0.0000 
     25 O1N         4.6110  -30.1890   -6.4380 O.co2     1 NAP401      0.0000 
     26 O2N         6.5610  -28.9750   -7.7980 O.co2     1 NAP401      0.0000 
     27 O5D         4.0270  -28.2080   -7.9290 O.3       1 NAP401      0.0000 
     28 C5D         2.8310  -27.9220   -7.1680 C.3       1 NAP401      0.0000 
     29 C4D         1.6220  -27.1990   -7.7900 C.3       1 NAP401      0.0000 
     30 O4D         0.7200  -28.1700   -8.3530 O.3       1 NAP401      0.0000 
     31 C3D         0.8420  -26.4280   -6.7050 C.3       1 NAP401      0.0000 
     32 O3D         0.3200  -25.1720   -7.1940 O.3       1 NAP401      0.0000 
     33 C2D        -0.2720  -27.3950   -6.3250 C.3       1 NAP401      0.0000 
     34 O2D        -1.5140  -26.7520   -6.0240 O.3       1 NAP401      0.0000 
     35 C1D        -0.4230  -28.3680   -7.5060 C.3       1 NAP401      0.0000 
     36 N1N        -0.5090  -29.7640   -7.0240 N.pl3     1 NAP401      0.0000 
     37 C2N         0.5900  -30.4750   -6.7090 C.ar      1 NAP401      0.0000 
     38 C3N         0.4330  -31.7930   -6.2520 C.ar      1 NAP401      0.0000 
     39 C7N         1.6350  -32.5990   -5.8910 C.2       1 NAP401      0.0000 
     40 O7N         2.5860  -32.0220   -5.4020 O.2       1 NAP401      0.0000 
     41 N7N         1.6160  -33.9120   -6.1030 N.am      1 NAP401      0.0000 
     42 C4N        -0.8330  -32.3780   -6.1030 C.ar      1 NAP401      0.0000 
     43 C5N        -1.9450  -31.6280   -6.4180 C.ar      1 NAP401      0.0000 
     44 C6N        -1.7360  -30.3250   -6.8900 C.ar      1 NAP401      0.0000 
     45 P2B        10.4650  -21.0460   -3.8280 P.3       1 NAP401      0.0000 
     46 O1X        10.6080  -21.6590   -2.4080 O.co2     1 NAP401      0.0000 
     47 O2X        11.7940  -21.0880   -4.6220 O.co2     1 NAP401      0.0000 
     48 O3X         9.8230  -19.6220   -3.7680 O.co2     1 NAP401      0.0000 
     49 H           5.4640  -25.1448   -4.7711 H         1 NAP401      0.0000 
     50 H           5.4458  -25.2101   -6.5418 H         1 NAP401      0.0000 
     51 H           7.3380  -23.8529   -6.7229 H         1 NAP401      0.0000 
     52 H           7.8183  -24.5922   -3.8987 H         1 NAP401      0.0000 
     53 H           8.1851  -22.4709   -3.3178 H         1 NAP401      0.0000 
     54 H           7.5851  -21.4482   -5.9771 H         1 NAP401      0.0000 
     55 H           5.7083  -21.7251   -2.5831 H         1 NAP401      0.0000 
     56 H           4.6036  -15.5995   -3.5691 H         1 NAP401      0.0000 
     57 H           4.3864  -16.9351   -2.3882 H         1 NAP401      0.0000 
     58 H           7.1541  -17.2566   -6.9304 H         1 NAP401      0.0000 
     59 H           3.1054  -27.3308   -6.2236 H         1 NAP401      0.0000 
     60 H           2.4224  -28.8917   -6.7104 H         1 NAP401      0.0000 
     61 H           1.9623  -26.5076   -8.5196 H         1 NAP401      0.0000 
     62 H           1.4862  -26.3187   -5.8622 H         1 NAP401      0.0000 
     63 H           0.0877  -27.9900   -5.4830 H         1 NAP401      0.0000 
     64 H          -1.3298  -28.0967   -8.0257 H         1 NAP401      0.0000 
     65 H           1.5345  -30.0856   -6.7921 H         1 NAP401      0.0000 
     66 H           2.4262  -34.4174   -5.8061 H         1 NAP401      0.0000 
     67 H           0.7933  -34.2753   -6.5402 H         1 NAP401      0.0000 
     68 H          -0.9163  -33.3360   -5.7688 H         1 NAP401      0.0000 
     69 H          -2.8826  -31.9941   -6.3163 H         1 NAP401      0.0000 
     70 H          -2.5938  -29.7643   -7.1508 H         1 NAP401      0.0000 
     71 H           9.9120  -23.9812   -5.6630 H         1 NAP401      0.0000 
     72 H           1.1251  -24.5981   -7.3441 H         1 NAP401      0.0000 
     73 H          -1.7784  -27.1070   -5.1273 H         1 NAP401      0.0000 
@<TRIPOS>BOND
     1    2    1 ar   
     2    3    1 ar   
     3    4    1 1    
     4   23    1 1    
     5    5    4 1    
     6    6    5 1    
     7   49    5 1    
     8   50    5 1    
     9    7    6 1    
    10    8    6 1    
    11   51    6 1    
    12   12    7 1    
    13    9    8 1    
    14   10    8 1    
    15   52    8 1    
    16   71    9 1    
    17   11   10 1    
    18   12   10 1    
    19   53   10 1    
    20   45   11 1    
    21   13   12 1    
    22   54   12 1    
    23   14   13 1    
    24   22   13 1    
    25   15   14 2    
    26   55   14 1    
    27   16   15 1    
    28   17   16 ar   
    29   22   16 ar   
    30   18   17 1    
    31   19   17 ar   
    32   56   18 1    
    33   57   18 1    
    34   20   19 ar   
    35   21   20 ar   
    36   58   20 1    
    37   22   21 ar   
    38   24   23 1    
    39   25   24 ar   
    40   26   24 ar   
    41   27   24 1    
    42   28   27 1    
    43   29   28 1    
    44   59   28 1    
    45   60   28 1    
    46   30   29 1    
    47   31   29 1    
    48   61   29 1    
    49   35   30 1    
    50   32   31 1    
    51   33   31 1    
    52   62   31 1    
    53   72   32 1    
    54   34   33 1    
    55   35   33 1    
    56   63   33 1    
    57   73   34 1    
    58   36   35 1    
    59   64   35 1    
    60   37   36 ar   
    61   44   36 ar   
    62   38   37 ar   
    63   65   37 1    
    64   39   38 1    
    65   42   38 ar   
    66   40   39 2    
    67   41   39 am   
    68   66   41 1    
    69   67   41 1    
    70   43   42 ar   
    71   68   42 1    
    72   44   43 ar   
    73   69   43 1    
    74   70   44 1    
    75   46   45 ar   
    76   47   45 ar   
    77   48   45 ar   
@<TRIPOS>SUBSTRUCTURE
     1 NAP401      1 GROUP   
@<TRIPOS>SET

