#    Name: 4mvh_2F5_2_INTS_M
#    Modification time : Tue Mar 25 12:24:42 2014

@<TRIPOS>MOLECULE
4mvh_2F5_2_INTS_M
   61     0     6     0     0
SMALL
NO_CHARGES


@<TRIPOS>ATOM
      1 N          23.9310   18.8325   43.9740 N.am      1 SEC2        0.0000 
      2 N          24.3410   17.4300   44.2630 N.am      5 SEL2        0.0000 
      3 N          23.5210   20.2350   43.6850 N.am      3 SEP2        0.0000 
      4 CA         26.2405   22.6055   46.8355 C.3       2 GLC5        0.0000 
      5 CA         25.4060   20.5880   46.9950 C.3       6 GLL5        0.0000 
      6 CA         27.0750   24.6230   46.6760 C.3       4 GLP5        0.0000 
      7 CA         25.8470   23.7725   47.9580 C.3       2 GLC5        0.0000 
      8 CA         24.6190   22.9220   49.2400 C.3       6 GLL5        0.0000 
      9 N          22.7750   22.2025   47.2270 N.am      1 SEC2        0.0000 
     10 N          23.4550   22.9660   48.5490 N.am      5 SEL2        0.0000 
     11 N          22.0950   21.4390   45.9050 N.am      3 SEP2        0.0000 
     12 CA         24.8820   25.1830   49.1025 C.3       2 GLC5        0.0000 
     13 CA         24.8170   23.7620   50.3520 C.3       6 GLL5        0.0000 
     14 CA         24.9470   26.6040   47.8530 C.3       4 GLP5        0.0000 
     15 CA         25.7875   25.7745   49.4395 C.3       2 GLC5        0.0000 
     16 CA         26.6280   24.9450   51.0260 C.3       6 GLL5        0.0000 
     17 CA         28.8000   22.0340   50.2455 C.3       2 GLC5        0.0000 
     18 CA         27.8850   22.6190   52.0980 C.3       6 GLL5        0.0000 
     19 CA         29.7150   21.4490   48.3930 C.3       4 GLP5        0.0000 
     20 CA         25.2085   23.2575   53.3670 C.3       2 GLC5        0.0000 
     21 CA         26.3930   22.6970   51.9230 C.3       6 GLL5        0.0000 
     22 CA         24.0240   23.8180   54.8110 C.3       4 GLP5        0.0000 
     23 CA         24.4250   21.7775   52.1760 C.3       2 GLC5        0.0000 
     24 CA         22.4570   20.8580   52.4290 C.3       4 GLP5        0.0000 
     25 CA         26.4232   16.4795   42.9402 C.3       2 GLC5        0.0000 
     26 CA         24.5170   16.6640   43.1110 C.3       6 GLL5        0.0000 
     27 CA         28.2720   16.1190   43.4550 C.3       4 GLP5        0.0000 
     28 CA         22.7952   16.3700   43.2052 C.3       2 GLC5        0.0000 
     29 CA         21.0160   15.9000   43.9850 C.3       4 GLP5        0.0000 
     30 CA         23.2852   17.5457   40.5907 C.3       2 GLC5        0.0000 
     31 CA         24.6320   17.0160   41.7400 C.3       6 GLL5        0.0000 
     32 CA         21.8550   18.5800   39.9250 C.3       4 GLP5        0.0000 
     33 CA         26.5500   15.7245   42.2120 C.3       2 GLC5        0.0000 
     34 CA         24.7990   16.0070   40.7730 C.3       6 GLL5        0.0000 
     35 CA         23.6725   14.7295   39.5930 C.3       2 GLC5        0.0000 
     36 CA         24.8570   14.6530   41.1650 C.3       6 GLL5        0.0000 
     37 CA         22.5170   14.1290   38.2170 C.3       4 GLP5        0.0000 
     38 CA         26.1980   13.3477   41.5773 C.3       2 GLC5        0.0000 
     39 CA         27.5960   12.2160   41.3190 C.3       4 GLP5        0.0000 
     40 CA         26.4645   15.4703   43.2272 C.3       2 GLC5        0.0000 
     41 CA         24.7430   14.3060   42.5060 C.3       6 GLL5        0.0000 
     42 CA         22.8365   15.3607   43.4922 C.3       2 GLC5        0.0000 
     43 CA         24.5710   15.3370   43.4930 C.3       6 GLL5        0.0000 
     44 CA         26.1653   17.6755   47.7487 C.3       2 GLC5        0.0000 
     45 CA         24.5260   18.3390   47.3120 C.3       6 GLL5        0.0000 
     46 CA         27.8720   16.8850   47.5070 C.3       4 GLP5        0.0000 
     47 CA         26.5750   18.6140   46.2368 C.3       2 GLC5        0.0000 
     48 CA         25.0440   19.3500   46.4680 C.3       6 GLL5        0.0000 
     49 CA         27.9250   17.2590   45.7420 C.3       4 GLP5        0.0000 
     50 CA         20.9108   24.6812   50.1467 C.3       2 GLC5        0.0000 
     51 CA         22.4680   23.8160   48.9260 C.3       6 GLL5        0.0000 
     52 CA         19.2580   25.1320   50.8160 C.3       4 GLP5        0.0000 
     53 CA         23.7552   25.4172   48.6653 C.3       2 GLC5        0.0000 
     54 CA         22.6590   24.6450   50.0290 C.3       6 GLL5        0.0000 
     55 CA         27.9073   26.7067   50.8625 C.3       2 GLC5        0.0000 
     56 CA         28.4440   28.5070   50.5820 C.3       4 GLP5        0.0000 
     57 CA         26.8650   21.1070   53.5247 C.3       2 GLC5        0.0000 
     58 CA         26.5910   19.5560   55.0390 C.3       4 GLP5        0.0000 
     59 CA         22.7204   18.6360   49.0716 C.3       2 GLC5        0.0000 
     60 CA         24.7570   19.8380   49.2020 C.3       6 GLL5        0.0000 
     61 CA         20.8330   18.1200   49.5470 C.3       4 GLP5        0.0000 
@<TRIPOS>BOND
@<TRIPOS>SUBSTRUCTURE
     1 SEC2        1 GROUP        1 X    SEC  0     ROOT SEC X 2
     2 GLC5        4 GROUP        1 X    GLC  0     **** GLC X 6
     3 SEP2        3 GROUP        1 Y    SEP  0     ROOT SEP Y 9
     4 GLP5        6 GROUP        1 Y    GLP  0     **** GLP Y 13
     5 SEL2        2 GROUP        1 Z    SEL  0     ROOT SEL Z 16
     6 GLL5        5 GROUP        1 Z    GLL  0     **** GLL Z 20
@<TRIPOS>SET

