#    Name: 4mvh_2F5_2_ligand
#    Modification time : Tue Mar 25 12:24:42 2014

@<TRIPOS>MOLECULE
4mvh_2F5_2_ligand
   49    53     1     0     0
SMALL
NO_CHARGES


@<TRIPOS>ATOM
      1 O01        23.6700   16.1340   47.5210 O.2       1 2F5808      0.0000 
      2 C02        24.1260   16.9770   46.7640 C.2       1 2F5808      0.0000 
      3 C03        24.2960   16.5970   45.3170 C.2       1 2F5808      0.0000 
      4 N04        24.3410   17.4300   44.2630 N.2       1 2F5808      0.0000 
      5 C05        24.5170   16.6640   43.1110 C.ar      1 2F5808      0.0000 
      6 C06        24.6320   17.0160   41.7400 C.ar      1 2F5808      0.0000 
      7 C07        24.7990   16.0070   40.7730 C.ar      1 2F5808      0.0000 
      8 C08        24.8570   14.6530   41.1650 C.ar      1 2F5808      0.0000 
      9 C09        24.7430   14.3060   42.5060 C.ar      1 2F5808      0.0000 
     10 C10        24.5710   15.3370   43.4930 C.ar      1 2F5808      0.0000 
     11 N11        24.4340   15.3120   44.8700 N.pl3     1 2F5808      0.0000 
     12 C12        24.5260   18.3390   47.3120 C.ar      1 2F5808      0.0000 
     13 C13        25.0440   19.3500   46.4680 C.ar      1 2F5808      0.0000 
     14 C14        25.4060   20.5880   46.9950 C.ar      1 2F5808      0.0000 
     15 C15        25.2580   20.8380   48.3570 C.ar      1 2F5808      0.0000 
     16 O16        25.6430   22.0660   48.8630 O.3       1 2F5808      0.0000 
     17 C17        24.6190   22.9220   49.2400 C.ar      1 2F5808      0.0000 
     18 N18        23.4550   22.9660   48.5490 N.ar      1 2F5808      0.0000 
     19 C19        22.4680   23.8160   48.9260 C.ar      1 2F5808      0.0000 
     20 C20        22.6590   24.6450   50.0290 C.ar      1 2F5808      0.0000 
     21 N21        23.8310   24.6020   50.7250 N.ar      1 2F5808      0.0000 
     22 C22        24.8170   23.7620   50.3520 C.ar      1 2F5808      0.0000 
     23 N23        26.0830   23.7190   51.1000 N.3       1 2F5808      0.0000 
     24 C24        26.6280   24.9450   51.0260 C.3       1 2F5808      0.0000 
     25 C25        28.1130   24.8680   51.2600 C.3       1 2F5808      0.0000 
     26 O26        28.4480   23.9500   52.3570 O.3       1 2F5808      0.0000 
     27 C27        27.8850   22.6190   52.0980 C.3       1 2F5808      0.0000 
     28 C28        26.3930   22.6970   51.9230 C.3       1 2F5808      0.0000 
     29 C29        24.7570   19.8380   49.2020 C.ar      1 2F5808      0.0000 
     30 C30        24.3910   18.5930   48.6690 C.ar      1 2F5808      0.0000 
     31 H          24.5931   17.9953   41.4636 H         1 2F5808      0.0000 
     32 H          24.8786   16.2544   39.7835 H         1 2F5808      0.0000 
     33 H          24.9842   13.9274   40.4493 H         1 2F5808      0.0000 
     34 H          24.7784   13.3352   42.8088 H         1 2F5808      0.0000 
     35 H          24.4367   14.5228   45.4101 H         1 2F5808      0.0000 
     36 H          25.1497   19.1611   45.4653 H         1 2F5808      0.0000 
     37 H          25.7831   21.3182   46.3769 H         1 2F5808      0.0000 
     38 H          21.5763   23.8610   48.4109 H         1 2F5808      0.0000 
     39 H          21.9020   25.2904   50.3105 H         1 2F5808      0.0000 
     40 H          26.2198   25.6554   51.7770 H         1 2F5808      0.0000 
     41 H          26.4823   25.4338   50.0386 H         1 2F5808      0.0000 
     42 H          28.4893   25.8800   51.4827 H         1 2F5808      0.0000 
     43 H          28.6019   24.5408   50.3277 H         1 2F5808      0.0000 
     44 H          28.1098   21.9412   52.9316 H         1 2F5808      0.0000 
     45 H          28.3269   22.1881   51.1903 H         1 2F5808      0.0000 
     46 H          26.0590   21.7100   51.5426 H         1 2F5808      0.0000 
     47 H          25.9526   22.7997   52.9359 H         1 2F5808      0.0000 
     48 H          24.6583   20.0151   50.2048 H         1 2F5808      0.0000 
     49 H          24.0191   17.8650   49.2971 H         1 2F5808      0.0000 
@<TRIPOS>BOND
     1    2    1 2    
     2    3    2 1    
     3   12    2 1    
     4    4    3 2    
     5   11    3 1    
     6    5    4 1    
     7    6    5 ar   
     8   10    5 ar   
     9    7    6 ar   
    10   31    6 1    
    11    8    7 ar   
    12   32    7 1    
    13    9    8 ar   
    14   33    8 1    
    15   10    9 ar   
    16   34    9 1    
    17   11   10 1    
    18   35   11 1    
    19   13   12 ar   
    20   30   12 ar   
    21   14   13 ar   
    22   36   13 1    
    23   15   14 ar   
    24   37   14 1    
    25   16   15 1    
    26   29   15 ar   
    27   17   16 1    
    28   18   17 ar   
    29   22   17 ar   
    30   19   18 ar   
    31   20   19 ar   
    32   38   19 1    
    33   21   20 ar   
    34   39   20 1    
    35   22   21 ar   
    36   23   22 1    
    37   24   23 1    
    38   28   23 1    
    39   25   24 1    
    40   40   24 1    
    41   41   24 1    
    42   26   25 1    
    43   42   25 1    
    44   43   25 1    
    45   27   26 1    
    46   28   27 1    
    47   44   27 1    
    48   45   27 1    
    49   46   28 1    
    50   47   28 1    
    51   30   29 ar   
    52   48   29 1    
    53   49   30 1    
@<TRIPOS>SUBSTRUCTURE
     1 2F5808      1 GROUP   
@<TRIPOS>SET

