#    Name: 3M67_1_CAVITY_N1_6.mol2
#    Modification time : Tue Mar 11 13:00:15 2014

@<TRIPOS>MOLECULE
3M67_1_CAVITY_N1_6.mol2
   84     0     6     0     0
SMALL
NO_CHARGES


@<TRIPOS>ATOM
      1 CA         -0.1505    6.0321   13.4453 C.3       5 GLY6        0.0000 
      2 N           0.8720    4.6796   12.1704 N.2       2 ALA2        0.0000 
      3 CA         -2.1771    6.3188   15.0456 C.3       5 GLY6        0.0000 
      4 N          -1.1546    4.9663   13.7707 N.2       2 ALA2        0.0000 
      5 DU         -2.2655    5.9583   13.5922 H         6 CUB7        0.0000 
      6 CZ         -3.3763    6.9504   13.4137 C.ar      4 PHE5        0.0000 
      7 N          -0.1321    3.6138   12.4958 N.2       2 ALA2        0.0000 
      8 N          -1.2430    4.6059   12.3173 N.2       2 ALA2        0.0000 
      9 DU         -2.3538    5.5979   12.1388 H         6 CUB7        0.0000 
     10 DU         -3.4647    6.5899   11.9603 H         6 CUB7        0.0000 
     11 CZ         -5.6864    8.5740   11.6033 C.ar      4 PHE5        0.0000 
     12 CZ         -0.2205    3.2534   11.0425 C.ar      4 PHE5        0.0000 
     13 DU         -1.3313    4.2454   10.8640 H         6 CUB7        0.0000 
     14 DU         -2.4422    5.2374   10.6855 H         6 CUB7        0.0000 
     15 CA         -0.3088    2.8929    9.5891 C.3       5 GLY6        0.0000 
     16 O          -1.4197    3.8850    9.4106 O.2       2 ALA2        0.0000 
     17 CA         -3.1812    5.2530   15.3709 C.3       5 GLY6        0.0000 
     18 CZ         -4.2920    6.2450   15.1924 C.ar      4 PHE5        0.0000 
     19 OG         -2.1587    3.9005   14.0961 O.2       1 SER1        0.0000 
     20 OG         -3.2695    4.8925   13.9176 O.2       1 SER1        0.0000 
     21 CZ         -4.3804    5.8846   13.7391 C.ar      4 PHE5        0.0000 
     22 OG         -2.2470    3.5401   12.6427 O.2       1 SER1        0.0000 
     23 DU         -3.3579    4.5321   12.4642 H         6 CUB7        0.0000 
     24 O          -4.4688    5.5241   12.2857 O.2       2 ALA2        0.0000 
     25 CZ         -5.5796    6.5161   12.1072 C.ar      4 PHE5        0.0000 
     26 CZ         -6.6905    7.5082   11.9287 C.ar      4 PHE5        0.0000 
     27 CA         -7.8013    8.5002   11.7502 C.3       5 GLY6        0.0000 
     28 OG         -1.2245    2.1876   11.3678 O.2       1 SER1        0.0000 
     29 O          -2.3354    3.1796   11.1893 O.2       2 ALA2        0.0000 
     30 DU         -3.4463    4.1716   11.0108 H         6 CUB7        0.0000 
     31 O          -4.5571    5.1637   10.8323 O.2       2 ALA2        0.0000 
     32 O          -5.6680    6.1557   10.6539 O.2       2 ALA2        0.0000 
     33 O          -6.7788    7.1477   10.4754 O.2       2 ALA2        0.0000 
     34 O          -1.3129    1.8271    9.9145 O.2       2 ALA2        0.0000 
     35 O          -3.5346    3.8112    9.5575 O.2       2 ALA2        0.0000 
     36 OG         -3.0744    3.1951   15.8748 O.2       1 SER1        0.0000 
     37 CA         -4.1853    4.1872   15.6963 C.3       5 GLY6        0.0000 
     38 CA         -5.2961    5.1792   15.5178 C.3       5 GLY6        0.0000 
     39 CZ         -6.4070    6.1712   15.3393 C.ar      4 PHE5        0.0000 
     40 OG         -4.2736    3.8267   14.2429 O.2       1 SER1        0.0000 
     41 CZ         -5.3845    4.8188   14.0645 C.ar      4 PHE5        0.0000 
     42 CZ         -6.4953    5.8108   13.8860 C.ar      4 PHE5        0.0000 
     43 OG         -3.2511    2.4742   12.9681 O.2       1 SER1        0.0000 
     44 O          -4.3620    3.4663   12.7896 O.2       2 ALA2        0.0000 
     45 O          -5.4728    4.4583   12.6111 O.2       2 ALA2        0.0000 
     46 O          -6.5837    5.4503   12.4326 O.2       2 ALA2        0.0000 
     47 CA         -7.6946    6.4424   12.2541 C.3       5 GLY6        0.0000 
     48 CA         -2.2286    1.1218   11.6932 C.3       5 GLY6        0.0000 
     49 OG         -3.3395    2.1138   11.5147 O.2       1 SER1        0.0000 
     50 O          -4.4503    3.1058   11.3362 O.2       2 ALA2        0.0000 
     51 O          -2.3170    0.7613   10.2398 O.2       2 ALA2        0.0000 
     52 O          -3.4278    1.7533   10.0613 O.2       2 ALA2        0.0000 
     53 N          -4.5387    2.7454    9.8829 N.2       2 ALA2        0.0000 
     54 CA         -6.2118    4.4738   17.2966 C.3       5 GLY6        0.0000 
     55 CA         -7.3227    5.4659   17.1181 C.3       5 GLY6        0.0000 
     56 OG         -4.0785    2.1293   16.2002 O.2       1 SER1        0.0000 
     57 CA         -5.1893    3.1214   16.0217 C.3       5 GLY6        0.0000 
     58 CA         -6.3002    4.1134   15.8432 C.3       5 GLY6        0.0000 
     59 OG         -4.1668    1.7689   14.7468 O.2       1 SER1        0.0000 
     60 DU         -5.2777    2.7609   14.5683 H         6 CUB7        0.0000 
     61 CA         -6.3886    3.7529   14.3898 C.3       5 GLY6        0.0000 
     62 CA         -7.4994    4.7450   14.2113 C.3       5 GLY6        0.0000 
     63 OG         -4.2552    1.4084   13.2935 O.2       1 SER1        0.0000 
     64 O          -5.3661    2.4005   13.1150 O.2       2 ALA2        0.0000 
     65 O          -6.4769    3.3925   12.9365 O.2       2 ALA2        0.0000 
     66 CA         -3.2327    0.0560   12.0186 C.3       5 GLY6        0.0000 
     67 N          -4.3436    1.0480   11.8401 N.2       2 ALA2        0.0000 
     68 O          -5.4544    2.0400   11.6616 O.2       2 ALA2        0.0000 
     69 CA         -2.2102   -1.2965   10.7437 C.3       5 GLY6        0.0000 
     70 CA         -3.3211   -0.3045   10.5652 C.3       5 GLY6        0.0000 
     71 O          -4.4319    0.6875   10.3867 O.2       2 ALA2        0.0000 
     72 O          -3.4094   -0.6649    9.1119 O.2       2 ALA2        0.0000 
     73 CA         -6.1051    2.4160   17.8004 C.3       5 GLY6        0.0000 
     74 CA         -7.2159    3.4080   17.6219 C.3       5 GLY6        0.0000 
     75 OD1        -5.0826    1.0635   16.5256 O.3       3 ASP3        0.0000 
     76 OD1        -6.1934    2.0556   16.3471 O.3       3 ASP3        0.0000 
     77 CA         -7.3043    3.0476   16.1686 C.3       5 GLY6        0.0000 
     78 OD1        -5.1709    0.7031   15.0722 O.3       3 ASP3        0.0000 
     79 CA         -3.1259   -2.0019   12.5225 C.3       5 GLY6        0.0000 
     80 CA         -4.2368   -1.0099   12.3440 C.3       5 GLY6        0.0000 
     81 CA         -5.3476   -0.0178   12.1655 C.3       5 GLY6        0.0000 
     82 CA         -3.2143   -2.3623   11.0691 C.3       5 GLY6        0.0000 
     83 CA         -4.3251   -1.3703   10.8906 C.3       5 GLY6        0.0000 
     84 CA         -5.4360   -0.3783   10.7121 C.3       5 GLY6        0.0000 
@<TRIPOS>BOND
@<TRIPOS>SUBSTRUCTURE
     1 SER1       19 GROUP   
     2 ALA2        2 GROUP   
     3 ASP3       75 GROUP   
     4 PHE5        6 GROUP   
     5 GLY6        1 GROUP   
     6 CUB7        5 GROUP   
@<TRIPOS>SET

