#    Name: 3m67_E36_1_INTS_M
#    Modification time : Mon Mar 24 22:45:51 2014

@<TRIPOS>MOLECULE
3m67_E36_1_INTS_M
   45     0    12     0     0
SMALL
NO_CHARGES


@<TRIPOS>ATOM
      1 CA         -1.2435   10.7690   16.2435 C.3       4 GLC5        0.0000 
      2 CA         -0.2270    9.8520   14.9910 C.3      12 GLL5        0.0000 
      3 CA         -2.2600   11.6860   17.4960 C.3       8 GLP5        0.0000 
      4 CA          0.9815    8.5260   15.7175 C.3       4 GLC5        0.0000 
      5 CA          2.1900    7.2000   16.4440 C.3       8 GLP5        0.0000 
      6 CA          0.1960    9.7090   16.9595 C.3       4 GLC5        0.0000 
      7 CA          0.6190    9.5660   18.9280 C.3       8 GLP5        0.0000 
      8 CA         -0.3910    1.5555    9.6500 C.3       4 GLC5        0.0000 
      9 CA         -1.7000    2.6640   10.8590 C.3      12 GLL5        0.0000 
     10 CA          0.9180    0.4470    8.4410 C.3       8 GLP5        0.0000 
     11 CA         -2.1185    0.7300   13.2525 C.3       4 GLC5        0.0000 
     12 CA         -2.8380    2.0910   12.2030 C.3      12 GLL5        0.0000 
     13 CA         -1.3990   -0.6310   14.3020 C.3       8 GLP5        0.0000 
     14 CA         -7.6830    5.3220   15.4115 C.3       4 GLC5        0.0000 
     15 CA         -5.8820    4.7600   15.2190 C.3      12 GLL5        0.0000 
     16 CA         -9.4840    5.8840   15.6040 C.3       8 GLP5        0.0000 
     17 CA         -6.3660    6.1030   16.9450 C.3       4 GLC5        0.0000 
     18 CA         -6.8500    7.4460   18.6710 C.3       8 GLP5        0.0000 
     19 CA         -8.1390    4.9065   16.5925 C.3       4 GLC5        0.0000 
     20 CA         -6.7940    3.9290   17.5810 C.3      12 GLL5        0.0000 
     21 CA         -6.8220    5.6875   18.1260 C.3       4 GLC5        0.0000 
     22 CA         -8.2045    3.5365   18.5040 C.3       4 GLC5        0.0000 
     23 CA         -9.6150    3.1440   19.4270 C.3       8 GLP5        0.0000 
     24 CA         -5.3290    4.6320   18.0820 C.3       4 GLC5        0.0000 
     25 CA         -3.8640    5.3350   18.5830 C.3       8 GLP5        0.0000 
     26 CA         -6.4450    4.3055   19.6605 C.3       4 GLC5        0.0000 
     27 CA         -6.0960    4.6820   21.7400 C.3       8 GLP5        0.0000 
     28 N          -3.9670    0.7300   18.6795 N.am      2 SEC2        0.0000 
     29 N          -5.2700    1.1430   18.2330 N.am     10 SEL2        0.0000 
     30 N          -2.6640    0.3170   19.1260 N.am      6 SEP2        0.0000 
     31 O          -4.3415   -1.2215   16.8255 O.2       1 ALC1        0.0000 
     32 O          -5.1900   -0.3770   16.0070 O.2       9 ALL1        0.0000 
     33 O          -3.4930   -2.0660   17.6440 O.2       5 ALP1        0.0000 
     34 Zn         -5.8930   -0.9965   15.6675 Zn        3 ZIC7        0.0000 
     35 Zn         -5.1900   -0.3770   16.0070 Zn       11 ZIL7        0.0000 
     36 Zn         -6.5960   -1.6160   15.3280 Zn        7 ZIP7        0.0000 
     37 CA         -1.5577    6.5015   15.7888 C.3       4 GLC5        0.0000 
     38 CA         -1.6090    6.8340   14.1510 C.3      12 GLL5        0.0000 
     39 CA         -1.6110    5.5230   17.5150 C.3       8 GLP5        0.0000 
     40 CA          0.0819    6.3933   14.5491 C.3       4 GLC5        0.0000 
     41 CA          1.6970    6.0330   15.6010 C.3       8 GLP5        0.0000 
     42 CA         -7.7352    3.2365   15.4123 C.3       4 GLC5        0.0000 
     43 CA         -6.0250    3.7320   16.0690 C.3      12 GLL5        0.0000 
     44 CA         -9.6650    3.4240   14.8960 C.3       8 GLP5        0.0000 
     45 CA         -4.8539    4.6197   17.0784 C.3       4 GLC5        0.0000 
@<TRIPOS>BOND
@<TRIPOS>SUBSTRUCTURE
     1 ALC1       31 GROUP        1 X    ALC  0     ROOT ALC X 1
     2 SEC2       28 GROUP        1 X    SEC  0     **** SEC X 2
     3 ZIC7       34 GROUP        1 X    ZIC  0     **** ZIC X 5
     4 GLC5        1 GROUP        1 X    GLC  0     **** GLC X 6
     5 ALP1       33 GROUP        1 Y    ALP  0     ROOT ALP Y 8
     6 SEP2       30 GROUP        1 Y    SEP  0     **** SEP Y 9
     7 ZIP7       36 GROUP        1 Y    ZIP  0     **** ZIP Y 12
     8 GLP5        3 GROUP        1 Y    GLP  0     **** GLP Y 13
     9 ALL1       32 GROUP        1 Z    ALL  0     ROOT ALL Z 15
    10 SEL2       29 GROUP        1 Z    SEL  0     **** SEL Z 16
    11 ZIL7       35 GROUP        1 Z    ZIL  0     **** ZIL Z 19
    12 GLL5        2 GROUP        1 Z    GLL  0     **** GLL Z 20
@<TRIPOS>SET

