#    Name: 3m67_E36_1_ligand
#    Modification time : Mon Mar 24 22:45:51 2014

@<TRIPOS>MOLECULE
3m67_E36_1_ligand
   41    44     1     0     0
SMALL
NO_CHARGES


@<TRIPOS>ATOM
      1 O1         -0.9270   10.1030   12.6310 O.3       1 E36262      0.0000 
      2 C2         -0.0930   10.6550   13.6500 C.3       1 E36262      0.0000 
      3 C3         -0.2270    9.8520   14.9910 C.3       1 E36262      0.0000 
      4 O4         -1.3620    9.0050   15.0230 O.3       1 E36262      0.0000 
      5 C5         -1.4000    8.1260   13.9740 C.ar      1 E36262      0.0000 
      6 C6         -1.1380    8.7250   12.6270 C.ar      1 E36262      0.0000 
      7 C7         -1.1110    7.9580   11.5160 C.ar      1 E36262      0.0000 
      8 C8         -1.3320    6.5110   11.7280 C.ar      1 E36262      0.0000 
      9 N9         -1.3290    5.4380   10.7570 N.2       1 E36262      0.0000 
     10 C10        -1.5480    4.3620   11.4530 C.2       1 E36262      0.0000 
     11 N11        -1.7210    4.6760   12.8490 N.pl3     1 E36262      0.0000 
     12 C12        -1.5620    6.0270   12.9320 C.ar      1 E36262      0.0000 
     13 C13        -1.6090    6.8340   14.1510 C.ar      1 E36262      0.0000 
     14 S14        -1.7000    2.6640   10.8590 S.3       1 E36262      0.0000 
     15 C15        -2.8380    2.0910   12.2030 C.3       1 E36262      0.0000 
     16 C16        -4.0810    3.0480   12.3070 C.2       1 E36262      0.0000 
     17 O17        -4.5050    3.6230   11.2210 O.2       1 E36262      0.0000 
     18 C18        -4.7750    3.2600   13.6590 C.ar      1 E36262      0.0000 
     19 C19        -4.9800    2.1460   14.6020 C.ar      1 E36262      0.0000 
     20 C20        -5.5860    2.3660   15.7880 C.ar      1 E36262      0.0000 
     21 C21        -6.0250    3.7320   16.0690 C.ar      1 E36262      0.0000 
     22 C22        -5.8820    4.7600   15.2190 C.ar      1 E36262      0.0000 
     23 C23        -5.2350    4.5050   13.9510 C.ar      1 E36262      0.0000 
     24 S24        -5.8860    0.9300   16.8560 S.o2      1 E36262      0.0000 
     25 O25        -7.4410    0.8990   16.8550 O.2       1 E36262      0.0000 
     26 CL26       -6.7940    3.9290   17.5810 Cl        1 E36262      0.0000 
     27 O27        -5.2700    1.1430   18.2330 O.2       1 E36262      0.0000 
     28 N28        -5.1900   -0.3770   16.0070 N.pl3     1 E36262      0.0000 
     29 H          -0.3524   11.6974   13.8807 H         1 E36262      0.0000 
     30 H           0.9704   10.6322   13.3750 H         1 E36262      0.0000 
     31 H          -0.2426   10.6060   15.8034 H         1 E36262      0.0000 
     32 H           0.7204    9.2893   15.1112 H         1 E36262      0.0000 
     33 H          -0.9580    8.2829   10.5911 H         1 E36262      0.0000 
     34 H          -1.9007    4.0569   13.5115 H         1 E36262      0.0000 
     35 H          -1.7902    6.3762   15.0163 H         1 E36262      0.0000 
     36 H          -2.2153    2.1257   13.0518 H         1 E36262      0.0000 
     37 H          -3.0881    1.1190   11.8835 H         1 E36262      0.0000 
     38 H          -4.6432    1.2260   14.3065 H         1 E36262      0.0000 
     39 H          -6.2002    5.7027   15.4132 H         1 E36262      0.0000 
     40 H          -5.1419    5.2902   13.2977 H         1 E36262      0.0000 
     41 H          -4.3128   -0.5409   16.4584 H         1 E36262      0.0000 
@<TRIPOS>BOND
     1    2    1 1    
     2    6    1 1    
     3    3    2 1    
     4   29    2 1    
     5   30    2 1    
     6    4    3 1    
     7   31    3 1    
     8   32    3 1    
     9    5    4 1    
    10    6    5 ar   
    11   13    5 ar   
    12    7    6 ar   
    13    8    7 ar   
    14   33    7 1    
    15    9    8 1    
    16   12    8 ar   
    17   10    9 2    
    18   11   10 1    
    19   14   10 1    
    20   12   11 1    
    21   34   11 1    
    22   13   12 ar   
    23   35   13 1    
    24   15   14 1    
    25   16   15 1    
    26   36   15 1    
    27   37   15 1    
    28   17   16 2    
    29   18   16 1    
    30   19   18 ar   
    31   23   18 ar   
    32   20   19 ar   
    33   38   19 1    
    34   21   20 ar   
    35   24   20 1    
    36   22   21 ar   
    37   26   21 1    
    38   23   22 ar   
    39   39   22 1    
    40   40   23 1    
    41   25   24 2    
    42   27   24 2    
    43   28   24 1    
    44   41   28 1    
@<TRIPOS>SUBSTRUCTURE
     1 E36262      1 GROUP   
@<TRIPOS>SET

