#    Name: 1SNF_1_CAVITY_N1_6.mol2
#    Modification time : Tue Mar 11 08:38:53 2014

@<TRIPOS>MOLECULE
1SNF_1_CAVITY_N1_6.mol2
   61     0     6     0     0
SMALL
NO_CHARGES


@<TRIPOS>ATOM
      1 CA         27.3902   -7.3195  -10.8086 C.3       5 GLY6        0.0000 
      2 CA         22.7570  -15.4109   -7.0254 C.3       5 GLY6        0.0000 
      3 OG         22.9071  -14.2881   -8.0087 O.2       1 SER1        0.0000 
      4 CA         21.5127  -15.8625   -7.7309 C.3       5 GLY6        0.0000 
      5 CA         21.6628  -14.7397   -8.7142 C.3       5 GLY6        0.0000 
      6 NZ         27.6603   -7.1044   -8.2335 N.2       3 LYS4        0.0000 
      7 NZ         26.4160   -7.5560   -8.9391 N.2       3 LYS4        0.0000 
      8 NZ         26.5661   -6.4332   -9.9224 N.2       3 LYS4        0.0000 
      9 CZ         25.0217   -9.1303   -8.6613 C.ar      4 PHE5        0.0000 
     10 CZ         25.1717   -8.0076   -9.6446 C.ar      4 PHE5        0.0000 
     11 DU         23.0271  -15.1958   -4.4503 H         6 CUB7        0.0000 
     12 DU         23.1772  -14.0730   -5.4336 H         6 CUB7        0.0000 
     13 OG         23.3272  -12.9502   -6.4169 O.2       1 SER1        0.0000 
     14 OG         23.4773  -11.8275   -7.4002 O.2       1 SER1        0.0000 
     15 CZ         23.6273  -10.7047   -8.3835 C.ar      4 PHE5        0.0000 
     16 CZ         23.7774   -9.5819   -9.3668 C.ar      4 PHE5        0.0000 
     17 CA         21.7828  -15.6474   -5.1559 C.3       5 GLY6        0.0000 
     18 CA         21.9329  -14.5246   -6.1392 C.3       5 GLY6        0.0000 
     19 DU         22.0829  -13.4018   -7.1225 H         6 CUB7        0.0000 
     20 OG         22.2330  -12.2791   -8.1058 O.2       1 SER1        0.0000 
     21 CZ         22.3830  -11.1563   -9.0891 C.ar      4 PHE5        0.0000 
     22 CA         20.6886  -14.9762   -6.8447 C.3       5 GLY6        0.0000 
     23 CA         20.8386  -13.8534   -7.8280 C.3       5 GLY6        0.0000 
     24 OG         20.9887  -12.7307   -8.8113 O.2       1 SER1        0.0000 
     25 NZ         25.4418   -7.7925   -7.0696 N.2       3 LYS4        0.0000 
     26 OG         24.0475   -9.3669   -6.7918 O.2       1 SER1        0.0000 
     27 NZ         24.1975   -8.2441   -7.7751 N.2       3 LYS4        0.0000 
     28 NZ         24.3476   -7.1213   -8.7584 N.2       3 LYS4        0.0000 
     29 N          22.2030  -14.3095   -3.5642 N.2       2 ALA2        0.0000 
     30 OG         22.3530  -13.1868   -4.5475 O.2       1 SER1        0.0000 
     31 OG         22.6531  -10.9412   -6.5140 O.2       1 SER1        0.0000 
     32 OG         22.8032   -9.8185   -7.4973 O.2       1 SER1        0.0000 
     33 N          22.9532   -8.6957   -8.4806 N.2       2 ALA2        0.0000 
     34 CZ         23.1033   -7.5729   -9.4639 C.ar      4 PHE5        0.0000 
     35 CA         20.9587  -14.7611   -4.2697 C.3       5 GLY6        0.0000 
     36 CA         21.1087  -13.6384   -5.2530 C.3       5 GLY6        0.0000 
     37 OG         21.2588  -12.5156   -6.2363 O.2       1 SER1        0.0000 
     38 OG         21.4088  -11.3928   -7.2196 O.2       1 SER1        0.0000 
     39 CZ         21.5589  -10.2701   -8.2029 C.ar      4 PHE5        0.0000 
     40 CA         21.7089   -9.1473   -9.1862 C.3       5 GLY6        0.0000 
     41 CA         19.8644  -14.0900   -5.9585 C.3       5 GLY6        0.0000 
     42 N          20.0145  -12.9672   -6.9418 N.2       2 ALA2        0.0000 
     43 N          20.1645  -11.8444   -7.9251 N.2       2 ALA2        0.0000 
     44 CA         20.3146  -10.7217   -8.9084 C.3       5 GLY6        0.0000 
     45 N          21.9791   -8.9322   -6.6112 N.2       2 ALA2        0.0000 
     46 OG         20.1345  -13.8749   -3.3835 O.2       1 SER1        0.0000 
     47 CA         20.2846  -12.7521   -4.3668 C.3       5 GLY6        0.0000 
     48 CA         20.4346  -11.6293   -5.3501 C.3       5 GLY6        0.0000 
     49 CA         20.5847  -10.5066   -6.3334 C.3       5 GLY6        0.0000 
     50 N          20.7348   -9.3838   -7.3167 N.2       2 ALA2        0.0000 
     51 CA         20.8848   -8.2610   -8.3000 C.3       5 GLY6        0.0000 
     52 CA         19.0403  -13.2037   -5.0723 C.3       5 GLY6        0.0000 
     53 N          19.1904  -12.0809   -6.0556 N.2       2 ALA2        0.0000 
     54 N          19.3404  -10.9582   -7.0389 N.2       2 ALA2        0.0000 
     55 CA         19.4905   -9.8354   -8.0222 C.3       5 GLY6        0.0000 
     56 O          19.7606   -9.6203   -5.4472 O.2       2 ALA2        0.0000 
     57 N          19.9106   -8.4975   -6.4305 N.2       2 ALA2        0.0000 
     58 O          18.2162  -12.3174   -4.1861 O.2       2 ALA2        0.0000 
     59 O          18.3662  -11.1947   -5.1694 O.2       2 ALA2        0.0000 
     60 O          18.5163  -10.0719   -6.1527 O.2       2 ALA2        0.0000 
     61 CA         18.6663   -8.9491   -7.1360 C.3       5 GLY6        0.0000 
@<TRIPOS>BOND
@<TRIPOS>SUBSTRUCTURE
     1 SER1        3 GROUP   
     2 ALA2       29 GROUP   
     3 LYS4        6 GROUP   
     4 PHE5        9 GROUP   
     5 GLY6        1 GROUP   
     6 CUB7       11 GROUP   
@<TRIPOS>SET

