#    Name: 1snf_UMP_1_INTS_M
#    Modification time : Tue Mar 25 02:33:16 2014

@<TRIPOS>MOLECULE
1snf_UMP_1_INTS_M
   45     0     9     0     0
SMALL
NO_CHARGES


@<TRIPOS>ATOM
      1 O          17.7005  -11.7410   -7.6760 O.2       1 ALC1        0.0000 
      2 O          18.5430  -10.6580   -7.7340 O.2       7 ALL1        0.0000 
      3 O          16.8580  -12.8240   -7.6180 O.2       4 ALP1        0.0000 
      4 CA         17.9305   -7.8210   -5.4355 C.3       3 GLC5        0.0000 
      5 CA         19.2840   -9.0000   -6.1400 C.3       9 GLL5        0.0000 
      6 CA         16.5770   -6.6420   -4.7310 C.3       6 GLP5        0.0000 
      7 N          18.8325  -12.5685   -9.6810 N.am      2 SEC2        0.0000 
      8 N          19.9320  -11.6030   -9.1370 N.am      8 SEL2        0.0000 
      9 N          17.7330  -13.5340  -10.2250 N.am      5 SEP2        0.0000 
     10 CA         22.8020  -10.7135   -9.8630 C.3       3 GLC5        0.0000 
     11 CA         22.2750  -10.0430   -8.1470 C.3       9 GLL5        0.0000 
     12 CA         23.3290  -11.3840  -11.5790 C.3       6 GLP5        0.0000 
     13 CA         22.6335   -8.9230  -10.6175 C.3       3 GLC5        0.0000 
     14 CA         22.4820   -8.7030   -8.8750 C.3       9 GLL5        0.0000 
     15 CA         22.7850   -9.1430  -12.3600 C.3       6 GLP5        0.0000 
     16 CA         21.9945   -6.3990   -8.8835 C.3       3 GLC5        0.0000 
     17 CA         23.4470   -7.8320   -8.0830 C.3       9 GLL5        0.0000 
     18 CA         20.5420   -4.9660   -9.6840 C.3       6 GLP5        0.0000 
     19 CA         23.7775   -8.2840  -10.1220 C.3       3 GLC5        0.0000 
     20 CA         24.1080   -8.7360  -12.1610 C.3       6 GLP5        0.0000 
     21 CA         24.6280   -9.3100   -9.5520 C.3       3 GLC5        0.0000 
     22 CA         24.2710   -8.9590   -7.4390 C.3       9 GLL5        0.0000 
     23 CA         24.9850   -9.6610  -11.6650 C.3       6 GLP5        0.0000 
     24 N          23.4260   -5.4700   -9.4550 N.am      2 SEC2        0.0000 
     25 N          24.1190   -6.8410   -8.8500 N.am      8 SEL2        0.0000 
     26 N          22.7330   -4.0990  -10.0600 N.am      5 SEP2        0.0000 
     27 O          24.7375   -5.6860   -8.3025 O.2       1 ALC1        0.0000 
     28 O          24.1190   -6.8410   -8.8500 O.2       7 ALL1        0.0000 
     29 O          25.3560   -4.5310   -7.7550 O.2       4 ALP1        0.0000 
     30 N          23.4150   -9.4155   -4.4015 N.am      2 SEC2        0.0000 
     31 N          24.1270   -8.4660   -5.0160 N.am      8 SEL2        0.0000 
     32 N          22.7030  -10.3650   -3.7870 N.am      5 SEP2        0.0000 
     33 N          22.4570   -8.3430   -2.1615 N.am      2 SEC2        0.0000 
     34 N          22.6270   -7.2780   -3.2200 N.am      8 SEL2        0.0000 
     35 N          22.2870   -9.4080   -1.1030 N.am      5 SEP2        0.0000 
     36 N          22.5805   -5.7985   -2.6420 N.am      2 SEC2        0.0000 
     37 N          22.5340   -4.3190   -2.0640 N.am      5 SEP2        0.0000 
     38 N          23.4585   -5.1760   -3.1495 N.am      2 SEC2        0.0000 
     39 N          24.3830   -6.0330   -4.2350 N.am      8 SEL2        0.0000 
     40 CA         19.4070   -8.4345   -8.1265 C.3       3 GLC5        0.0000 
     41 CA         20.5700   -9.1420   -6.6560 C.3       9 GLL5        0.0000 
     42 CA         18.8870   -7.7980   -9.8550 C.3       6 GLP5        0.0000 
     43 CA         20.6785   -9.8025   -4.7870 C.3       3 GLC5        0.0000 
     44 CA         21.4300  -10.5340   -3.1760 C.3       6 GLP5        0.0000 
     45 CA         20.6328   -8.5855   -9.1830 C.3       3 GLC5        0.0000 
@<TRIPOS>BOND
@<TRIPOS>SUBSTRUCTURE
     1 ALC1        1 GROUP        1 X    ALC  0     ROOT ALC X 1
     2 SEC2        7 GROUP        1 X    SEC  0     **** SEC X 2
     3 GLC5        4 GROUP        1 X    GLC  0     **** GLC X 6
     4 ALP1        3 GROUP        1 Y    ALP  0     ROOT ALP Y 8
     5 SEP2        9 GROUP        1 Y    SEP  0     **** SEP Y 9
     6 GLP5        6 GROUP        1 Y    GLP  0     **** GLP Y 13
     7 ALL1        2 GROUP        1 Z    ALL  0     ROOT ALL Z 15
     8 SEL2        8 GROUP        1 Z    SEL  0     **** SEL Z 16
     9 GLL5        5 GROUP        1 Z    GLL  0     **** GLL Z 20
@<TRIPOS>SET

