#    Name: 1snf_UMP_1_ligand
#    Modification time : Tue Mar 25 02:33:16 2014

@<TRIPOS>MOLECULE
1snf_UMP_1_ligand
   31    32     1     0     0
SMALL
NO_CHARGES


@<TRIPOS>ATOM
      1 N1         20.8630  -10.0180   -7.6890 N.am      1 UMP1170     0.0000 
      2 C2         19.8330  -10.7830   -8.2330 C.2       1 UMP1170     0.0000 
      3 N3         18.5430  -10.6580   -7.7340 N.am      1 UMP1170     0.0000 
      4 C4         18.2550   -9.7650   -6.6980 C.2       1 UMP1170     0.0000 
      5 C5         19.2840   -9.0000   -6.1400 C.2       1 UMP1170     0.0000 
      6 C6         20.5700   -9.1420   -6.6560 C.2       1 UMP1170     0.0000 
      7 O2         19.9320  -11.6030   -9.1370 O.2       1 UMP1170     0.0000 
      8 O4         17.1090   -9.6730   -6.2760 O.2       1 UMP1170     0.0000 
      9 C1'        22.2750  -10.0430   -8.1470 C.3       1 UMP1170     0.0000 
     10 C2'        22.4820   -8.7030   -8.8750 C.3       1 UMP1170     0.0000 
     11 C3'        23.4470   -7.8320   -8.0830 C.3       1 UMP1170     0.0000 
     12 C4'        24.2710   -8.9590   -7.4390 C.3       1 UMP1170     0.0000 
     13 O3'        24.1190   -6.8410   -8.8500 O.3       1 UMP1170     0.0000 
     14 O4'        23.3690  -10.0530   -7.2440 O.3       1 UMP1170     0.0000 
     15 C5'        24.9520   -8.4340   -6.1710 C.3       1 UMP1170     0.0000 
     16 O5'        24.1270   -8.4660   -5.0160 O.3       1 UMP1170     0.0000 
     17 P          24.0820   -7.4660   -3.7210 P.3       1 UMP1170     0.0000 
     18 OP1        25.0580   -7.8940   -2.6590 O.co2     1 UMP1170     0.0000 
     19 OP2        22.6270   -7.2780   -3.2200 O.co2     1 UMP1170     0.0000 
     20 OP3        24.3830   -6.0330   -4.2350 O.co2     1 UMP1170     0.0000 
     21 H          17.7808  -11.2329   -8.1325 H         1 UMP1170     0.0000 
     22 H          19.0957   -8.3570   -5.3769 H         1 UMP1170     0.0000 
     23 H          21.3402   -8.5652   -6.2469 H         1 UMP1170     0.0000 
     24 H          22.4019  -10.7853   -8.9372 H         1 UMP1170     0.0000 
     25 H          21.5269   -8.1997   -8.9662 H         1 UMP1170     0.0000 
     26 H          22.8892   -8.8959   -9.8603 H         1 UMP1170     0.0000 
     27 H          22.8376   -7.4180   -7.2639 H         1 UMP1170     0.0000 
     28 H          25.0434   -9.2182   -8.1641 H         1 UMP1170     0.0000 
     29 H          25.3034   -7.3994   -6.3933 H         1 UMP1170     0.0000 
     30 H          25.8805   -9.0342   -6.0264 H         1 UMP1170     0.0000 
     31 H          24.4104   -6.1530   -8.1854 H         1 UMP1170     0.0000 
@<TRIPOS>BOND
     1    2    1 1    
     2    6    1 1    
     3    9    1 1    
     4    3    2 1    
     5    7    2 2    
     6    4    3 1    
     7   21    3 1    
     8    5    4 1    
     9    8    4 2    
    10    6    5 2    
    11   22    5 1    
    12   23    6 1    
    13   10    9 1    
    14   14    9 1    
    15   24    9 1    
    16   11   10 1    
    17   25   10 1    
    18   26   10 1    
    19   12   11 1    
    20   13   11 1    
    21   27   11 1    
    22   14   12 1    
    23   15   12 1    
    24   28   12 1    
    25   31   13 1    
    26   16   15 1    
    27   29   15 1    
    28   30   15 1    
    29   17   16 1    
    30   18   17 ar   
    31   19   17 ar   
    32   20   17 ar   
@<TRIPOS>SUBSTRUCTURE
     1 UMP1170     1 GROUP   
@<TRIPOS>SET

