#    Name: 1X6V_1_CAVITY_N1_6.mol2
#    Modification time : Mon Mar 10 17:27:56 2014

@<TRIPOS>MOLECULE
1X6V_1_CAVITY_N1_6.mol2
   75     0     6     0     0
SMALL
NO_CHARGES


@<TRIPOS>ATOM
      1 CA         14.6542   45.7807   75.5043 C.3       5 GLY6        0.0000 
      2 CA         15.7358   44.7610   75.7058 C.3       5 GLY6        0.0000 
      3 CA         14.6853   43.1089   72.9824 C.3       5 GLY6        0.0000 
      4 OG         15.7669   42.0892   73.1838 O.2       1 SER1        0.0000 
      5 OG         16.8484   41.0695   73.3852 O.2       1 SER1        0.0000 
      6 OG         17.9299   40.0499   73.5867 O.2       1 SER1        0.0000 
      7 CA         19.0115   39.0302   73.7881 C.3       5 GLY6        0.0000 
      8 OD1        13.6460   42.0494   73.1998 O.3       3 ASP3        0.0000 
      9 OG         14.7275   41.0297   73.4012 O.2       1 SER1        0.0000 
     10 OG         15.8090   40.0101   73.6027 O.2       1 SER1        0.0000 
     11 CA         16.8906   38.9904   73.8041 C.3       5 GLY6        0.0000 
     12 O          12.6066   40.9900   73.4172 O.2       2 ALA2        0.0000 
     13 O          13.6882   39.9703   73.6187 O.2       2 ALA2        0.0000 
     14 OG         14.7697   38.9506   73.8201 O.2       1 SER1        0.0000 
     15 CA         15.8512   37.9309   74.0215 C.3       5 GLY6        0.0000 
     16 CA         12.6488   38.9108   73.8361 C.3       5 GLY6        0.0000 
     17 CA         13.7303   37.8912   74.0375 C.3       5 GLY6        0.0000 
     18 CA         14.8119   36.8715   74.2390 C.3       5 GLY6        0.0000 
     19 CA         12.6910   36.8317   74.2550 C.3       5 GLY6        0.0000 
     20 OD1        16.8173   43.7414   75.9072 O.3       3 ASP3        0.0000 
     21 OG         14.6964   43.7016   75.9232 O.2       1 SER1        0.0000 
     22 OD1        15.7779   42.6819   76.1246 O.3       3 ASP3        0.0000 
     23 OD1        14.7386   41.6224   76.3421 O.3       3 ASP3        0.0000 
     24 N          15.7192   43.8720   71.2945 N.2       2 ALA2        0.0000 
     25 OG         16.8007   42.8523   71.4959 O.2       1 SER1        0.0000 
     26 OG         18.9638   40.8130   71.8988 O.2       1 SER1        0.0000 
     27 NZ         20.0453   39.7933   72.1002 N.2       4 LYS4        0.0000 
     28 CA         14.6798   42.8125   71.5119 C.3       5 GLY6        0.0000 
     29 CA         19.0059   38.7339   72.3177 C.3       5 GLY6        0.0000 
     30 CA         13.6405   41.7531   71.7294 C.3       5 GLY6        0.0000 
     31 CA         17.9666   37.6744   72.5351 C.3       5 GLY6        0.0000 
     32 O          12.6011   40.6936   71.9468 O.2       2 ALA2        0.0000 
     33 OG         13.6826   39.6739   72.1482 O.2       1 SER1        0.0000 
     34 OG         14.7642   38.6543   72.3497 O.2       1 SER1        0.0000 
     35 OG         15.8457   37.6346   72.5511 O.2       1 SER1        0.0000 
     36 O          11.5617   39.6341   72.1642 O.2       2 ALA2        0.0000 
     37 CA         12.6433   38.6145   72.3657 C.3       5 GLY6        0.0000 
     38 DU         13.7248   37.5948   72.5671 H         6 CUB7        0.0000 
     39 CA         14.8063   36.5751   72.7685 C.3       5 GLY6        0.0000 
     40 CA         11.6039   37.5550   72.5831 C.3       5 GLY6        0.0000 
     41 CA         12.6854   36.5353   72.7845 C.3       5 GLY6        0.0000 
     42 CA         13.7670   35.5157   72.9860 C.3       5 GLY6        0.0000 
     43 N          17.8401   43.9118   71.2785 N.2       2 ALA2        0.0000 
     44 CA         18.9216   42.8921   71.4799 C.3       5 GLY6        0.0000 
     45 N          17.8456   44.2081   72.7489 N.2       2 ALA2        0.0000 
     46 O          18.9271   43.1885   72.9504 O.2       2 ALA2        0.0000 
     47 CA         14.6432   45.1880   72.5635 C.3       5 GLY6        0.0000 
     48 N          15.7247   44.1683   72.7649 N.2       2 ALA2        0.0000 
     49 OG         16.8062   43.1487   72.9664 O.2       1 SER1        0.0000 
     50 OG         17.8878   42.1290   73.1678 O.2       1 SER1        0.0000 
     51 OG         18.9693   41.1093   73.3692 O.2       1 SER1        0.0000 
     52 N          16.7696   45.5241   74.0179 N.2       2 ALA2        0.0000 
     53 DU         17.8511   44.5045   74.2193 H         6 CUB7        0.0000 
     54 CA         14.6487   45.4843   74.0339 C.3       5 GLY6        0.0000 
     55 DU         15.7302   44.4647   74.2353 H         6 CUB7        0.0000 
     56 OD1        16.8118   43.4450   74.4368 O.3       3 ASP3        0.0000 
     57 OD1        17.8933   42.4253   74.6382 O.3       3 ASP3        0.0000 
     58 OD1        18.9748   41.4057   74.8396 O.3       3 ASP3        0.0000 
     59 CA         13.6094   44.4249   74.2513 C.3       5 GLY6        0.0000 
     60 OD1        14.6909   43.4052   74.4528 O.3       3 ASP3        0.0000 
     61 OD1        15.7724   42.3856   74.6542 O.3       3 ASP3        0.0000 
     62 OD1        15.7835   42.9783   77.5951 O.3       3 ASP3        0.0000 
     63 CA         12.6377   38.3181   70.8953 C.3       5 GLY6        0.0000 
     64 OG         13.7193   37.2985   71.0967 O.2       1 SER1        0.0000 
     65 OG         14.8008   36.2788   71.2981 O.2       1 SER1        0.0000 
     66 CA         11.5984   37.2587   71.1127 C.3       5 GLY6        0.0000 
     67 OG         12.6799   36.2390   71.3141 O.2       1 SER1        0.0000 
     68 N          10.5590   36.1992   71.3301 N.2       2 ALA2        0.0000 
     69 OG         11.6405   35.1795   71.5316 O.2       1 SER1        0.0000 
     70 N          10.5646   36.4956   72.8006 N.2       2 ALA2        0.0000 
     71 OG         13.6515   42.3458   74.6702 O.2       1 SER1        0.0000 
     72 OD1        14.7331   41.3261   74.8717 O.3       3 ASP3        0.0000 
     73 O          13.6937   40.2666   75.0891 O.2       2 ALA2        0.0000 
     74 CA         14.7752   39.2470   75.2905 C.3       5 GLY6        0.0000 
     75 CA         13.7359   38.1875   75.5080 C.3       5 GLY6        0.0000 
@<TRIPOS>BOND
@<TRIPOS>SUBSTRUCTURE
     1 SER1        4 GROUP   
     2 ALA2       12 GROUP   
     3 ASP3        8 GROUP   
     4 LYS4       27 GROUP   
     5 GLY6        1 GROUP   
     6 CUB7       38 GROUP   
@<TRIPOS>SET

