#    Name: 1x6v_ADP_1_INTS_M
#    Modification time : Mon Apr  7 15:05:56 2014

@<TRIPOS>MOLECULE
1x6v_ADP_1_INTS_M
   61     0    12     0     0
SMALL
NO_CHARGES


@<TRIPOS>ATOM
      1 NZ         11.4600   42.6650   72.0030 N.4       3 LYC4        0.0000 
      2 NZ         11.5090   41.3230   71.7160 N.4      11 LYL4        0.0000 
      3 NZ         11.4110   44.0070   72.2900 N.4       7 LYP4        0.0000 
      4 N          10.5765   40.3780   71.0335 N.am      2 SEC2        0.0000 
      5 N          11.5090   41.3230   71.7160 N.am     10 SEL2        0.0000 
      6 N           9.6440   39.4330   70.3510 N.am      6 SEP2        0.0000 
      7 N          11.5875   41.0470   70.2925 N.am      2 SEC2        0.0000 
      8 N          11.6660   40.7710   68.8690 N.am      6 SEP2        0.0000 
      9 N          11.4600   42.6650   72.0030 N.am      2 SEC2        0.0000 
     10 N          11.4110   44.0070   72.2900 N.am      6 SEP2        0.0000 
     11 N          14.3195   40.6000   70.1700 N.am      2 SEC2        0.0000 
     12 N          14.0880   40.7210   71.5010 N.am     10 SEL2        0.0000 
     13 N          14.5510   40.4790   68.8390 N.am      6 SEP2        0.0000 
     14 N          15.3065   40.4705   71.2215 N.am      2 SEC2        0.0000 
     15 N          16.5250   40.2200   70.9420 N.am      6 SEP2        0.0000 
     16 NZ         12.2205   42.4625   72.9970 N.4       3 LYC4        0.0000 
     17 NZ         13.0300   40.9180   73.7040 N.4      11 LYL4        0.0000 
     18 N          11.7560   40.6380   74.3740 N.am      2 SEC2        0.0000 
     19 N          13.0300   40.9180   73.7040 N.am     10 SEL2        0.0000 
     20 N          10.4820   40.3580   75.0440 N.am      6 SEP2        0.0000 
     21 N          14.0000   37.8310   68.9205 N.am      2 SEC2        0.0000 
     22 N          13.2970   37.6760   70.1950 N.am     10 SEL2        0.0000 
     23 N          14.7030   37.9860   67.6460 N.am      6 SEP2        0.0000 
     24 N          13.4425   36.5930   69.3625 N.am      2 SEC2        0.0000 
     25 N          13.5880   35.5100   68.5300 N.am      6 SEP2        0.0000 
     26 N          10.9720   39.2195   71.2685 N.am      2 SEC2        0.0000 
     27 N          12.3000   39.0060   72.1860 N.am     10 SEL2        0.0000 
     28 CA         10.4890   37.6245   73.0225 C.3       4 GLC5        0.0000 
     29 CA         11.0300   36.2080   71.3830 C.3      12 GLL5        0.0000 
     30 CA          9.9480   39.0410   74.6620 C.3       8 GLP5        0.0000 
     31 CA         10.6585   37.5135   70.2895 C.3       4 GLC5        0.0000 
     32 CA         10.2870   38.8190   69.1960 C.3       8 GLP5        0.0000 
     33 CA          8.8740   34.8030   72.6910 C.3       4 GLC5        0.0000 
     34 CA         10.5260   34.8150   71.7400 C.3      12 GLL5        0.0000 
     35 CA          7.2220   34.7910   73.6420 C.3       8 GLP5        0.0000 
     36 CA         11.9690   34.0975   68.1470 C.3       4 GLC5        0.0000 
     37 CA         10.8810   33.3580   69.9200 C.3      12 GLL5        0.0000 
     38 CA         13.0570   34.8370   66.3740 C.3       8 GLP5        0.0000 
     39 CA          8.3170   34.1460   71.9360 C.3       4 GLC5        0.0000 
     40 CA          9.4120   33.5010   70.2300 C.3      12 GLL5        0.0000 
     41 CA          7.5155   36.3190   64.3425 C.3       4 GLC5        0.0000 
     42 CA          7.7980   35.0590   65.8890 C.3      12 GLL5        0.0000 
     43 CA          7.2330   37.5790   62.7960 C.3       8 GLP5        0.0000 
     44 O           5.5730   34.0570   64.7930 O.2       1 ALC1        0.0000 
     45 O           6.8180   34.9230   65.0130 O.2       9 ALL1        0.0000 
     46 O           4.3280   33.1910   64.5730 O.2       5 ALP1        0.0000 
     47 CA         10.0025   37.5135   67.9290 C.3       4 GLC5        0.0000 
     48 CA          9.7180   36.2080   66.6620 C.3      12 GLL5        0.0000 
     49 CA         11.3875   35.5225   66.5180 C.3       4 GLC5        0.0000 
     50 CA         10.1755   37.6170   65.3940 C.3       4 GLC5        0.0000 
     51 CA         10.6330   39.0260   64.1260 C.3       8 GLP5        0.0000 
     52 CA          7.9365   37.3230   66.6005 C.3       4 GLC5        0.0000 
     53 CA          6.1550   38.4380   66.5390 C.3       8 GLP5        0.0000 
     54 CA         10.2065   34.6105   65.4695 C.3       4 GLC5        0.0000 
     55 CA         10.6950   33.0130   64.2770 C.3       8 GLP5        0.0000 
     56 CA         11.5098   34.6619   73.3414 C.3       4 GLC5        0.0000 
     57 CA         11.8770   34.6790   75.2900 C.3       8 GLP5        0.0000 
     58 CA          6.8362   35.9706   67.2708 C.3       4 GLC5        0.0000 
     59 CA          7.8140   34.2980   67.0370 C.3      12 GLL5        0.0000 
     60 CA          5.3690   37.3420   67.3220 C.3       8 GLP5        0.0000 
     61 CA          9.4992   33.8061   65.7482 C.3       4 GLC5        0.0000 
@<TRIPOS>BOND
@<TRIPOS>SUBSTRUCTURE
     1 ALC1       44 GROUP        1 X    ALC  0     ROOT ALC X 1
     2 SEC2        4 GROUP        1 X    SEC  0     **** SEC X 2
     3 LYC4        1 GROUP        1 X    LYC  0     **** LYC X 4
     4 GLC5       28 GROUP        1 X    GLC  0     **** GLC X 6
     5 ALP1       46 GROUP        1 Y    ALP  0     ROOT ALP Y 8
     6 SEP2        6 GROUP        1 Y    SEP  0     **** SEP Y 9
     7 LYP4        3 GROUP        1 Y    LYP  0     **** LYP Y 11
     8 GLP5       30 GROUP        1 Y    GLP  0     **** GLP Y 13
     9 ALL1       45 GROUP        1 Z    ALL  0     ROOT ALL Z 15
    10 SEL2        5 GROUP        1 Z    SEL  0     **** SEL Z 16
    11 LYL4        2 GROUP        1 Z    LYL  0     **** LYL Z 18
    12 GLL5       29 GROUP        1 Z    GLL  0     **** GLL Z 20
@<TRIPOS>SET

