#    Name: 1x6v_ADP_1_ligand
#    Modification time : Mon Apr  7 15:05:56 2014

@<TRIPOS>MOLECULE
1x6v_ADP_1_ligand
   39    41     1     0     0
SMALL
NO_CHARGES


@<TRIPOS>ATOM
      1 PB         12.7380   40.5660   72.1860 P.3       1 ADP800      0.0000 
      2 O1B        11.5090   41.3230   71.7160 O.co2     1 ADP800      0.0000 
      3 O2B        14.0880   40.7210   71.5010 O.co2     1 ADP800      0.0000 
      4 O3B        13.0300   40.9180   73.7040 O.co2     1 ADP800      0.0000 
      5 PA         13.1480   37.7360   71.6600 P.3       1 ADP800      0.0000 
      6 O1A        13.2970   37.6760   70.1950 O.co2     1 ADP800      0.0000 
      7 O2A        14.5200   37.6350   72.3750 O.co2     1 ADP800      0.0000 
      8 O3A        12.3000   39.0060   72.1860 O.3       1 ADP800      0.0000 
      9 O5'        12.2050   36.4860   72.0800 O.3       1 ADP800      0.0000 
     10 C5'        11.0300   36.2080   71.3830 C.3       1 ADP800      0.0000 
     11 C4'        10.5260   34.8150   71.7400 C.3       1 ADP800      0.0000 
     12 O4'         9.3030   34.6120   71.1090 O.3       1 ADP800      0.0000 
     13 C3'        11.5070   33.7780   71.2240 C.3       1 ADP800      0.0000 
     14 O3'        11.6340   32.7260   72.1630 O.3       1 ADP800      0.0000 
     15 C2'        10.8810   33.3580   69.9200 C.3       1 ADP800      0.0000 
     16 O2'        11.2810   32.0610   69.5660 O.3       1 ADP800      0.0000 
     17 C1'         9.4120   33.5010   70.2300 C.3       1 ADP800      0.0000 
     18 N9          8.5930   33.6320   69.0150 N.pl3     1 ADP800      0.0000 
     19 C8          7.4860   32.8690   68.6760 C.2       1 ADP800      0.0000 
     20 N7          6.9970   33.2960   67.4960 N.2       1 ADP800      0.0000 
     21 C5          7.8140   34.2980   67.0370 C.ar      1 ADP800      0.0000 
     22 C6          7.7980   35.0590   65.8890 C.ar      1 ADP800      0.0000 
     23 N6          6.8180   34.9230   65.0130 N.pl3     1 ADP800      0.0000 
     24 N1          8.7740   36.0050   65.7020 N.ar      1 ADP800      0.0000 
     25 C2          9.7180   36.2080   66.6620 C.ar      1 ADP800      0.0000 
     26 N3          9.7360   35.4410   67.8080 N.ar      1 ADP800      0.0000 
     27 C4          8.8010   34.5200   67.9760 C.ar      1 ADP800      0.0000 
     28 H          11.1719   36.2343   70.2900 H         1 ADP800      0.0000 
     29 H          10.2212   36.9190   71.6194 H         1 ADP800      0.0000 
     30 H          10.4648   34.7343   72.7999 H         1 ADP800      0.0000 
     31 H          12.4225   34.2846   71.0149 H         1 ADP800      0.0000 
     32 H          11.1372   34.1094   69.1941 H         1 ADP800      0.0000 
     33 H           9.1198   32.5844   70.7686 H         1 ADP800      0.0000 
     34 H           7.1382   32.1497   69.2162 H         1 ADP800      0.0000 
     35 H           6.1474   34.2080   65.2105 H         1 ADP800      0.0000 
     36 H           6.8360   35.5475   64.2321 H         1 ADP800      0.0000 
     37 H          10.4379   36.9489   66.5367 H         1 ADP800      0.0000 
     38 H          12.5887   32.7572   72.4589 H         1 ADP800      0.0000 
     39 H          11.6025   31.6478   70.4180 H         1 ADP800      0.0000 
@<TRIPOS>BOND
     1    2    1 ar   
     2    3    1 ar   
     3    4    1 ar   
     4    8    1 1    
     5    6    5 ar   
     6    7    5 ar   
     7    8    5 1    
     8    9    5 1    
     9   10    9 1    
    10   11   10 1    
    11   28   10 1    
    12   29   10 1    
    13   12   11 1    
    14   13   11 1    
    15   30   11 1    
    16   17   12 1    
    17   14   13 1    
    18   15   13 1    
    19   31   13 1    
    20   38   14 1    
    21   16   15 1    
    22   17   15 1    
    23   32   15 1    
    24   39   16 1    
    25   18   17 1    
    26   33   17 1    
    27   19   18 1    
    28   27   18 1    
    29   20   19 2    
    30   34   19 1    
    31   21   20 1    
    32   22   21 ar   
    33   27   21 ar   
    34   23   22 1    
    35   24   22 ar   
    36   35   23 1    
    37   36   23 1    
    38   25   24 ar   
    39   26   25 ar   
    40   37   25 1    
    41   27   26 ar   
@<TRIPOS>SUBSTRUCTURE
     1 ADP800      1 GROUP   
@<TRIPOS>SET

