#    Name: 3e88_G96_2_INTS_M
#    Modification time : Tue Mar 25 01:07:16 2014

@<TRIPOS>MOLECULE
3e88_G96_2_INTS_M
   99     0    12     0     0
SMALL
NO_CHARGES


@<TRIPOS>ATOM
      1 CA        -32.6005   12.9915    1.0765 C.3       4 GLC5        0.0000 
      2 CA        -34.2290   11.7340    0.4380 C.3      12 GLL5        0.0000 
      3 CA        -30.9720   14.2490    1.7150 C.3       8 GLP5        0.0000 
      4 CA        -31.0535   10.5465    2.9505 C.3       4 GLC5        0.0000 
      5 CA        -30.9800    8.5770    2.3330 C.3      12 GLL5        0.0000 
      6 CA        -31.1270   12.5160    3.5680 C.3       8 GLP5        0.0000 
      7 CA        -29.3005    8.1240    3.2840 C.3       4 GLC5        0.0000 
      8 CA        -27.6210    7.6710    4.2350 C.3       8 GLP5        0.0000 
      9 CA        -24.6015   13.6890   -1.2885 C.3       4 GLC5        0.0000 
     10 CA        -24.1800   12.1670   -2.8380 C.3      12 GLL5        0.0000 
     11 CA        -25.0230   15.2110    0.2610 C.3       8 GLP5        0.0000 
     12 CA        -29.8020   11.1725    1.5575 C.3       4 GLC5        0.0000 
     13 CA        -29.3350    9.2210    0.6400 C.3      12 GLL5        0.0000 
     14 CA        -30.2690   13.1240    2.4750 C.3       8 GLP5        0.0000 
     15 CA        -28.4780    8.4460    2.4375 C.3       4 GLC5        0.0000 
     16 CA        -26.8255   15.7395    3.9215 C.3       4 GLC5        0.0000 
     17 CA        -26.0240   14.0790    4.0960 C.3      12 GLL5        0.0000 
     18 CA        -27.6270   17.4000    3.7470 C.3       8 GLP5        0.0000 
     19 CA        -28.3015   11.4645   -3.4225 C.3       4 GLC5        0.0000 
     20 CA        -27.6790    9.3460   -3.4990 C.3      12 GLL5        0.0000 
     21 CA        -28.9240   13.5830   -3.3460 C.3       8 GLP5        0.0000 
     22 CA        -25.8415    8.7280   -3.2965 C.3       4 GLC5        0.0000 
     23 CA        -24.0040    8.1100   -3.0940 C.3       8 GLP5        0.0000 
     24 CA        -26.8045    9.2965   -5.5670 C.3       4 GLC5        0.0000 
     25 CA        -25.9300    9.2470   -7.6350 C.3       8 GLP5        0.0000 
     26 CA        -28.7030   11.0930   -5.8455 C.3       4 GLC5        0.0000 
     27 CA        -28.8200   10.1070   -4.1380 C.3      12 GLL5        0.0000 
     28 CA        -28.5860   12.0790   -7.5530 C.3       8 GLP5        0.0000 
     29 CA        -30.4545    9.9790   -4.9970 C.3       4 GLC5        0.0000 
     30 CA        -32.0890    9.8510   -5.8560 C.3       8 GLP5        0.0000 
     31 CA        -29.5960   11.6140   -3.6650 C.3       4 GLC5        0.0000 
     32 CA        -30.3720   13.1210   -3.1920 C.3       8 GLP5        0.0000 
     33 N         -26.2320   10.6855    6.2340 N.am      2 SEC2        0.0000 
     34 N         -26.0760   11.9890    5.2790 N.am     10 SEL2        0.0000 
     35 N         -26.3880    9.3820    7.1890 N.am      6 SEP2        0.0000 
     36 O         -27.3050   12.2940    5.7900 O.2       1 ALC1        0.0000 
     37 O         -26.0760   11.9890    5.2790 O.2       9 ALL1        0.0000 
     38 O         -28.5340   12.5990    6.3010 O.2       5 ALP1        0.0000 
     39 CA        -26.1645   10.6595    4.4655 C.3       4 GLC5        0.0000 
     40 CA        -25.6330   12.6030    4.0630 C.3      12 GLL5        0.0000 
     41 CA        -26.6960    8.7160    4.8680 C.3       8 GLP5        0.0000 
     42 CA        -22.3080   12.0885    3.1435 C.3       4 GLC5        0.0000 
     43 CA        -24.1160   12.4450    3.9850 C.3      12 GLL5        0.0000 
     44 CA        -20.5000   11.7320    2.3020 C.3       8 GLP5        0.0000 
     45 CA        -23.7505   10.3565    3.4825 C.3       4 GLC5        0.0000 
     46 CA        -23.3850    8.2680    2.9800 C.3       8 GLP5        0.0000 
     47 CA        -27.0920   12.4435   -3.1975 C.3       4 GLC5        0.0000 
     48 CA        -25.2600   11.3040   -3.0490 C.3      12 GLL5        0.0000 
     49 OD1       -30.6395    6.3640    3.8195 O.co2     3 ASC3        0.0000 
     50 OD1       -31.7450    6.2930    2.7480 O.co2    11 ASL3        0.0000 
     51 OD1       -29.5340    6.4350    4.8910 O.co2     7 ASP3        0.0000 
     52 O         -30.6395    6.3640    3.8195 O.2       1 ALC1        0.0000 
     53 O         -31.7450    6.2930    2.7480 O.2       9 ALL1        0.0000 
     54 O         -29.5340    6.4350    4.8910 O.2       5 ALP1        0.0000 
     55 O         -32.3090    5.1645    3.8960 O.2       1 ALC1        0.0000 
     56 O         -32.8730    4.0360    5.0440 O.2       5 ALP1        0.0000 
     57 CA        -36.2370   11.4235    2.8460 C.3       4 GLC5        0.0000 
     58 CA        -34.6030   11.1710    1.6540 C.3      12 GLL5        0.0000 
     59 CA        -37.8710   11.6760    4.0380 C.3       8 GLP5        0.0000 
     60 CA        -35.4510   10.1747   -0.5557 C.3       4 GLC5        0.0000 
     61 CA        -37.0350    8.9900   -1.0850 C.3       8 GLP5        0.0000 
     62 CA        -36.0065   12.7012    0.6130 C.3       4 GLC5        0.0000 
     63 CA        -37.5970   13.9500    0.1800 C.3       8 GLP5        0.0000 
     64 CA        -34.4605   12.6248   -1.3367 C.3       4 GLC5        0.0000 
     65 CA        -35.0540   13.8900   -2.6470 C.3       8 GLP5        0.0000 
     66 CA        -34.3560   12.8932    2.1965 C.3       4 GLC5        0.0000 
     67 CA        -34.2960   14.3340    3.3470 C.3       8 GLP5        0.0000 
     68 CA        -35.1890    9.1887   -0.3385 C.3       4 GLC5        0.0000 
     69 CA        -33.5310    9.1050    1.0170 C.3      12 GLL5        0.0000 
     70 CA        -32.0645   11.5584   -0.9499 C.3       4 GLC5        0.0000 
     71 CA        -33.1550    9.6700   -0.2010 C.3      12 GLL5        0.0000 
     72 CA        -30.6180   12.6020   -1.7860 C.3       8 GLP5        0.0000 
     73 CA        -24.7965   13.5463   -3.3497 C.3       4 GLC5        0.0000 
     74 CA        -24.8730   15.3570   -3.7560 C.3       8 GLP5        0.0000 
     75 CA        -24.3620    9.9228   -3.0187 C.3       4 GLC5        0.0000 
     76 CA        -29.8725   10.9005   -0.9042 C.3       4 GLC5        0.0000 
     77 CA        -28.9190    9.1770   -0.6850 C.3      12 GLL5        0.0000 
     78 CA        -26.6448   13.6242    1.6538 C.3       4 GLC5        0.0000 
     79 CA        -26.9470   11.4160    2.0650 C.3      12 GLL5        0.0000 
     80 CA        -26.6790   15.5630    0.8280 C.3       8 GLP5        0.0000 
     81 CA        -25.2338   10.1307    2.0107 C.3       4 GLC5        0.0000 
     82 CA        -26.2740   11.9550    2.8940 C.3      12 GLL5        0.0000 
     83 CA        -23.8570    8.5760    1.5420 C.3       8 GLP5        0.0000 
     84 CA        -29.0418   11.4493   -1.2030 C.3       4 GLC5        0.0000 
     85 CA        -27.1220   10.6840   -0.1510 C.3      12 GLL5        0.0000 
     86 CA        -24.1748   11.4420    5.5415 C.3       4 GLC5        0.0000 
     87 CA        -23.4750   10.3600    7.0590 C.3       8 GLP5        0.0000 
     88 CA        -24.4686   13.6885    5.6266 C.3       4 GLC5        0.0000 
     89 CA        -23.9650   14.4840    7.2210 C.3       8 GLP5        0.0000 
     90 CA        -24.5191   14.3865    2.8256 C.3       4 GLC5        0.0000 
     91 CA        -24.0660   15.8800    1.6190 C.3       8 GLP5        0.0000 
     92 CA        -28.6774   12.1601    2.1514 C.3       4 GLC5        0.0000 
     93 CA        -26.1831    9.0224    0.6665 C.3       4 GLC5        0.0000 
     94 CA        -27.5610   10.7070    1.1760 C.3      12 GLL5        0.0000 
     95 CA        -24.8530    7.5430    1.0550 C.3       8 GLP5        0.0000 
     96 CA        -26.8909    9.9561    3.3479 C.3       4 GLC5        0.0000 
     97 CA        -35.7310    9.7515    0.3573 C.3       4 GLC5        0.0000 
     98 CA        -34.2510    9.8550    1.9450 C.3      12 GLL5        0.0000 
     99 CA        -32.7770   11.5145    2.6837 C.3       4 GLC5        0.0000 
@<TRIPOS>BOND
@<TRIPOS>SUBSTRUCTURE
     1 ALC1       36 GROUP        1 X    ALC  0     ROOT ALC X 1
     2 SEC2       33 GROUP        1 X    SEC  0     **** SEC X 2
     3 ASC3       49 GROUP        1 X    ASC  0     **** ASC X 3
     4 GLC5        1 GROUP        1 X    GLC  0     **** GLC X 6
     5 ALP1       38 GROUP        1 Y    ALP  0     ROOT ALP Y 8
     6 SEP2       35 GROUP        1 Y    SEP  0     **** SEP Y 9
     7 ASP3       51 GROUP        1 Y    ASP  0     **** ASP Y 10
     8 GLP5        3 GROUP        1 Y    GLP  0     **** GLP Y 13
     9 ALL1       37 GROUP        1 Z    ALL  0     ROOT ALL Z 15
    10 SEL2       34 GROUP        1 Z    SEL  0     **** SEL Z 16
    11 ASL3       50 GROUP        1 Z    ASL  0     **** ASL Z 17
    12 GLL5        2 GROUP        1 Z    GLL  0     **** GLL Z 20
@<TRIPOS>SET

