#    Name: 3e88_G96_2_ligand
#    Modification time : Tue Mar 25 01:07:16 2014

@<TRIPOS>MOLECULE
3e88_G96_2_ligand
   67    70     1     0     0
SMALL
NO_CHARGES


@<TRIPOS>ATOM
      1 N1        -25.3100   10.9190   -4.3450 N.pl3     1 G961        0.0000 
      2 N3        -23.8350   12.7470   -1.6640 N.4       1 G961        0.0000 
      3 C4        -34.2290   11.7340    0.4380 C.ar      1 G961        0.0000 
      4 C5        -33.5050   10.9850   -0.4910 C.ar      1 G961        0.0000 
      5 C6        -33.1550    9.6700   -0.2010 C.ar      1 G961        0.0000 
      6 C7        -30.9800    8.5770    2.3330 C.3       1 G961        0.0000 
      7 C8        -24.1800   12.1670   -2.8380 C.2       1 G961        0.0000 
      8 C10       -29.3350    9.2210    0.6400 C.ar      1 G961        0.0000 
      9 C13       -26.9470   11.4160    2.0650 C.2       1 G961        0.0000 
     10 C15       -27.8090    9.9090   -1.0890 C.ar      1 G961        0.0000 
     11 C17       -26.2740   11.9550    2.8940 C.2       1 G961        0.0000 
     12 C20       -26.0240   14.0790    4.0960 C.3       1 G961        0.0000 
     13 C21       -27.6790    9.3460   -3.4990 C.3       1 G961        0.0000 
     14 C22       -28.8200   10.1070   -4.1380 C.3       1 G961        0.0000 
     15 C24       -33.1460    7.6840    1.3400 C.3       1 G961        0.0000 
     16 O3        -26.0760   11.9890    5.2790 O.3       1 G961        0.0000 
     17 C18       -25.6330   12.6030    4.0630 C.3       1 G961        0.0000 
     18 C19       -24.1160   12.4450    3.9850 C.3       1 G961        0.0000 
     19 C12       -27.5610   10.7070    1.1760 C.ar      1 G961        0.0000 
     20 N4        -28.6500    9.9800    1.5360 N.ar      1 G961        0.0000 
     21 C14       -27.1220   10.6840   -0.1510 C.ar      1 G961        0.0000 
     22 N6        -26.0960   11.2860   -0.7910 N.2       1 G961        0.0000 
     23 C16       -26.1820   10.8700   -2.0710 C.2       1 G961        0.0000 
     24 N5        -27.2170   10.0310   -2.2840 N.pl3     1 G961        0.0000 
     25 C9        -25.2600   11.3040   -3.0490 C.2       1 G961        0.0000 
     26 O2        -24.1830   11.6160   -4.9140 O.3       1 G961        0.0000 
     27 N2        -23.4620   12.4090   -3.9560 N.pl3     1 G961        0.0000 
     28 C11       -28.9190    9.1770   -0.6850 C.ar      1 G961        0.0000 
     29 O1        -30.4380    8.4880    1.0120 O.3       1 G961        0.0000 
     30 C23       -32.1910    7.6570    2.5330 C.3       1 G961        0.0000 
     31 N7        -31.7450    6.2930    2.7480 N.4       1 G961        0.0000 
     32 C1        -33.5310    9.1050    1.0170 C.ar      1 G961        0.0000 
     33 C3        -34.6030   11.1710    1.6540 C.ar      1 G961        0.0000 
     34 C2        -34.2510    9.8550    1.9450 C.ar      1 G961        0.0000 
     35 H         -25.8777   10.3708   -4.7939 H         1 G961        0.0000 
     36 H         -34.4862   12.7065    0.2207 H         1 G961        0.0000 
     37 H         -33.2319   11.4058   -1.3869 H         1 G961        0.0000 
     38 H         -32.6216    9.1163   -0.8808 H         1 G961        0.0000 
     39 H         -31.3061    9.6080    2.5686 H         1 G961        0.0000 
     40 H         -30.2285    8.3048    3.0985 H         1 G961        0.0000 
     41 H         -27.9165   12.4748    1.9916 H         1 G961        0.0000 
     42 H         -25.0948   12.1076    2.1151 H         1 G961        0.0000 
     43 H         -26.8624    9.2620   -4.2253 H         1 G961        0.0000 
     44 H         -28.0224    8.3329   -3.2603 H         1 G961        0.0000 
     45 H         -34.0352    7.1072    1.5852 H         1 G961        0.0000 
     46 H         -32.6538    7.2308    0.4822 H         1 G961        0.0000 
     47 H         -22.7332   12.9123   -4.1161 H         1 G961        0.0000 
     48 H         -29.4324    8.6029   -1.3666 H         1 G961        0.0000 
     49 H         -32.7374    8.0052    3.4073 H         1 G961        0.0000 
     50 H         -35.1367   11.7229    2.3352 H         1 G961        0.0000 
     51 H         -34.5220    9.4372    2.8435 H         1 G961        0.0000 
     52 H         -23.8479   13.7451   -1.7249 H         1 G961        0.0000 
     53 H         -24.4586   12.4903   -0.9256 H         1 G961        0.0000 
     54 H         -22.9147   12.4827   -1.3755 H         1 G961        0.0000 
     55 H         -25.6123   14.5550    4.8731 H         1 G961        0.0000 
     56 H         -25.7310   14.5594    3.2694 H         1 G961        0.0000 
     57 H         -27.0140   14.1994    4.1696 H         1 G961        0.0000 
     58 H         -28.5486   11.0335   -4.3987 H         1 G961        0.0000 
     59 H         -29.1505    9.6544   -4.9662 H         1 G961        0.0000 
     60 H         -29.6011   10.1935   -3.5196 H         1 G961        0.0000 
     61 H         -23.7407   12.8664    3.1595 H         1 G961        0.0000 
     62 H         -23.6577   12.8702    4.7655 H         1 G961        0.0000 
     63 H         -23.8429   11.4831    3.9732 H         1 G961        0.0000 
     64 H         -31.2150    5.9490    1.9729 H         1 G961        0.0000 
     65 H         -31.1636    6.2157    3.5580 H         1 G961        0.0000 
     66 H         -32.5139    5.6670    2.8782 H         1 G961        0.0000 
     67 H         -26.9976   12.3471    5.4288 H         1 G961        0.0000 
@<TRIPOS>BOND
     1   25    1 1    
     2   26    1 1    
     3   35    1 1    
     4    7    2 1    
     5   52    2 1    
     6   53    2 1    
     7   54    2 1    
     8    4    3 ar   
     9   33    3 ar   
    10   36    3 1    
    11    5    4 ar   
    12   37    4 1    
    13   32    5 ar   
    14   38    5 1    
    15   29    6 1    
    16   30    6 1    
    17   39    6 1    
    18   40    6 1    
    19   25    7 2    
    20   27    7 1    
    21   20    8 ar   
    22   28    8 ar   
    23   29    8 1    
    24   11    9 2    
    25   19    9 1    
    26   41    9 1    
    27   21   10 ar   
    28   24   10 1    
    29   28   10 ar   
    30   17   11 1    
    31   42   11 1    
    32   17   12 1    
    33   55   12 1    
    34   56   12 1    
    35   57   12 1    
    36   14   13 1    
    37   24   13 1    
    38   43   13 1    
    39   44   13 1    
    40   58   14 1    
    41   59   14 1    
    42   60   14 1    
    43   30   15 1    
    44   32   15 1    
    45   45   15 1    
    46   46   15 1    
    47   17   16 1    
    48   67   16 1    
    49   18   17 1    
    50   61   18 1    
    51   62   18 1    
    52   63   18 1    
    53   20   19 ar   
    54   21   19 ar   
    55   22   21 1    
    56   23   22 2    
    57   24   23 1    
    58   25   23 1    
    59   27   26 1    
    60   47   27 1    
    61   48   28 1    
    62   31   30 1    
    63   49   30 1    
    64   64   31 1    
    65   65   31 1    
    66   66   31 1    
    67   34   32 ar   
    68   34   33 ar   
    69   50   33 1    
    70   51   34 1    
@<TRIPOS>SUBSTRUCTURE
     1 G961        1 GROUP   
@<TRIPOS>SET

