#    Name: 4bqw_QNM_1_INTS_M
#    Modification time : Tue Mar 25 08:07:59 2014

@<TRIPOS>MOLECULE
4bqw_QNM_1_INTS_M
   51     0    12     0     0
SMALL
NO_CHARGES


@<TRIPOS>ATOM
      1 NZ        -31.2485   23.4525    3.3200 N.4       2 LYC4        0.0000 
      2 NZ        -32.5940   23.0990    3.2560 N.4      10 LYL4        0.0000 
      3 NZ        -29.1200   23.2050    4.2650 N.4       6 LYP4        0.0000 
      4 N         -31.2485   23.4525    3.3200 N.am      1 SEC2        0.0000 
      5 N         -32.5940   23.0990    3.2560 N.am      9 SEL2        0.0000 
      6 N         -29.9030   23.8060    3.3840 N.am      5 SEP2        0.0000 
      7 NZ        -30.9285   21.7400    4.7540 N.4       2 LYC4        0.0000 
      8 NZ        -32.2930   21.3370    4.5880 N.4      10 LYL4        0.0000 
      9 N         -32.0785   20.1675    4.0240 N.am      1 SEC2        0.0000 
     10 N         -32.2930   21.3370    4.5880 N.am      9 SEL2        0.0000 
     11 N         -31.8640   18.9980    3.4600 N.am      5 SEP2        0.0000 
     12 N         -30.9285   21.7400    4.7540 N.am      1 SEC2        0.0000 
     13 N         -29.5640   22.1430    4.9200 N.am      5 SEP2        0.0000 
     14 CA        -34.8720   21.1720    3.5765 C.3       4 GLC5        0.0000 
     15 CA        -34.3260   22.5440    4.7840 C.3      12 GLL5        0.0000 
     16 CA        -35.4180   19.8000    2.3690 C.3       8 GLP5        0.0000 
     17 CA        -33.9980   21.4340    6.3370 C.3       4 GLC5        0.0000 
     18 CA        -33.6700   20.3240    7.8900 C.3       8 GLP5        0.0000 
     19 CA        -33.4305   23.5590    5.8605 C.3       4 GLC5        0.0000 
     20 CA        -32.5350   24.5740    6.9370 C.3       8 GLP5        0.0000 
     21 Zn        -37.8190   23.3855    5.5790 Zn        3 ZIC7        0.0000 
     22 Zn        -36.7910   23.6010    5.4710 Zn       11 ZIL7        0.0000 
     23 Zn        -38.8470   23.1700    5.6870 Zn        7 ZIP7        0.0000 
     24 N         -33.8650   26.7830    4.1380 N.am      1 SEC2        0.0000 
     25 N         -34.5940   26.0810    3.2610 N.am      9 SEL2        0.0000 
     26 N         -33.1360   27.4850    5.0150 N.am      5 SEP2        0.0000 
     27 CA        -34.1820   29.8250    2.6230 C.3       4 GLC5        0.0000 
     28 CA        -35.3620   28.4720    2.1320 C.3      12 GLL5        0.0000 
     29 CA        -33.0020   31.1780    3.1140 C.3       8 GLP5        0.0000 
     30 CA        -35.5985   29.5845    0.5730 C.3       4 GLC5        0.0000 
     31 CA        -35.8350   30.6970   -0.9860 C.3       8 GLP5        0.0000 
     32 CA        -36.4040   27.3090    0.9450 C.3       4 GLC5        0.0000 
     33 CA        -37.4460   26.1460   -0.2420 C.3       8 GLP5        0.0000 
     34 CA        -34.3135   28.0035    0.7170 C.3       4 GLC5        0.0000 
     35 CA        -33.2650   27.5350   -0.6980 C.3       8 GLP5        0.0000 
     36 CA        -33.6165   28.1775    3.3940 C.3       4 GLC5        0.0000 
     37 CA        -31.8710   27.8830    4.6560 C.3       8 GLP5        0.0000 
     38 CA        -36.1595   28.9620    3.9605 C.3       4 GLC5        0.0000 
     39 CA        -36.9570   29.4520    5.7890 C.3       8 GLP5        0.0000 
     40 CA        -37.0010   29.8335    0.6330 C.3       4 GLC5        0.0000 
     41 CA        -38.1670   28.9700    2.2520 C.3      12 GLL5        0.0000 
     42 CA        -37.0640   25.7790    1.8230 C.3       4 GLC5        0.0000 
     43 CA        -36.6820   25.4120    3.8880 C.3      12 GLL5        0.0000 
     44 CA        -36.1925   27.2355    5.0770 C.3       4 GLC5        0.0000 
     45 CA        -35.7030   29.0590    6.2660 C.3       8 GLP5        0.0000 
     46 Zn        -38.8830   23.9760    5.0585 Zn        3 ZIC7        0.0000 
     47 Zn        -38.9190   24.7820    4.4300 Zn       11 ZIL7        0.0000 
     48 CA        -37.7758   26.7372    1.4180 C.3       4 GLC5        0.0000 
     49 CA        -38.5420   26.8710    3.3670 C.3      12 GLL5        0.0000 
     50 CA        -39.0203   28.1292    0.8164 C.3       4 GLC5        0.0000 
     51 CA        -38.4140   27.5490   -0.9370 C.3       8 GLP5        0.0000 
@<TRIPOS>BOND
@<TRIPOS>SUBSTRUCTURE
     1 SEC2        4 GROUP        1 X    SEC  0     ROOT SEC X 2
     2 LYC4        1 GROUP        1 X    LYC  0     **** LYC X 4
     3 ZIC7       21 GROUP        1 X    ZIC  0     **** ZIC X 5
     4 GLC5       14 GROUP        1 X    GLC  0     **** GLC X 6
     5 SEP2        6 GROUP        1 Y    SEP  0     ROOT SEP Y 9
     6 LYP4        3 GROUP        1 Y    LYP  0     **** LYP Y 11
     7 ZIP7       23 GROUP        1 Y    ZIP  0     **** ZIP Y 12
     8 GLP5       16 GROUP        1 Y    GLP  0     **** GLP Y 13
     9 SEL2        5 GROUP        1 Z    SEL  0     ROOT SEL Z 16
    10 LYL4        2 GROUP        1 Z    LYL  0     **** LYL Z 18
    11 ZIL7       22 GROUP        1 Z    ZIL  0     **** ZIL Z 19
    12 GLL5       15 GROUP        1 Z    GLL  0     **** GLL Z 20
@<TRIPOS>SET

