#    Name: 4bqw_QNM_1_ligand
#    Modification time : Tue Mar 25 08:07:59 2014

@<TRIPOS>MOLECULE
4bqw_QNM_1_ligand
   30    31     1     0     0
SMALL
NO_CHARGES


@<TRIPOS>ATOM
      1 OAK       -32.5940   23.0990    3.2560 O.co2     1 QNM901      0.0000 
      2 CAI       -32.9530   22.3040    4.1520 C.2       1 QNM901      0.0000 
      3 OAJ       -32.2930   21.3370    4.5880 O.co2     1 QNM901      0.0000 
      4 C4        -34.3260   22.5440    4.7840 C.3       1 QNM901      0.0000 
      5 N3        -34.9380   23.7500    4.2040 N.am      1 QNM901      0.0000 
      6 C2        -36.1540   24.1470    4.5730 C.2       1 QNM901      0.0000 
      7 O2        -36.7910   23.6010    5.4710 O.2       1 QNM901      0.0000 
      8 C6        -35.8000   26.3200    3.3050 C.2       1 QNM901      0.0000 
      9 O6        -34.5940   26.0810    3.2610 O.co2     1 QNM901      0.0000 
     10 CAL       -35.3620   28.4720    2.1320 C.3       1 QNM901      0.0000 
     11 CAN       -37.6690   27.7860    2.7890 C.ar      1 QNM901      0.0000 
     12 CAO       -38.1670   28.9700    2.2520 C.ar      1 QNM901      0.0000 
     13 CA0       -36.6820   25.4120    3.8880 C.2       1 QNM901      0.0000 
     14 CAP       -39.5350   29.2340    2.2910 C.ar      1 QNM901      0.0000 
     15 CAQ       -40.4020   28.3170    2.8680 C.ar      1 QNM901      0.0000 
     16 CAR       -39.9080   27.1300    3.4070 C.ar      1 QNM901      0.0000 
     17 CAS       -38.5420   26.8710    3.3670 C.ar      1 QNM901      0.0000 
     18 CAT       -38.0470   25.6870    3.9080 C.2       1 QNM901      0.0000 
     19 NAN       -36.2960   27.5050    2.7510 N.pl3     1 QNM901      0.0000 
     20 OAU       -38.9190   24.7820    4.4300 O.2       1 QNM901      0.0000 
     21 H         -34.1942   22.6570    5.8608 H         1 QNM901      0.0000 
     22 H         -34.9481   21.6675    4.5988 H         1 QNM901      0.0000 
     23 H         -34.3667   24.2538    3.5053 H         1 QNM901      0.0000 
     24 H         -37.5254   29.6510    1.8259 H         1 QNM901      0.0000 
     25 H         -39.8989   30.1087    1.8916 H         1 QNM901      0.0000 
     26 H         -41.4122   28.5109    2.8995 H         1 QNM901      0.0000 
     27 H         -40.5500   26.4518    3.8307 H         1 QNM901      0.0000 
     28 H         -34.6804   28.8006    2.7858 H         1 QNM901      0.0000 
     29 H         -34.8624   28.0675    1.3660 H         1 QNM901      0.0000 
     30 H         -35.8402   29.2759    1.7782 H         1 QNM901      0.0000 
@<TRIPOS>BOND
     1    2    1 ar   
     2    3    2 ar   
     3    4    2 1    
     4    5    4 1    
     5   21    4 1    
     6   22    4 1    
     7    6    5 am   
     8   23    5 1    
     9    7    6 2    
    10   13    6 1    
    11    9    8 ar   
    12   13    8 2    
    13   19    8 1    
    14   19   10 1    
    15   28   10 1    
    16   29   10 1    
    17   30   10 1    
    18   12   11 ar   
    19   17   11 ar   
    20   19   11 1    
    21   14   12 ar   
    22   24   12 1    
    23   18   13 1    
    24   15   14 ar   
    25   25   14 1    
    26   16   15 ar   
    27   26   15 1    
    28   17   16 ar   
    29   27   16 1    
    30   18   17 1    
    31   20   18 2    
@<TRIPOS>SUBSTRUCTURE
     1 QNM901      1 GROUP   
@<TRIPOS>SET

