#    Name: 3F8W_1_CAVITY_N1_ALL.mol2
#    Modification time : Mon Mar 10 15:44:38 2014

@<TRIPOS>MOLECULE
3F8W_1_CAVITY_N1_ALL.mol2
   37     0     6     0     0
SMALL
NO_CHARGES


@<TRIPOS>ATOM
      1 CA         17.7282   28.7351    7.5853 C.3       5 GLY6        0.0000 
      2 OG         19.2526   30.2363   10.5723 O.2       1 SER1        0.0000 
      3 OG         20.2487   28.2885    8.0299 O.2       1 SER1        0.0000 
      4 OG         19.2576   28.7536    9.0552 O.2       1 SER1        0.0000 
      5 N          18.2664   29.2187   10.0806 N.2       2 ALA2        0.0000 
      6 CA         18.2713   27.7360    8.5634 C.3       5 GLY6        0.0000 
      7 N          17.2802   28.2011    9.5888 N.2       2 ALA2        0.0000 
      8 O          18.2762   26.2533    7.0463 O.2       2 ALA2        0.0000 
      9 CA         17.2851   26.7184    8.0717 C.3       5 GLY6        0.0000 
     10 N          16.2939   27.1835    9.0970 N.2       2 ALA2        0.0000 
     11 CA         16.2988   25.7008    7.5799 C.3       5 GLY6        0.0000 
     12 O          14.3166   26.6310    9.6306 O.2       2 ALA2        0.0000 
     13 OG         20.7869   28.7721   10.5252 O.2       1 SER1        0.0000 
     14 CZ         20.7918   27.2894    9.0081 C.ar      4 PHE5        0.0000 
     15 OG         19.8007   27.7545   10.0334 O.2       1 SER1        0.0000 
     16 DU         18.8095   28.2196   11.0587 H         6 CUB7        0.0000 
     17 O          17.8184   28.6847   12.0841 O.2       2 ALA2        0.0000 
     18 O          19.8056   26.2718    8.5163 O.2       2 ALA2        0.0000 
     19 DU         18.8144   26.7369    9.5416 H         6 CUB7        0.0000 
     20 N          17.8233   27.2020   10.5670 N.2       2 ALA2        0.0000 
     21 N          16.8321   27.6671   11.5923 N.2       2 ALA2        0.0000 
     22 OG         18.8193   25.2542    8.0245 O.2       1 SER1        0.0000 
     23 CZ         17.8282   25.7193    9.0499 C.ar      4 PHE5        0.0000 
     24 CZ         16.8371   26.1844   10.0752 C.ar      4 PHE5        0.0000 
     25 N          15.8459   26.6495   11.1006 N.2       2 ALA2        0.0000 
     26 CZ         15.8508   25.1668    9.5834 C.ar      4 PHE5        0.0000 
     27 O          14.8597   25.6319   10.6088 O.2       2 ALA2        0.0000 
     28 CZ         14.8646   24.1492    9.0917 C.ar      4 PHE5        0.0000 
     29 O          13.8734   24.6143   10.1170 O.2       2 ALA2        0.0000 
     30 CZ         20.3438   26.7554   11.0116 C.ar      4 PHE5        0.0000 
     31 CA         19.3575   25.7378   10.5198 C.3       5 GLY6        0.0000 
     32 CA         18.3664   26.2029   11.5452 C.3       5 GLY6        0.0000 
     33 CA         18.3713   24.7202   10.0281 C.3       5 GLY6        0.0000 
     34 CA         17.3802   25.1853   11.0534 C.3       5 GLY6        0.0000 
     35 CA         16.3890   25.6504   12.0787 C.3       5 GLY6        0.0000 
     36 CZ         16.3939   24.1677   10.5616 C.ar      4 PHE5        0.0000 
     37 NZ         15.4028   24.6328   11.5870 N.2       3 LYS4        0.0000 
@<TRIPOS>BOND
@<TRIPOS>SUBSTRUCTURE
     1 SER1        2 GROUP   
     2 ALA2        5 GROUP   
     3 LYS4       37 GROUP   
     4 PHE5       14 GROUP   
     5 GLY6        1 GROUP   
     6 CUB7       16 GROUP   
@<TRIPOS>SET

