#    Name: 3f8w_ADN_1_INTS_M
#    Modification time : Tue Mar 25 03:26:08 2014

@<TRIPOS>MOLECULE
3f8w_ADN_1_INTS_M
   56     0     9     0     0
SMALL
NO_CHARGES


@<TRIPOS>ATOM
      1 N          18.3195   24.5010    6.7640 N.am      2 SEC2        0.0000 
      2 N          18.3920   25.7370    7.1700 N.am      8 SEL2        0.0000 
      3 N          18.2470   23.2650    6.3580 N.am      5 SEP2        0.0000 
      4 N          19.4185   26.0650    6.2345 N.am      2 SEC2        0.0000 
      5 N          20.4450   26.3930    5.2990 N.am      5 SEP2        0.0000 
      6 CA         17.9560   24.2020    8.3735 C.3       3 GLC5        0.0000 
      7 CA         18.9620   25.6790    8.4690 C.3       9 GLL5        0.0000 
      8 CA         16.9500   22.7250    8.2780 C.3       6 GLP5        0.0000 
      9 CA         20.4415   24.3790    8.3890 C.3       3 GLC5        0.0000 
     10 CA         21.9210   23.0790    8.3090 C.3       6 GLP5        0.0000 
     11 CA         21.2305   26.3330    8.9640 C.3       3 GLC5        0.0000 
     12 CA         19.4330   27.0990    8.8990 C.3       9 GLL5        0.0000 
     13 CA         23.0280   25.5670    9.0290 C.3       6 GLP5        0.0000 
     14 CA         21.3785   27.0280   11.7660 C.3       3 GLC5        0.0000 
     15 CA         19.8130   27.1670   10.3990 C.3       9 GLL5        0.0000 
     16 CA         22.9440   26.8890   13.1330 C.3       6 GLP5        0.0000 
     17 CA         19.8390   25.6370   11.7095 C.3       3 GLC5        0.0000 
     18 CA         19.8650   24.1070   13.0200 C.3       6 GLP5        0.0000 
     19 CA         21.1960   25.9225   10.2130 C.3       3 GLC5        0.0000 
     20 CA         22.5790   24.6780   10.0270 C.3       6 GLP5        0.0000 
     21 O          22.1760   28.0860   10.8285 O.2       1 ALC1        0.0000 
     22 O          20.7130   28.2440   10.5830 O.2       7 ALL1        0.0000 
     23 O          23.6390   27.9280   11.0740 O.2       4 ALP1        0.0000 
     24 CA         18.6640   26.1845   12.6660 C.3       3 GLC5        0.0000 
     25 CA         18.4920   27.3630   11.1470 C.3       9 GLL5        0.0000 
     26 CA         18.8360   25.0060   14.1850 C.3       6 GLP5        0.0000 
     27 N          18.0395   27.9485   13.5090 N.am      2 SEC2        0.0000 
     28 N          18.5650   28.3600   12.1310 N.am      8 SEL2        0.0000 
     29 N          17.5140   27.5370   14.8870 N.am      5 SEP2        0.0000 
     30 CA         16.5990   29.3285    8.8450 C.3       3 GLC5        0.0000 
     31 CA         17.5470   27.8320   10.0080 C.3       9 GLL5        0.0000 
     32 CA         15.6510   30.8250    7.6820 C.3       6 GLP5        0.0000 
     33 N          13.7270   25.5945    7.5370 N.am      2 SEC2        0.0000 
     34 N          14.5700   25.9450    8.5290 N.am      8 SEL2        0.0000 
     35 N          12.8840   25.2440    6.5450 N.am      5 SEP2        0.0000 
     36 CA         12.5190   24.1330   12.2850 C.3       3 GLC5        0.0000 
     37 CA         13.8910   24.1180   10.5280 C.3       9 GLL5        0.0000 
     38 CA         11.1470   24.1480   14.0420 C.3       6 GLP5        0.0000 
     39 O          12.1885   23.5940    8.6915 O.2       1 ALC1        0.0000 
     40 O          12.7570   23.5150    9.8300 O.2       7 ALL1        0.0000 
     41 O          11.6200   23.6730    7.5530 O.2       4 ALP1        0.0000 
     42 CA         14.1225   24.2240   14.2895 C.3       3 GLC5        0.0000 
     43 CA         15.4250   24.2900   12.5950 C.3       9 GLL5        0.0000 
     44 CA         12.8200   24.1580   15.9840 C.3       6 GLP5        0.0000 
     45 CA         15.2735   25.9010   13.5010 C.3       3 GLC5        0.0000 
     46 CA         15.1220   27.5120   14.4070 C.3       6 GLP5        0.0000 
     47 CA         17.0400   23.6695   12.4650 C.3       3 GLC5        0.0000 
     48 CA         18.6550   23.0490   12.3350 C.3       6 GLP5        0.0000 
     49 CA         15.4800   26.6990   12.5015 C.3       3 GLC5        0.0000 
     50 CA         15.8380   25.8860   10.5960 C.3       9 GLL5        0.0000 
     51 CA         17.2465   24.4675   11.4655 C.3       3 GLC5        0.0000 
     52 CA         13.9520   27.2568   10.4588 C.3       3 GLC5        0.0000 
     53 CA         12.6420   28.9320   10.6820 C.3       6 GLP5        0.0000 
     54 CA         12.4127   25.2467   10.2067 C.3       3 GLC5        0.0000 
     55 CA         14.6860   25.2770    9.8750 C.3       9 GLL5        0.0000 
     56 CA         10.5370   25.7960   10.2120 C.3       6 GLP5        0.0000 
@<TRIPOS>BOND
@<TRIPOS>SUBSTRUCTURE
     1 ALC1       21 GROUP        1 X    ALC  0     ROOT ALC X 1
     2 SEC2        1 GROUP        1 X    SEC  0     **** SEC X 2
     3 GLC5        6 GROUP        1 X    GLC  0     **** GLC X 6
     4 ALP1       23 GROUP        1 Y    ALP  0     ROOT ALP Y 8
     5 SEP2        3 GROUP        1 Y    SEP  0     **** SEP Y 9
     6 GLP5        8 GROUP        1 Y    GLP  0     **** GLP Y 13
     7 ALL1       22 GROUP        1 Z    ALL  0     ROOT ALL Z 15
     8 SEL2        2 GROUP        1 Z    SEL  0     **** SEL Z 16
     9 GLL5        7 GROUP        1 Z    GLL  0     **** GLL Z 20
@<TRIPOS>SET

