#    Name: 3f8w_ADN_1_ligand
#    Modification time : Tue Mar 25 03:26:08 2014

@<TRIPOS>MOLECULE
3f8w_ADN_1_ligand
   32    34     1     0     0
SMALL
NO_CHARGES


@<TRIPOS>ATOM
      1 O5'        18.3920   25.7370    7.1700 O.3       1 ADN300      0.0000 
      2 C5'        18.9620   25.6790    8.4690 C.3       1 ADN300      0.0000 
      3 C4'        19.4330   27.0990    8.8990 C.3       1 ADN300      0.0000 
      4 O4'        18.3010   27.9950    8.7660 O.3       1 ADN300      0.0000 
      5 C3'        19.8130   27.1670   10.3990 C.3       1 ADN300      0.0000 
      6 O3'        20.7130   28.2440   10.5830 O.3       1 ADN300      0.0000 
      7 C2'        18.4920   27.3630   11.1470 C.3       1 ADN300      0.0000 
      8 O2'        18.5650   28.3600   12.1310 O.3       1 ADN300      0.0000 
      9 C1'        17.5470   27.8320   10.0080 C.3       1 ADN300      0.0000 
     10 N9         16.4110   26.9470    9.7080 N.pl3     1 ADN300      0.0000 
     11 C8         15.6300   26.9880    8.4100 C.2       1 ADN300      0.0000 
     12 N7         14.5700   25.9450    8.5290 N.2       1 ADN300      0.0000 
     13 C5         14.6860   25.2770    9.8750 C.ar      1 ADN300      0.0000 
     14 C6         13.8910   24.1180   10.5280 C.ar      1 ADN300      0.0000 
     15 N6         12.7570   23.5150    9.8300 N.pl3     1 ADN300      0.0000 
     16 N1         14.2630   23.6460   11.8380 N.ar      1 ADN300      0.0000 
     17 C2         15.4250   24.2900   12.5950 C.ar      1 ADN300      0.0000 
     18 N3         16.2150   25.4160   11.9480 N.ar      1 ADN300      0.0000 
     19 C4         15.8380   25.8860   10.5960 C.ar      1 ADN300      0.0000 
     20 H          19.8391   25.0259    8.5115 H         1 ADN300      0.0000 
     21 H          18.2470   25.3382    9.2241 H         1 ADN300      0.0000 
     22 H          20.2417   27.4075    8.3138 H         1 ADN300      0.0000 
     23 H          20.2202   26.2198   10.6627 H         1 ADN300      0.0000 
     24 H          18.1448   26.4249   11.4730 H         1 ADN300      0.0000 
     25 H          17.1599   28.8241   10.2942 H         1 ADN300      0.0000 
     26 H          15.7838   27.5312    7.7220 H         1 ADN300      0.0000 
     27 H          12.2755   22.7878   10.3191 H         1 ADN300      0.0000 
     28 H          12.5559   23.8792    8.9207 H         1 ADN300      0.0000 
     29 H          15.6569   23.9747   13.4953 H         1 ADN300      0.0000 
     30 H          17.5043   26.1796    7.2966 H         1 ADN300      0.0000 
     31 H          21.6122   27.8166   10.6765 H         1 ADN300      0.0000 
     32 H          19.3552   28.9175   11.8763 H         1 ADN300      0.0000 
@<TRIPOS>BOND
     1    2    1 1    
     2   30    1 1    
     3    3    2 1    
     4   20    2 1    
     5   21    2 1    
     6    4    3 1    
     7    5    3 1    
     8   22    3 1    
     9    9    4 1    
    10    6    5 1    
    11    7    5 1    
    12   23    5 1    
    13   31    6 1    
    14    8    7 1    
    15    9    7 1    
    16   24    7 1    
    17   32    8 1    
    18   10    9 1    
    19   25    9 1    
    20   11   10 1    
    21   19   10 1    
    22   12   11 2    
    23   26   11 1    
    24   13   12 1    
    25   14   13 ar   
    26   19   13 ar   
    27   15   14 1    
    28   16   14 ar   
    29   27   15 1    
    30   28   15 1    
    31   17   16 ar   
    32   18   17 ar   
    33   29   17 1    
    34   19   18 ar   
@<TRIPOS>SUBSTRUCTURE
     1 ADN300      1 GROUP   
@<TRIPOS>SET

