#    Name: 2g27_4LG_1_INTS_M
#    Modification time : Tue Mar 25 13:31:13 2014

@<TRIPOS>MOLECULE
2g27_4LG_1_INTS_M
   96     0     6     0     0
SMALL
NO_CHARGES


@<TRIPOS>ATOM
      1 CA         23.3725  112.0465  125.9685 C.3       2 GLC5        0.0000 
      2 CA         24.3250  112.6740  124.8310 C.3       6 GLL5        0.0000 
      3 CA         22.4200  111.4190  127.1060 C.3       4 GLP5        0.0000 
      4 CA         23.5550  114.1585  124.3890 C.3       2 GLC5        0.0000 
      5 CA         22.7850  115.6430  123.9470 C.3       4 GLP5        0.0000 
      6 CA         24.9925  113.4555  126.2435 C.3       2 GLC5        0.0000 
      7 CA         25.6600  114.2370  127.6560 C.3       4 GLP5        0.0000 
      8 CA         23.6825  113.7110  123.3015 C.3       2 GLC5        0.0000 
      9 CA         24.5800  111.7790  122.6560 C.3       6 GLL5        0.0000 
     10 CA         27.0195  111.7000  122.3830 C.3       2 GLC5        0.0000 
     11 CA         26.5070  113.3840  122.2540 C.3       6 GLL5        0.0000 
     12 CA         27.5320  110.0160  122.5120 C.3       4 GLP5        0.0000 
     13 CA         21.9525  111.2750  119.4010 C.3       2 GLC5        0.0000 
     14 CA         23.8540  111.8900  119.9160 C.3       6 GLL5        0.0000 
     15 CA         20.0510  110.6600  118.8860 C.3       4 GLP5        0.0000 
     16 CA         23.3650  109.2565  129.2150 C.3       2 GLC5        0.0000 
     17 CA         24.3030  108.3880  130.8650 C.3       6 GLL5        0.0000 
     18 CA         22.4270  110.1250  127.5650 C.3       4 GLP5        0.0000 
     19 CA         21.2255  107.7385  133.0255 C.3       2 GLC5        0.0000 
     20 CA         22.8800  108.3340  134.1980 C.3       6 GLL5        0.0000 
     21 CA         19.5710  107.1430  131.8530 C.3       4 GLP5        0.0000 
     22 CA         20.8925  108.4360  135.0755 C.3       2 GLC5        0.0000 
     23 CA         18.9050  108.5380  135.9530 C.3       4 GLP5        0.0000 
     24 CA         22.1770  109.5180  135.9145 C.3       2 GLC5        0.0000 
     25 CA         21.4740  110.7020  137.6310 C.3       4 GLP5        0.0000 
     26 CA         25.0790  108.4075  134.4870 C.3       2 GLC5        0.0000 
     27 CA         27.2780  108.4810  134.7760 C.3       4 GLP5        0.0000 
     28 CA         23.8315  107.0000  134.6995 C.3       2 GLC5        0.0000 
     29 CA         24.7830  105.6660  135.2010 C.3       4 GLP5        0.0000 
     30 CA         22.7140  107.5825  136.0330 C.3       2 GLC5        0.0000 
     31 CA         22.5480  106.8310  137.8680 C.3       4 GLP5        0.0000 
     32 CA         28.2860  113.5795  131.3695 C.3       2 GLC5        0.0000 
     33 CA         29.2790  111.7720  130.5120 C.3       6 GLL5        0.0000 
     34 CA         27.2930  115.3870  132.2270 C.3       4 GLP5        0.0000 
     35 CA         27.8025  111.5125  132.7990 C.3       2 GLC5        0.0000 
     36 CA         29.5570  111.0990  131.8770 C.3       6 GLL5        0.0000 
     37 CA         26.0480  111.9260  133.7210 C.3       4 GLP5        0.0000 
     38 OD1        29.8775  113.1945  132.2000 O.co2     1 ASC3        0.0000 
     39 OD1        30.3870  111.9560  132.6590 O.co2     5 ASL3        0.0000 
     40 OD1        29.3680  114.4330  131.7410 O.co2     3 ASP3        0.0000 
     41 OD1        29.5040  113.0915  133.2270 O.co2     1 ASC3        0.0000 
     42 OD1        28.6210  114.2270  133.7950 O.co2     3 ASP3        0.0000 
     43 OD1        30.5685  111.5145  133.8795 O.co2     1 ASC3        0.0000 
     44 OD1        30.7500  111.0730  135.1000 O.co2     3 ASP3        0.0000 
     45 OD1        29.9470  112.3940  134.1150 O.co2     1 ASC3        0.0000 
     46 OD1        29.5070  112.8320  135.5710 O.co2     3 ASP3        0.0000 
     47 CA         31.5650  113.7880  133.5230 C.3       2 GLC5        0.0000 
     48 CA         31.6930  112.3010  132.0970 C.3       6 GLL5        0.0000 
     49 CA         31.4370  115.2750  134.9490 C.3       4 GLP5        0.0000 
     50 CA         30.6890  115.2955  129.2665 C.3       2 GLC5        0.0000 
     51 CA         30.0830  113.9180  127.9510 C.3       6 GLL5        0.0000 
     52 CA         31.2950  116.6730  130.5820 C.3       4 GLP5        0.0000 
     53 CA         30.1735  116.0615  124.2525 C.3       2 GLC5        0.0000 
     54 CA         29.8420  114.4870  123.5810 C.3       6 GLL5        0.0000 
     55 CA         30.5050  117.6360  124.9240 C.3       4 GLP5        0.0000 
     56 CA         29.3790  116.2470  122.4160 C.3       2 GLC5        0.0000 
     57 CA         29.5350  114.2940  122.0890 C.3       6 GLL5        0.0000 
     58 CA         29.2230  118.2000  122.7430 C.3       4 GLP5        0.0000 
     59 CA         29.3080  114.6300  119.9940 C.3       2 GLC5        0.0000 
     60 CA         29.0810  114.9660  117.8990 C.3       4 GLP5        0.0000 
     61 CA         28.0260  116.4625  122.3395 C.3       2 GLC5        0.0000 
     62 CA         28.2600  114.9660  121.5670 C.3       6 GLL5        0.0000 
     63 CA         27.7920  117.9590  123.1120 C.3       4 GLP5        0.0000 
     64 CA         27.6610  115.6215  120.0725 C.3       2 GLC5        0.0000 
     65 CA         27.0620  116.2770  118.5780 C.3       4 GLP5        0.0000 
     66 CA         25.5617  110.3960  121.5795 C.3       2 GLC5        0.0000 
     67 CA         25.3310  112.5950  121.7540 C.3       6 GLL5        0.0000 
     68 CA         26.1680  108.6050  120.9540 C.3       4 GLP5        0.0000 
     69 CA         26.5285  112.3117  120.2035 C.3       2 GLC5        0.0000 
     70 CA         27.1380  111.6340  118.4030 C.3       4 GLP5        0.0000 
     71 CA         21.5240  110.6495  120.8120 C.3       2 GLC5        0.0000 
     72 CA         23.1200  111.0890  120.8040 C.3       6 GLL5        0.0000 
     73 CA         19.7480  110.2380  120.1360 C.3       4 GLP5        0.0000 
     74 CA         24.7340  109.8330  121.2210 C.3       2 GLC5        0.0000 
     75 CA         22.5835  109.7135  122.7385 C.3       2 GLC5        0.0000 
     76 CA         23.4800  111.0330  122.1720 C.3       6 GLL5        0.0000 
     77 CA         21.8670  108.3660  123.9890 C.3       4 GLP5        0.0000 
     78 CA         21.7030  112.3010  121.8955 C.3       2 GLC5        0.0000 
     79 CA         20.1060  113.5410  122.3030 C.3       4 GLP5        0.0000 
     80 CA         25.7688  111.9472  119.2788 C.3       2 GLC5        0.0000 
     81 CA         25.2837  110.4327  120.5542 C.3       2 GLC5        0.0000 
     82 CA         24.9450  112.6310  120.3930 C.3       6 GLL5        0.0000 
     83 CA         23.4835  113.4586  119.5637 C.3       2 GLC5        0.0000 
     84 CA         22.7510  114.8570  118.7510 C.3       4 GLP5        0.0000 
     85 CA         27.6310  107.4117  125.6877 C.3       2 GLC5        0.0000 
     86 CA         26.1230  108.2280  126.4230 C.3       6 GLL5        0.0000 
     87 CA         28.6780  106.0660  124.7820 C.3       4 GLP5        0.0000 
     88 CA         22.1535  106.4802  128.8915 C.3       2 GLC5        0.0000 
     89 CA         24.1680  106.7490  127.5040 C.3       6 GLL5        0.0000 
     90 CA         20.3970  106.1770  129.6200 C.3       4 GLP5        0.0000 
     91 CA         28.4660  115.1723  127.7940 C.3       2 GLC5        0.0000 
     92 CA         26.8980  116.2900  128.3320 C.3       4 GLP5        0.0000 
     93 CA         29.2123  112.4052  122.9465 C.3       2 GLC5        0.0000 
     94 CA         28.7360  110.4200  123.0580 C.3       4 GLP5        0.0000 
     95 CA         30.5063  114.1150  120.7940 C.3       2 GLC5        0.0000 
     96 CA         32.1150  113.6000  119.7600 C.3       4 GLP5        0.0000 
@<TRIPOS>BOND
@<TRIPOS>SUBSTRUCTURE
     1 ASC3       38 GROUP        1 X    ASC  0     ROOT ASC X 3
     2 GLC5        1 GROUP        1 X    GLC  0     **** GLC X 6
     3 ASP3       40 GROUP        1 Y    ASP  0     ROOT ASP Y 10
     4 GLP5        3 GROUP        1 Y    GLP  0     **** GLP Y 13
     5 ASL3       39 GROUP        1 Z    ASL  0     ROOT ASL Z 17
     6 GLL5        2 GROUP        1 Z    GLL  0     **** GLL Z 20
@<TRIPOS>SET

