#    Name: 2g27_4LG_1_ligand
#    Modification time : Tue Mar 25 13:31:13 2014

@<TRIPOS>MOLECULE
2g27_4LG_1_ligand
   79    83     1     0     0
SMALL
NO_CHARGES


@<TRIPOS>ATOM
      1 C1         24.3250  112.6740  124.8310 C.3       1 4LG804      0.0000 
      2 O1         24.8700  111.6570  124.0160 O.3       1 4LG804      0.0000 
      3 C2         24.5800  111.7790  122.6560 C.ar      1 4LG804      0.0000 
      4 C3         25.3310  112.5950  121.7540 C.ar      1 4LG804      0.0000 
      5 C4         26.5070  113.3840  122.2540 C.3       1 4LG804      0.0000 
      6 O2         27.1640  114.1300  121.2630 O.3       1 4LG804      0.0000 
      7 C5         23.4800  111.0330  122.1720 C.ar      1 4LG804      0.0000 
      8 C6         23.1200  111.0890  120.8040 C.ar      1 4LG804      0.0000 
      9 C7         23.8540  111.8900  119.9160 C.ar      1 4LG804      0.0000 
     10 C8         24.9450  112.6310  120.3930 C.ar      1 4LG804      0.0000 
     11 C9         27.0370  109.8400  128.0960 C.ar      1 4LG804      0.0000 
     12 C10        26.1210  109.3330  128.9920 C.ar      1 4LG804      0.0000 
     13 C11        25.2580  108.3440  128.6890 C.ar      1 4LG804      0.0000 
     14 C12        25.2190  107.7520  127.4060 C.ar      1 4LG804      0.0000 
     15 C13        26.1230  108.2280  126.4230 C.ar      1 4LG804      0.0000 
     16 C14        27.0450  109.2870  126.7640 C.ar      1 4LG804      0.0000 
     17 N1         24.3350  107.7950  129.5020 N.pl3     1 4LG804      0.0000 
     18 C15        23.6520  106.8180  128.8220 C.2       1 4LG804      0.0000 
     19 C16        24.1680  106.7490  127.5040 C.2       1 4LG804      0.0000 
     20 C17        24.3030  108.3880  130.8650 C.3       1 4LG804      0.0000 
     21 C18        23.3500  107.9590  131.8840 C.2       1 4LG804      0.0000 
     22 O3         23.6670  108.5600  133.0330 O.3       1 4LG804      0.0000 
     23 O4         22.4450  107.2330  131.7010 O.2       1 4LG804      0.0000 
     24 C19        22.8800  108.3340  134.1980 C.3       1 4LG804      0.0000 
     25 C20        29.2790  111.7720  130.5120 C.3       1 4LG804      0.0000 
     26 C21        29.5570  111.0990  131.8770 C.3       1 4LG804      0.0000 
     27 N2         30.3870  111.9560  132.6590 N.4       1 4LG804      0.0000 
     28 C22        31.6930  112.3010  132.0970 C.3       1 4LG804      0.0000 
     29 C23        31.6680  112.6020  130.5580 C.2       1 4LG804      0.0000 
     30 N3         30.4970  112.3410  129.8180 N.am      1 4LG804      0.0000 
     31 O5         32.7010  113.0690  130.0810 O.2       1 4LG804      0.0000 
     32 C24        28.4300  110.6760  129.8440 C.3       1 4LG804      0.0000 
     33 O6         27.9320  110.8190  128.5080 O.3       1 4LG804      0.0000 
     34 C25        30.6810  111.6100  127.4700 C.ar      1 4LG804      0.0000 
     35 C26        30.4330  112.6170  128.4500 C.ar      1 4LG804      0.0000 
     36 C27        30.0830  113.9180  127.9510 C.ar      1 4LG804      0.0000 
     37 C28        29.9850  114.1910  126.5610 C.ar      1 4LG804      0.0000 
     38 C29        30.2230  113.1600  125.6080 C.ar      1 4LG804      0.0000 
     39 C30        30.5660  111.8750  126.0880 C.ar      1 4LG804      0.0000 
     40 O7         30.1640  113.2560  124.2050 O.3       1 4LG804      0.0000 
     41 C31        29.8420  114.4870  123.5810 C.3       1 4LG804      0.0000 
     42 C32        29.5350  114.2940  122.0890 C.3       1 4LG804      0.0000 
     43 C33        28.2600  114.9660  121.5670 C.3       1 4LG804      0.0000 
     44 H          27.2063  112.6647  122.7536 H         1 4LG804      0.0000 
     45 H          26.1416  114.0419  123.0845 H         1 4LG804      0.0000 
     46 H          22.9398  110.4480  122.8154 H         1 4LG804      0.0000 
     47 H          22.3233  110.5431  120.4681 H         1 4LG804      0.0000 
     48 H          23.5953  111.9329  118.9292 H         1 4LG804      0.0000 
     49 H          25.4852  113.2210  119.7370 H         1 4LG804      0.0000 
     50 H          26.1047  109.7514  129.9668 H         1 4LG804      0.0000 
     51 H          26.1320  107.8392  125.4912 H         1 4LG804      0.0000 
     52 H          27.6906  109.6370  126.0729 H         1 4LG804      0.0000 
     53 H          22.9530  106.2706  129.1531 H         1 4LG804      0.0000 
     54 H          23.9045  106.1857  126.8231 H         1 4LG804      0.0000 
     55 H          24.2162  109.5315  130.7423 H         1 4LG804      0.0000 
     56 H          25.3669  108.3059  131.3026 H         1 4LG804      0.0000 
     57 H          28.5579  112.5900  130.7632 H         1 4LG804      0.0000 
     58 H          30.0321  110.1371  131.6745 H         1 4LG804      0.0000 
     59 H          28.5911  110.9150  132.3515 H         1 4LG804      0.0000 
     60 H          32.4216  111.4832  132.2531 H         1 4LG804      0.0000 
     61 H          32.1156  113.1952  132.5929 H         1 4LG804      0.0000 
     62 H          27.5634  110.4629  130.5657 H         1 4LG804      0.0000 
     63 H          29.0365  109.7059  129.9356 H         1 4LG804      0.0000 
     64 H          30.9508  110.6664  127.7857 H         1 4LG804      0.0000 
     65 H          29.8986  114.6721  128.6289 H         1 4LG804      0.0000 
     66 H          29.7432  115.1290  126.2419 H         1 4LG804      0.0000 
     67 H          30.7359  111.1143  125.4122 H         1 4LG804      0.0000 
     68 H          30.6683  115.2149  123.6532 H         1 4LG804      0.0000 
     69 H          28.9571  114.9623  124.0379 H         1 4LG804      0.0000 
     70 H          29.4738  113.2045  121.8789 H         1 4LG804      0.0000 
     71 H          30.3999  114.6667  121.4992 H         1 4LG804      0.0000 
     72 H          27.9759  115.7502  122.3304 H         1 4LG804      0.0000 
     73 H          28.5667  115.5801  120.6685 H         1 4LG804      0.0000 
     74 H          24.5620  112.5452  125.7939 H         1 4LG804      0.0000 
     75 H          24.6563  113.5796  124.5662 H         1 4LG804      0.0000 
     76 H          23.3269  112.6993  124.7757 H         1 4LG804      0.0000 
     77 H          22.8662  107.3677  134.4552 H         1 4LG804      0.0000 
     78 H          23.2283  108.8420  134.9858 H         1 4LG804      0.0000 
     79 H          21.9297  108.6154  134.0646 H         1 4LG804      0.0000 
@<TRIPOS>BOND
     1    2    1 1    
     2   74    1 1    
     3   75    1 1    
     4   76    1 1    
     5    3    2 1    
     6    4    3 ar   
     7    7    3 ar   
     8    5    4 1    
     9   10    4 ar   
    10    6    5 1    
    11   44    5 1    
    12   45    5 1    
    13   43    6 1    
    14    8    7 ar   
    15   46    7 1    
    16    9    8 ar   
    17   47    8 1    
    18   10    9 ar   
    19   48    9 1    
    20   49   10 1    
    21   12   11 ar   
    22   16   11 ar   
    23   33   11 1    
    24   13   12 ar   
    25   50   12 1    
    26   14   13 ar   
    27   17   13 1    
    28   15   14 ar   
    29   19   14 1    
    30   16   15 ar   
    31   51   15 1    
    32   52   16 1    
    33   18   17 1    
    34   20   17 1    
    35   19   18 2    
    36   53   18 1    
    37   54   19 1    
    38   21   20 1    
    39   55   20 1    
    40   56   20 1    
    41   22   21 1    
    42   23   21 2    
    43   24   22 1    
    44   77   24 1    
    45   78   24 1    
    46   79   24 1    
    47   26   25 1    
    48   30   25 1    
    49   32   25 1    
    50   57   25 1    
    51   27   26 1    
    52   58   26 1    
    53   59   26 1    
    54   28   27 1    
    55   29   28 1    
    56   60   28 1    
    57   61   28 1    
    58   30   29 am   
    59   31   29 2    
    60   35   30 1    
    61   33   32 1    
    62   62   32 1    
    63   63   32 1    
    64   35   34 ar   
    65   39   34 ar   
    66   64   34 1    
    67   36   35 ar   
    68   37   36 ar   
    69   65   36 1    
    70   38   37 ar   
    71   66   37 1    
    72   39   38 ar   
    73   40   38 1    
    74   67   39 1    
    75   41   40 1    
    76   42   41 1    
    77   68   41 1    
    78   69   41 1    
    79   43   42 1    
    80   70   42 1    
    81   71   42 1    
    82   72   43 1    
    83   73   43 1    
@<TRIPOS>SUBSTRUCTURE
     1 4LG804      1 GROUP   
@<TRIPOS>SET

