#    Name: 4cey_906_1_INTS_M
#    Modification time : Tue Mar 25 09:20:20 2014

@<TRIPOS>MOLECULE
4cey_906_1_INTS_M
   91     0     9     0     0
SMALL
NO_CHARGES


@<TRIPOS>ATOM
      1 CA         94.7710  263.5895  105.3275 C.3       3 GLC5        0.0000 
      2 CA         95.2910  261.4480  105.1830 C.3       9 GLL5        0.0000 
      3 CA         94.2510  265.7310  105.4720 C.3       6 GLP5        0.0000 
      4 CA         93.4385  261.0185  104.7780 C.3       3 GLC5        0.0000 
      5 CA         91.5860  260.5890  104.3730 C.3       6 GLP5        0.0000 
      6 CA        109.7570  260.7140  102.5775 C.3       3 GLC5        0.0000 
      7 CA        108.0180  261.2360  101.9520 C.3       9 GLL5        0.0000 
      8 CA        111.4960  260.1920  103.2030 C.3       6 GLP5        0.0000 
      9 CA        108.1155  260.6460  104.0175 C.3       3 GLC5        0.0000 
     10 CA        108.2130  260.0560  106.0830 C.3       6 GLP5        0.0000 
     11 CA        107.0010  261.9580  103.4530 C.3       3 GLC5        0.0000 
     12 CA        105.9840  262.6800  104.9540 C.3       6 GLP5        0.0000 
     13 CA        109.3365  259.8870  100.7285 C.3       3 GLC5        0.0000 
     14 CA        110.6550  258.5380   99.5050 C.3       6 GLP5        0.0000 
     15 CA        108.8830  262.6790  103.2790 C.3       3 GLC5        0.0000 
     16 CA        109.7480  264.1220  104.6060 C.3       6 GLP5        0.0000 
     17 O         110.6425  268.8295   95.1010 O.2       1 ALC1        0.0000 
     18 O         111.6060  268.2540   94.0600 O.2       7 ALL1        0.0000 
     19 O         109.6790  269.4050   96.1420 O.2       4 ALP1        0.0000 
     20 O         111.6240  269.6310   95.0470 O.2       1 ALC1        0.0000 
     21 O         111.6420  271.0080   96.0340 O.2       4 ALP1        0.0000 
     22 N         109.4145  266.9570   98.1500 N.am      2 SEC2        0.0000 
     23 N         109.8570  265.6190   97.3260 N.am      8 SEL2        0.0000 
     24 N         108.9720  268.2950   98.9740 N.am      5 SEP2        0.0000 
     25 CA        102.6915  262.9625  105.4985 C.3       3 GLC5        0.0000 
     26 CA        102.1700  262.5070  103.5290 C.3       9 GLL5        0.0000 
     27 CA        103.2130  263.4180  107.4680 C.3       6 GLP5        0.0000 
     28 CA         98.8270  261.0285  101.3235 C.3       3 GLC5        0.0000 
     29 CA        100.7210  261.2590  102.0690 C.3       9 GLL5        0.0000 
     30 CA         96.9330  260.7980  100.5780 C.3       6 GLP5        0.0000 
     31 CA        100.2575  259.3300  102.6910 C.3       3 GLC5        0.0000 
     32 CA         99.7940  257.4010  103.3130 C.3       6 GLP5        0.0000 
     33 CA         96.7080  260.9110  102.4515 C.3       3 GLC5        0.0000 
     34 CA         96.4830  261.0240  104.3250 C.3       9 GLL5        0.0000 
     35 CA         95.9715  259.2550  103.1500 C.3       3 GLC5        0.0000 
     36 CA         95.4600  257.4860  101.9750 C.3       6 GLP5        0.0000 
     37 CA         97.4855  259.3865  105.2200 C.3       3 GLC5        0.0000 
     38 CA         98.4880  257.7490  106.1150 C.3       6 GLP5        0.0000 
     39 CA        105.7000  262.8880  102.7460 C.3       3 GLC5        0.0000 
     40 CA        105.2890  261.8730  101.1890 C.3       9 GLL5        0.0000 
     41 CA        106.1110  263.9030  104.3030 C.3       6 GLP5        0.0000 
     42 CA        104.6680  260.0445  102.1840 C.3       3 GLC5        0.0000 
     43 CA        104.0470  258.2160  103.1790 C.3       6 GLP5        0.0000 
     44 CA        106.2010  260.8895   98.2830 C.3       3 GLC5        0.0000 
     45 CA        106.4070  261.8600  100.1440 C.3       9 GLL5        0.0000 
     46 CA        105.9950  259.9190   96.4220 C.3       6 GLP5        0.0000 
     47 CA        110.6030  261.4420  101.0120 C.3       3 GLC5        0.0000 
     48 CA        108.8710  262.2430   99.8320 C.3       9 GLL5        0.0000 
     49 CA        112.3350  260.6410  102.1920 C.3       6 GLP5        0.0000 
     50 CA        109.7630  260.3905   99.6685 C.3       3 GLC5        0.0000 
     51 CA        108.8555  265.1930  100.2190 C.3       3 GLC5        0.0000 
     52 CA        108.7800  263.4720   98.9270 C.3       9 GLL5        0.0000 
     53 CA        108.9310  266.9140  101.5110 C.3       6 GLP5        0.0000 
     54 CA        110.7450  260.4875   97.0995 C.3       3 GLC5        0.0000 
     55 CA        110.5520  262.2240   97.4560 C.3       9 GLL5        0.0000 
     56 CA        110.9380  258.7510   96.7430 C.3       6 GLP5        0.0000 
     57 CA        112.0950  263.2920   98.4285 C.3       3 GLC5        0.0000 
     58 CA        113.6380  264.3600   99.4010 C.3       6 GLP5        0.0000 
     59 CA        112.5800  261.0875   96.8565 C.3       3 GLC5        0.0000 
     60 CA        111.7770  262.8110   96.7560 C.3       9 GLL5        0.0000 
     61 CA        113.3830  259.3640   96.9570 C.3       6 GLP5        0.0000 
     62 CA        112.7375  263.9900   97.5095 C.3       3 GLC5        0.0000 
     63 CA        113.6980  265.1690   98.2630 C.3       6 GLP5        0.0000 
     64 CA        111.3555  262.5245   94.8125 C.3       3 GLC5        0.0000 
     65 CA        110.9340  262.2380   92.8690 C.3       6 GLP5        0.0000 
     66 CA        106.9140  263.0705  102.5695 C.3       3 GLC5        0.0000 
     67 CA        107.7170  262.2380  100.8360 C.3       9 GLL5        0.0000 
     68 CA         95.1495  261.3255  106.4780 C.3       3 GLC5        0.0000 
     69 CA         94.4120  261.4150  108.2020 C.3       6 GLP5        0.0000 
     70 CA        115.2062  264.5772   94.5175 C.3       3 GLC5        0.0000 
     71 CA        112.9550  264.4440   94.7290 C.3       9 GLL5        0.0000 
     72 CA        117.1630  264.3110   94.7930 C.3       6 GLP5        0.0000 
     73 CA        102.8295  260.8737  104.0945 C.3       3 GLC5        0.0000 
     74 CA        103.2140  262.3580  102.6230 C.3       9 GLL5        0.0000 
     75 CA        102.9670  259.3150  105.1130 C.3       6 GLP5        0.0000 
     76 CA        101.4800  262.4430  100.1255 C.3       3 GLC5        0.0000 
     77 CA        101.7180  263.6940   98.6370 C.3       6 GLP5        0.0000 
     78 CA        101.8948  260.4615  103.8875 C.3       3 GLC5        0.0000 
     79 CA        102.4163  262.8535  100.3325 C.3       3 GLC5        0.0000 
     80 CA        103.2180  259.8062  102.2375 C.3       3 GLC5        0.0000 
     81 CA        103.0150  261.6680  101.4330 C.3       9 GLL5        0.0000 
     82 CA        103.1700  259.7978  100.5735 C.3       3 GLC5        0.0000 
     83 CA        103.9510  258.1990   99.8510 C.3       6 GLP5        0.0000 
     84 CA        112.4693  268.0277   95.8325 C.3       3 GLC5        0.0000 
     85 CA        111.4570  266.2390   95.2630 C.3       9 GLL5        0.0000 
     86 CA        113.1850  269.4260   96.8950 C.3       6 GLP5        0.0000 
     87 CA        104.8995  260.0327  100.2587 C.3       3 GLC5        0.0000 
     88 CA        111.7574  263.5666   93.8692 C.3       3 GLC5        0.0000 
     89 CA        111.9120  264.9470   95.4970 C.3       9 GLL5        0.0000 
     90 CA        105.6238  263.3996   99.9041 C.3       3 GLC5        0.0000 
     91 CA        104.4650  264.7470   99.0570 C.3       6 GLP5        0.0000 
@<TRIPOS>BOND
@<TRIPOS>SUBSTRUCTURE
     1 ALC1       17 GROUP        1 X    ALC  0     ROOT ALC X 1
     2 SEC2       22 GROUP        1 X    SEC  0     **** SEC X 2
     3 GLC5        1 GROUP        1 X    GLC  0     **** GLC X 6
     4 ALP1       19 GROUP        1 Y    ALP  0     ROOT ALP Y 8
     5 SEP2       24 GROUP        1 Y    SEP  0     **** SEP Y 9
     6 GLP5        3 GROUP        1 Y    GLP  0     **** GLP Y 13
     7 ALL1       18 GROUP        1 Z    ALL  0     ROOT ALL Z 15
     8 SEL2       23 GROUP        1 Z    SEL  0     **** SEL Z 16
     9 GLL5        2 GROUP        1 Z    GLL  0     **** GLL Z 20
@<TRIPOS>SET

