#    Name: 4cey_906_1_ligand
#    Modification time : Tue Mar 25 09:20:20 2014

@<TRIPOS>MOLECULE
4cey_906_1_ligand
   62    64     1     0     0
SMALL
NO_CHARGES


@<TRIPOS>ATOM
      1 CAA        95.2910  261.4480  105.1830 C.3       1 9061298     0.0000 
      2 CAB       108.0180  261.2360  101.9520 C.3       1 9061298     0.0000 
      3 NAC       111.6060  268.2540   94.0600 N.pl3     1 9061298     0.0000 
      4 OAD       109.8570  265.6190   97.3260 O.2       1 9061298     0.0000 
      5 CAE        99.9020  262.0940  104.1860 C.2       1 9061298     0.0000 
      6 CAF       113.5440  265.2430   93.7550 C.ar      1 9061298     0.0000 
      7 CAG       112.9550  264.4440   94.7290 C.ar      1 9061298     0.0000 
      8 CAH       102.1700  262.5070  103.5290 C.ar      1 9061298     0.0000 
      9 CAI       100.7210  261.2590  102.0690 C.ar      1 9061298     0.0000 
     10 CAJ       103.2140  262.3580  102.6230 C.ar      1 9061298     0.0000 
     11 CAK       101.7630  261.1250  101.1590 C.ar      1 9061298     0.0000 
     12 CAL       111.4570  266.2390   95.2630 C.ar      1 9061298     0.0000 
     13 CAM        96.4830  261.0240  104.3250 C.3       1 9061298     0.0000 
     14 CAN       105.2890  261.8730  101.1890 C.3       1 9061298     0.0000 
     15 CAO       106.4070  261.8600  100.1440 C.3       1 9061298     0.0000 
     16 CAP       108.8710  262.2430   99.8320 C.3       1 9061298     0.0000 
     17 CAQ       108.7800  263.4720   98.9270 C.3       1 9061298     0.0000 
     18 CAR       110.5520  262.2240   97.4560 C.3       1 9061298     0.0000 
     19 CAS       111.7770  262.8110   96.7560 C.3       1 9061298     0.0000 
     20 NAT        98.7480  261.4900  103.8760 N.2       1 9061298     0.0000 
     21 NAU       113.0660  266.5410   93.5450 N.ar      1 9061298     0.0000 
     22 OAV        97.6690  261.6270  104.8480 O.3       1 9061298     0.0000 
     23 OAW       104.0690  261.3920  100.6180 O.3       1 9061298     0.0000 
     24 CAX       110.2970  264.4790   97.1960 C.2       1 9061298     0.0000 
     25 CAY       112.0500  267.0200   94.2770 C.ar      1 9061298     0.0000 
     26 CAZ       100.9240  261.9570  103.2550 C.ar      1 9061298     0.0000 
     27 CBA       103.0150  261.6680  101.4330 C.ar      1 9061298     0.0000 
     28 CBB       111.9120  264.9470   95.4970 C.ar      1 9061298     0.0000 
     29 CBC       107.7170  262.2380  100.8360 C.3       1 9061298     0.0000 
     30 NBD       109.8630  263.4480   97.9200 N.am      1 9061298     0.0000 
     31 NBE       111.2950  264.1570   96.3750 N.am      1 9061298     0.0000 
     32 H         111.2417  268.7370   94.8563 H         1 9061298     0.0000 
     33 H         111.6763  268.5880   93.1201 H         1 9061298     0.0000 
     34 H         100.0452  262.6203  105.0343 H         1 9061298     0.0000 
     35 H         114.3225  264.8872   93.1933 H         1 9061298     0.0000 
     36 H         113.2903  263.4850   94.8798 H         1 9061298     0.0000 
     37 H         102.3211  263.0264  104.4052 H         1 9061298     0.0000 
     38 H          99.8036  260.8440  101.8668 H         1 9061298     0.0000 
     39 H         104.1383  262.7605  102.8346 H         1 9061298     0.0000 
     40 H         101.6081  260.6192  100.2731 H         1 9061298     0.0000 
     41 H         110.6795  266.6190   95.8204 H         1 9061298     0.0000 
     42 H          96.2853  261.3398  103.2979 H         1 9061298     0.0000 
     43 H          96.5387  259.9331  104.3452 H         1 9061298     0.0000 
     44 H         105.1872  262.9031  101.5554 H         1 9061298     0.0000 
     45 H         105.6148  261.2512  102.0334 H         1 9061298     0.0000 
     46 H         106.1862  262.5805   99.3732 H         1 9061298     0.0000 
     47 H         106.4942  260.8711   99.7240 H         1 9061298     0.0000 
     48 H         109.8143  262.2618  100.3697 H         1 9061298     0.0000 
     49 H         108.8215  261.3446   99.2239 H         1 9061298     0.0000 
     50 H         108.8554  264.3665   99.5486 H         1 9061298     0.0000 
     51 H         107.8035  263.4712   98.4386 H         1 9061298     0.0000 
     52 H         110.8691  261.6311   98.2720 H         1 9061298     0.0000 
     53 H         109.9658  261.7000   96.7491 H         1 9061298     0.0000 
     54 H         112.0007  262.2287   95.9005 H         1 9061298     0.0000 
     55 H         112.5762  262.8728   97.4477 H         1 9061298     0.0000 
     56 H         107.6202  263.2155  101.2643 H         1 9061298     0.0000 
     57 H          95.3976  261.1606  106.1349 H         1 9061298     0.0000 
     58 H          95.1716  262.4408  105.1882 H         1 9061298     0.0000 
     59 H          94.4349  261.0516  104.8513 H         1 9061298     0.0000 
     60 H         108.1093  260.3044  101.6001 H         1 9061298     0.0000 
     61 H         108.8702  261.4545  102.4274 H         1 9061298     0.0000 
     62 H         107.2938  261.2192  102.6414 H         1 9061298     0.0000 
@<TRIPOS>BOND
     1   13    1 1    
     2   57    1 1    
     3   58    1 1    
     4   59    1 1    
     5   29    2 1    
     6   60    2 1    
     7   61    2 1    
     8   62    2 1    
     9   25    3 1    
    10   32    3 1    
    11   33    3 1    
    12   24    4 2    
    13   20    5 2    
    14   26    5 1    
    15   34    5 1    
    16    7    6 ar   
    17   21    6 ar   
    18   35    6 1    
    19   28    7 ar   
    20   36    7 1    
    21   10    8 ar   
    22   26    8 ar   
    23   37    8 1    
    24   11    9 ar   
    25   26    9 ar   
    26   38    9 1    
    27   27   10 ar   
    28   39   10 1    
    29   27   11 ar   
    30   40   11 1    
    31   25   12 ar   
    32   28   12 ar   
    33   41   12 1    
    34   22   13 1    
    35   42   13 1    
    36   43   13 1    
    37   15   14 1    
    38   23   14 1    
    39   44   14 1    
    40   45   14 1    
    41   29   15 1    
    42   46   15 1    
    43   47   15 1    
    44   17   16 1    
    45   29   16 1    
    46   48   16 1    
    47   49   16 1    
    48   30   17 1    
    49   50   17 1    
    50   51   17 1    
    51   19   18 1    
    52   30   18 1    
    53   52   18 1    
    54   53   18 1    
    55   31   19 1    
    56   54   19 1    
    57   55   19 1    
    58   22   20 1    
    59   25   21 ar   
    60   27   23 1    
    61   30   24 am   
    62   31   24 am   
    63   31   28 1    
    64   56   29 1    
@<TRIPOS>SUBSTRUCTURE
     1 9061298     1 GROUP   
@<TRIPOS>SET

