#    Name: 3b8q_900_1_INTS_M
#    Modification time : Mon Mar 24 19:08:19 2014

@<TRIPOS>MOLECULE
3b8q_900_1_INTS_M
   89     0     9     0     0
SMALL
NO_CHARGES


@<TRIPOS>ATOM
      1 CA         36.6845   29.0320   13.1295 C.3       3 GLC5        0.0000 
      2 CA         36.7890   30.9680   14.0220 C.3       9 GLL5        0.0000 
      3 CA         36.5800   27.0960   12.2370 C.3       6 GLP5        0.0000 
      4 CA         40.0625   33.8270   13.1070 C.3       3 GLC5        0.0000 
      5 CA         38.4520   33.2890   13.8110 C.3       9 GLL5        0.0000 
      6 CA         41.6730   34.3650   12.4030 C.3       6 GLP5        0.0000 
      7 CA         40.6525   31.3630   13.2205 C.3       3 GLC5        0.0000 
      8 CA         38.9810   32.0690   14.3130 C.3       9 GLL5        0.0000 
      9 CA         42.3240   30.6570   12.1280 C.3       6 GLP5        0.0000 
     10 CA         40.7440   32.9170   14.0980 C.3       3 GLC5        0.0000 
     11 CA         42.5070   33.7650   13.8830 C.3       6 GLP5        0.0000 
     12 CA         34.6705   35.7425   11.0340 C.3       3 GLC5        0.0000 
     13 CA         35.0690   34.5780   12.4510 C.3       9 GLL5        0.0000 
     14 CA         34.2720   36.9070    9.6170 C.3       6 GLP5        0.0000 
     15 N          41.1895   26.4480   10.7155 N.am      2 SEC2        0.0000 
     16 N          40.6630   27.2810   11.9610 N.am      8 SEL2        0.0000 
     17 N          41.7160   25.6150    9.4700 N.am      5 SEP2        0.0000 
     18 CA         39.7615   30.1600   10.2650 C.3       3 GLC5        0.0000 
     19 CA         39.8980   28.3410   11.5740 C.3       9 GLL5        0.0000 
     20 CA         39.6250   31.9790    8.9560 C.3       6 GLP5        0.0000 
     21 CA         39.6570   26.8230   10.1760 C.3       3 GLC5        0.0000 
     22 CA         39.4160   25.3050    8.7780 C.3       6 GLP5        0.0000 
     23 CA         41.4630   28.3880   10.1605 C.3       3 GLC5        0.0000 
     24 CA         43.0280   28.4350    8.7470 C.3       6 GLP5        0.0000 
     25 CA         40.1855   25.8345   18.1220 C.3       3 GLC5        0.0000 
     26 CA         41.9720   26.8800   18.1980 C.3       9 GLL5        0.0000 
     27 CA         38.3990   24.7890   18.0460 C.3       6 GLP5        0.0000 
     28 CA         41.7865   28.8705   17.5805 C.3       3 GLC5        0.0000 
     29 CA         41.6010   30.8610   16.9630 C.3       6 GLP5        0.0000 
     30 CA         44.8705   25.5790   15.3685 C.3       3 GLC5        0.0000 
     31 CA         43.7110   24.9600   16.3000 C.3       9 GLL5        0.0000 
     32 CA         46.0300   26.1980   14.4370 C.3       6 GLP5        0.0000 
     33 O          35.2620   36.8855   13.5000 O.2       1 ALC1        0.0000 
     34 O          36.5560   37.0230   12.4530 O.2       7 ALL1        0.0000 
     35 O          33.9680   36.7480   14.5470 O.2       4 ALP1        0.0000 
     36 CA         35.6955   37.5860   10.9040 C.3       3 GLC5        0.0000 
     37 CA         37.1190   38.2650   12.1910 C.3       9 GLL5        0.0000 
     38 CA         38.2180   42.4045    9.4490 C.3       3 GLC5        0.0000 
     39 CA         39.0140   42.2980   11.2950 C.3       9 GLL5        0.0000 
     40 CA         37.4220   42.5110    7.6030 C.3       6 GLP5        0.0000 
     41 N          39.5540   36.1130   13.3050 N.am      2 SEC2        0.0000 
     42 N          38.4510   35.8190   12.4660 N.am      8 SEL2        0.0000 
     43 N          40.6570   36.4070   14.1440 N.am      5 SEP2        0.0000 
     44 CA         36.8113   29.5255   15.2050 C.3       3 GLC5        0.0000 
     45 CA         38.1640   30.8980   14.4080 C.3       9 GLL5        0.0000 
     46 CA         36.1460   28.1180   16.1950 C.3       6 GLP5        0.0000 
     47 CA         35.5695   32.7828   15.0358 C.3       3 GLC5        0.0000 
     48 CA         34.6300   33.9880   16.3020 C.3       6 GLP5        0.0000 
     49 CA         35.9287   32.3397   11.5168 C.3       3 GLC5        0.0000 
     50 CA         36.2290   32.1870   13.5170 C.3       9 GLL5        0.0000 
     51 CA         35.2140   31.8930    9.5790 C.3       6 GLP5        0.0000 
     52 CA         33.5397   32.3507   14.2043 C.3       3 GLC5        0.0000 
     53 CA         34.8620   32.2130   13.1340 C.3       9 GLL5        0.0000 
     54 CA         32.5060   31.8940   15.5360 C.3       6 GLP5        0.0000 
     55 CA         34.8937   32.3503   11.2258 C.3       3 GLC5        0.0000 
     56 CA         32.8970   33.9650   11.6815 C.3       3 GLC5        0.0000 
     57 CA         34.2850   33.4020   12.6110 C.3       9 GLL5        0.0000 
     58 CA         31.1170   33.9400   10.8320 C.3       6 GLP5        0.0000 
     59 CA         35.2716   34.1380   14.5406 C.3       3 GLC5        0.0000 
     60 CA         35.4885   33.2435   11.1080 C.3       3 GLC5        0.0000 
     61 CA         36.4570   34.6100   12.8230 C.3       9 GLL5        0.0000 
     62 CA         39.3808   25.9352   14.6470 C.3       3 GLC5        0.0000 
     63 CA         40.0940   27.7880   14.2350 C.3       9 GLL5        0.0000 
     64 CA         38.3140   24.4900   15.5280 C.3       6 GLP5        0.0000 
     65 CA         38.4146   27.3771   12.9522 C.3       3 GLC5        0.0000 
     66 CA         40.8010   26.9730   13.2970 C.3       9 GLL5        0.0000 
     67 CA         41.2866   29.1576   12.8978 C.3       3 GLC5        0.0000 
     68 CA         39.3010   28.8990   13.8410 C.3       9 GLL5        0.0000 
     69 CA         38.0658   27.9252   12.1330 C.3       3 GLC5        0.0000 
     70 CA         40.9378   29.7058   12.0785 C.3       3 GLC5        0.0000 
     71 CA         39.2050   29.1680   12.4840 C.3       9 GLL5        0.0000 
     72 CA         39.4527   25.7275   15.6747 C.3       3 GLC5        0.0000 
     73 CA         40.2090   27.4990   15.5890 C.3       9 GLL5        0.0000 
     74 CA         38.0496   28.0196   15.5042 C.3       3 GLC5        0.0000 
     75 CA         39.9793   25.1185   14.9970 C.3       3 GLC5        0.0000 
     76 CA         41.6960   25.6140   15.1630 C.3       9 GLL5        0.0000 
     77 CA         43.8372   25.9725   14.4515 C.3       3 GLC5        0.0000 
     78 CA         35.1045   38.8510   13.1997 C.3       3 GLC5        0.0000 
     79 CA         33.2390   38.8820   13.8030 C.3       6 GLP5        0.0000 
     80 CA         38.8282   39.5980   13.6067 C.3       3 GLC5        0.0000 
     81 CA         37.4040   40.6300   12.7270 C.3       9 GLL5        0.0000 
     82 CA         39.8040   38.4980   15.0420 C.3       6 GLP5        0.0000 
     83 CA         37.9417   41.3675    9.4005 C.3       3 GLC5        0.0000 
     84 CA         38.3010   40.7660   11.6160 C.3       9 GLL5        0.0000 
     85 CA         37.1415   38.5448    9.5635 C.3       3 GLC5        0.0000 
     86 CA         38.6220   39.6820   10.7800 C.3       9 GLL5        0.0000 
     87 CA         35.9570   38.0360    8.2040 C.3       6 GLP5        0.0000 
     88 CA         38.6520   38.5602   13.4366 C.3       3 GLC5        0.0000 
     89 CA         38.0300   38.4250   11.0660 C.3       9 GLL5        0.0000 
@<TRIPOS>BOND
@<TRIPOS>SUBSTRUCTURE
     1 ALC1       33 GROUP        1 X    ALC  0     ROOT ALC X 1
     2 SEC2       15 GROUP        1 X    SEC  0     **** SEC X 2
     3 GLC5        1 GROUP        1 X    GLC  0     **** GLC X 6
     4 ALP1       35 GROUP        1 Y    ALP  0     ROOT ALP Y 8
     5 SEP2       17 GROUP        1 Y    SEP  0     **** SEP Y 9
     6 GLP5        3 GROUP        1 Y    GLP  0     **** GLP Y 13
     7 ALL1       34 GROUP        1 Z    ALL  0     ROOT ALL Z 15
     8 SEL2       16 GROUP        1 Z    SEL  0     **** SEL Z 16
     9 GLL5        2 GROUP        1 Z    GLL  0     **** GLL Z 20
@<TRIPOS>SET

