#    Name: 3b8q_900_1_ligand
#    Modification time : Mon Mar 24 19:08:19 2014

@<TRIPOS>MOLECULE
3b8q_900_1_ligand
   56    60     1     0     0
SMALL
NO_CHARGES


@<TRIPOS>ATOM
      1 C1         38.1640   30.8980   14.4080 C.ar      1 900501      0.0000 
      2 C2         36.7890   30.9680   14.0220 C.ar      1 900501      0.0000 
      3 C3         36.2290   32.1870   13.5170 C.ar      1 900501      0.0000 
      4 C4         37.0580   33.3860   13.3920 C.ar      1 900501      0.0000 
      5 C5         38.4520   33.2890   13.8110 C.ar      1 900501      0.0000 
      6 C6         38.9810   32.0690   14.3130 C.ar      1 900501      0.0000 
      7 C10        34.8620   32.2130   13.1340 C.ar      1 900501      0.0000 
      8 C11        34.2850   33.4020   12.6110 C.ar      1 900501      0.0000 
      9 C12        35.0690   34.5780   12.4510 C.ar      1 900501      0.0000 
     10 C13        36.4570   34.6100   12.8230 C.ar      1 900501      0.0000 
     11 O17        38.6460   29.6540   14.8490 O.3       1 900501      0.0000 
     12 C18        39.3010   28.8990   13.8410 C.ar      1 900501      0.0000 
     13 C19        40.0940   27.7880   14.2350 C.ar      1 900501      0.0000 
     14 C20        40.8010   26.9730   13.2970 C.ar      1 900501      0.0000 
     15 N21        40.6630   27.2810   11.9610 N.ar      1 900501      0.0000 
     16 C22        39.8980   28.3410   11.5740 C.ar      1 900501      0.0000 
     17 C23        39.2050   29.1680   12.4840 C.ar      1 900501      0.0000 
     18 C26        40.2090   27.4990   15.5890 C.ar      1 900501      0.0000 
     19 C27        40.9740   26.4310   16.0540 C.ar      1 900501      0.0000 
     20 C28        41.6960   25.6140   15.1630 C.ar      1 900501      0.0000 
     21 C29        41.5930   25.8800   13.7690 C.ar      1 900501      0.0000 
     22 O32        40.9480   26.2870   17.4440 O.3       1 900501      0.0000 
     23 C33        41.9720   26.8800   18.1980 C.3       1 900501      0.0000 
     24 O37        42.4650   24.5670   15.7070 O.3       1 900501      0.0000 
     25 C38        43.7110   24.9600   16.3000 C.3       1 900501      0.0000 
     26 C42        37.2430   35.8540   12.5900 C.2       1 900501      0.0000 
     27 N43        36.5560   37.0230   12.4530 N.am      1 900501      0.0000 
     28 C44        37.1190   38.2650   12.1910 C.ar      1 900501      0.0000 
     29 C45        36.8210   39.3750   13.0020 C.ar      1 900501      0.0000 
     30 C46        37.4040   40.6300   12.7270 C.ar      1 900501      0.0000 
     31 C47        38.3010   40.7660   11.6160 C.ar      1 900501      0.0000 
     32 C48        38.6220   39.6820   10.7800 C.ar      1 900501      0.0000 
     33 C49        38.0300   38.4250   11.0660 C.ar      1 900501      0.0000 
     34 CL54       39.0140   42.2980   11.2950 Cl        1 900501      0.0000 
     35 O55        38.4510   35.8190   12.4660 O.2       1 900501      0.0000 
     36 H          36.1976   30.1405   14.1065 H         1 900501      0.0000 
     37 H          39.0415   34.1165   13.7364 H         1 900501      0.0000 
     38 H          39.9582   32.0232   14.6114 H         1 900501      0.0000 
     39 H          34.2899   31.3735   13.2346 H         1 900501      0.0000 
     40 H          33.2974   33.4126   12.3472 H         1 900501      0.0000 
     41 H          34.6405   35.4248   12.0623 H         1 900501      0.0000 
     42 H          39.8070   28.5703   10.5510 H         1 900501      0.0000 
     43 H          38.6471   29.9460   12.1386 H         1 900501      0.0000 
     44 H          39.7086   28.0981   16.2795 H         1 900501      0.0000 
     45 H          42.0858   25.2894   13.1001 H         1 900501      0.0000 
     46 H          35.4888   36.9916   12.5545 H         1 900501      0.0000 
     47 H          36.1804   39.2740   13.7934 H         1 900501      0.0000 
     48 H          37.1968   41.4376   13.3052 H         1 900501      0.0000 
     49 H          39.2511   39.7885   10.0020 H         1 900501      0.0000 
     50 H          38.2348   37.6122   10.4855 H         1 900501      0.0000 
     51 H          42.8724   26.5265   17.9444 H         1 900501      0.0000 
     52 H          42.0001   27.8715   18.0712 H         1 900501      0.0000 
     53 H          41.8567   26.7129   19.1772 H         1 900501      0.0000 
     54 H          44.2128   24.1754   16.6642 H         1 900501      0.0000 
     55 H          44.3111   25.4106   15.6391 H         1 900501      0.0000 
     56 H          43.5767   25.5992   17.0572 H         1 900501      0.0000 
@<TRIPOS>BOND
     1    2    1 ar   
     2    6    1 ar   
     3   11    1 1    
     4    3    2 ar   
     5   36    2 1    
     6    4    3 ar   
     7    7    3 ar   
     8    5    4 ar   
     9   10    4 ar   
    10    6    5 ar   
    11   37    5 1    
    12   38    6 1    
    13    8    7 ar   
    14   39    7 1    
    15    9    8 ar   
    16   40    8 1    
    17   10    9 ar   
    18   41    9 1    
    19   26   10 1    
    20   12   11 1    
    21   13   12 ar   
    22   17   12 ar   
    23   14   13 ar   
    24   18   13 ar   
    25   15   14 ar   
    26   21   14 ar   
    27   16   15 ar   
    28   17   16 ar   
    29   42   16 1    
    30   43   17 1    
    31   19   18 ar   
    32   44   18 1    
    33   20   19 ar   
    34   22   19 1    
    35   21   20 ar   
    36   24   20 1    
    37   45   21 1    
    38   23   22 1    
    39   51   23 1    
    40   52   23 1    
    41   53   23 1    
    42   25   24 1    
    43   54   25 1    
    44   55   25 1    
    45   56   25 1    
    46   27   26 am   
    47   35   26 2    
    48   28   27 1    
    49   46   27 1    
    50   29   28 ar   
    51   33   28 ar   
    52   30   29 ar   
    53   47   29 1    
    54   31   30 ar   
    55   48   30 1    
    56   32   31 ar   
    57   34   31 1    
    58   33   32 ar   
    59   49   32 1    
    60   50   33 1    
@<TRIPOS>SUBSTRUCTURE
     1 900501      1 GROUP   
@<TRIPOS>SET

