#    Name: 4k4e_K4E_2_INTS_M
#    Modification time : Tue Mar 25 06:57:34 2014

@<TRIPOS>MOLECULE
4k4e_K4E_2_INTS_M
   63     0     6     0     0
SMALL
NO_CHARGES


@<TRIPOS>ATOM
      1 CA         30.3545   44.9815   -3.7120 C.3       2 GLC5        0.0000 
      2 CA         30.4410   46.1430   -1.8120 C.3       6 GLL5        0.0000 
      3 CA         30.2680   43.8200   -5.6120 C.3       4 GLP5        0.0000 
      4 CA         32.7910   46.9045    3.3955 C.3       2 GLC5        0.0000 
      5 CA         32.8320   45.8830    1.8200 C.3       6 GLL5        0.0000 
      6 CA         32.7500   47.9260    4.9710 C.3       4 GLP5        0.0000 
      7 CA         29.2095   44.8965   -4.3575 C.3       2 GLC5        0.0000 
      8 CA         28.1510   45.9730   -3.1030 C.3       6 GLL5        0.0000 
      9 CA         26.6025   45.8915   -3.7295 C.3       2 GLC5        0.0000 
     10 CA         25.0540   45.8100   -4.3560 C.3       4 GLP5        0.0000 
     11 CA         28.8630   46.9505   -4.6055 C.3       2 GLC5        0.0000 
     12 CA         29.5750   47.9280   -6.1080 C.3       4 GLP5        0.0000 
     13 CA         28.4535   47.9720   -2.2310 C.3       2 GLC5        0.0000 
     14 CA         28.7560   49.9710   -1.3590 C.3       4 GLP5        0.0000 
     15 CA         26.2555   44.4795    3.4805 C.3       2 GLC5        0.0000 
     16 CA         27.3730   44.6800    2.2200 C.3       6 GLL5        0.0000 
     17 CA         25.1380   44.2790    4.7410 C.3       4 GLP5        0.0000 
     18 N          25.7110   42.0465    2.8825 N.am      1 SEC2        0.0000 
     19 N          26.7090   42.4470    2.0110 N.am      5 SEL2        0.0000 
     20 N          24.7130   41.6460    3.7540 N.am      3 SEP2        0.0000 
     21 CA         27.9805   40.1995    2.4050 C.3       2 GLC5        0.0000 
     22 CA         29.4030   41.6480    1.5460 C.3       6 GLL5        0.0000 
     23 CA         26.5580   38.7510    3.2640 C.3       4 GLP5        0.0000 
     24 CA         29.1050   41.6535   -1.6855 C.3       2 GLC5        0.0000 
     25 CA         29.8180   41.2780    0.1100 C.3       6 GLL5        0.0000 
     26 CA         28.3920   42.0290   -3.4810 C.3       4 GLP5        0.0000 
     27 CA         29.9370   38.3100   -0.9475 C.3       2 GLC5        0.0000 
     28 CA         30.6060   39.9610    0.0260 C.3       6 GLL5        0.0000 
     29 CA         29.2680   36.6590   -1.9210 C.3       4 GLP5        0.0000 
     30 N          31.5290   36.2835    2.9010 N.am      1 SEC2        0.0000 
     31 N          31.1940   37.1940    1.7680 N.am      5 SEL2        0.0000 
     32 N          31.8640   35.3730    4.0340 N.am      3 SEP2        0.0000 
     33 CA         34.2130   36.3165    2.2445 C.3       2 GLC5        0.0000 
     34 CA         34.1410   37.1680    0.2700 C.3       6 GLL5        0.0000 
     35 CA         34.2850   35.4650    4.2190 C.3       4 GLP5        0.0000 
     36 CA         28.4892   44.0005   -2.9227 C.3       2 GLC5        0.0000 
     37 CA         29.0220   45.9710   -1.6260 C.3       6 GLL5        0.0000 
     38 CA         29.1530   47.9905   -1.3865 C.3       2 GLC5        0.0000 
     39 CA         31.8680   42.0382    3.9860 C.3       2 GLC5        0.0000 
     40 CA         31.5320   40.2850    2.3370 C.3       6 GLL5        0.0000 
     41 CA         32.6610   43.1480    5.5510 C.3       4 GLP5        0.0000 
     42 CA         29.7135   39.8897    3.7230 C.3       2 GLC5        0.0000 
     43 CA         30.6180   41.5720    2.5050 C.3       6 GLL5        0.0000 
     44 CA         28.3520   38.8510    5.0250 C.3       4 GLP5        0.0000 
     45 CA         33.5510   40.1870    2.2458 C.3       2 GLC5        0.0000 
     46 CA         35.3920   40.2440    2.8810 C.3       4 GLP5        0.0000 
     47 CA         31.6330   40.9661   -1.1060 C.3       2 GLC5        0.0000 
     48 CA         31.8880   39.9750    0.8840 C.3       6 GLL5        0.0000 
     49 CA         32.2160   41.6350   -2.6880 C.3       4 GLP5        0.0000 
     50 CA         34.8302   36.3117   -1.7612 C.3       2 GLC5        0.0000 
     51 CA         34.9030   35.7110   -3.5480 C.3       4 GLP5        0.0000 
     52 CA         35.6923   38.2028    1.2572 C.3       2 GLC5        0.0000 
     53 CA         35.3740   36.6570   -0.2190 C.3       6 GLL5        0.0000 
     54 CA         36.6270   39.4930    2.4890 C.3       4 GLP5        0.0000 
     55 CA         34.7965   39.6348    1.3652 C.3       2 GLC5        0.0000 
     56 CA         34.6270   39.5200   -0.4630 C.3       6 GLL5        0.0000 
     57 CA         33.8173   39.1494   -2.0069 C.3       2 GLC5        0.0000 
     58 CA         33.7750   38.5310    0.1620 C.3       6 GLL5        0.0000 
     59 CA         32.5930   39.2660   -3.4530 C.3       4 GLP5        0.0000 
     60 CA         35.4830   37.0235   -2.2283 C.3       2 GLC5        0.0000 
     61 CA         35.8820   39.0400   -0.9710 C.3       6 GLL5        0.0000 
     62 CA         36.3450   38.9145    0.7902 C.3       2 GLC5        0.0000 
     63 CA         36.2440   37.6320   -0.8460 C.3       6 GLL5        0.0000 
@<TRIPOS>BOND
@<TRIPOS>SUBSTRUCTURE
     1 SEC2       18 GROUP        1 X    SEC  0     ROOT SEC X 2
     2 GLC5        1 GROUP        1 X    GLC  0     **** GLC X 6
     3 SEP2       20 GROUP        1 Y    SEP  0     ROOT SEP Y 9
     4 GLP5        3 GROUP        1 Y    GLP  0     **** GLP Y 13
     5 SEL2       19 GROUP        1 Z    SEL  0     ROOT SEL Z 16
     6 GLL5        2 GROUP        1 Z    GLL  0     **** GLL Z 20
@<TRIPOS>SET

