#    Name: 4k4e_K4E_2_ligand
#    Modification time : Tue Mar 25 06:57:34 2014

@<TRIPOS>MOLECULE
4k4e_K4E_2_ligand
   55    58     1     0     0
SMALL
NO_CHARGES


@<TRIPOS>ATOM
      1 N1         28.5830   45.4820    2.0140 N.pl3     1 K4E1402     0.0000 
      2 C1         29.1350   45.7560    0.7560 C.ar      1 K4E1402     0.0000 
      3 C2         28.2960   45.7830   -0.4060 C.ar      1 K4E1402     0.0000 
      4 C3         29.0220   45.9710   -1.6260 C.ar      1 K4E1402     0.0000 
      5 C4         30.4410   46.1430   -1.8120 C.ar      1 K4E1402     0.0000 
      6 C5         31.2460   46.1250   -0.6490 C.ar      1 K4E1402     0.0000 
      7 C6         30.5950   45.9270    0.6410 C.ar      1 K4E1402     0.0000 
      8 O1         31.3790   45.8520    1.8500 O.3       1 K4E1402     0.0000 
      9 C7         32.8320   45.8830    1.8200 C.3       1 K4E1402     0.0000 
     10 CL1        28.1510   45.9730   -3.1030 Cl        1 K4E1402     0.0000 
     11 C8         27.3730   44.6800    2.2200 C.3       1 K4E1402     0.0000 
     12 C9         27.6350   43.2550    1.9650 C.2       1 K4E1402     0.0000 
     13 O2         26.7090   42.4470    2.0110 O.2       1 K4E1402     0.0000 
     14 N2         28.9350   43.0120    1.7010 N.am      1 K4E1402     0.0000 
     15 C10        29.4030   41.6480    1.5460 C.3       1 K4E1402     0.0000 
     16 C11        29.8180   41.2780    0.1100 C.3       1 K4E1402     0.0000 
     17 C12        30.6060   39.9610    0.0260 C.3       1 K4E1402     0.0000 
     18 C13        30.6180   41.5720    2.5050 C.3       1 K4E1402     0.0000 
     19 C14        31.5320   40.2850    2.3370 C.3       1 K4E1402     0.0000 
     20 C15        31.8880   39.9750    0.8840 C.3       1 K4E1402     0.0000 
     21 N3         32.5670   38.6640    0.7780 N.am      1 K4E1402     0.0000 
     22 C16        32.2200   37.4500    1.2020 C.2       1 K4E1402     0.0000 
     23 O3         31.1940   37.1940    1.7680 O.2       1 K4E1402     0.0000 
     24 N4         33.1470   36.5140    0.9090 N.am      1 K4E1402     0.0000 
     25 C17        34.1410   37.1680    0.2700 C.ar      1 K4E1402     0.0000 
     26 C18        33.7750   38.5310    0.1620 C.ar      1 K4E1402     0.0000 
     27 C19        34.6270   39.5200   -0.4630 C.ar      1 K4E1402     0.0000 
     28 C20        35.8820   39.0400   -0.9710 C.ar      1 K4E1402     0.0000 
     29 C21        36.2440   37.6320   -0.8460 C.ar      1 K4E1402     0.0000 
     30 C22        35.3740   36.6570   -0.2190 C.ar      1 K4E1402     0.0000 
     31 H          29.0409   45.8593    2.8719 H         1 K4E1402     0.0000 
     32 H          27.3348   45.6840   -0.3690 H         1 K4E1402     0.0000 
     33 H          30.8237   46.2676   -2.7207 H         1 K4E1402     0.0000 
     34 H          32.2395   46.2434   -0.6891 H         1 K4E1402     0.0000 
     35 H          26.5715   45.0343    1.5507 H         1 K4E1402     0.0000 
     36 H          27.0098   44.8103    3.2530 H         1 K4E1402     0.0000 
     37 H          29.6295   43.7619    1.6013 H         1 K4E1402     0.0000 
     38 H          28.6762   40.9505    1.9102 H         1 K4E1402     0.0000 
     39 H          30.4324   42.0882   -0.3016 H         1 K4E1402     0.0000 
     40 H          28.9165   41.1945   -0.5094 H         1 K4E1402     0.0000 
     41 H          30.8806   39.7743   -1.0172 H         1 K4E1402     0.0000 
     42 H          29.9654   39.1388    0.3607 H         1 K4E1402     0.0000 
     43 H          30.2609   41.5961    3.5444 H         1 K4E1402     0.0000 
     44 H          31.2535   42.4563    2.3550 H         1 K4E1402     0.0000 
     45 H          30.9960   39.4391    2.7783 H         1 K4E1402     0.0000 
     46 H          32.4448   40.4498    2.9177 H         1 K4E1402     0.0000 
     47 H          32.5282   40.7565    0.5104 H         1 K4E1402     0.0000 
     48 H          33.1089   35.5874    1.1101 H         1 K4E1402     0.0000 
     49 H          34.3583   40.4625   -0.5331 H         1 K4E1402     0.0000 
     50 H          36.5285   39.6772   -1.4219 H         1 K4E1402     0.0000 
     51 H          37.1492   37.3247   -1.2171 H         1 K4E1402     0.0000 
     52 H          35.6305   35.7142   -0.1441 H         1 K4E1402     0.0000 
     53 H          33.2237   45.8253    2.7383 H         1 K4E1402     0.0000 
     54 H          33.2089   45.1219    1.2922 H         1 K4E1402     0.0000 
     55 H          33.1770   46.7256    1.4066 H         1 K4E1402     0.0000 
@<TRIPOS>BOND
     1    2    1 1    
     2   11    1 1    
     3   31    1 1    
     4    3    2 ar   
     5    7    2 ar   
     6    4    3 ar   
     7   32    3 1    
     8    5    4 ar   
     9   10    4 1    
    10    6    5 ar   
    11   33    5 1    
    12    7    6 ar   
    13   34    6 1    
    14    8    7 1    
    15    9    8 1    
    16   53    9 1    
    17   54    9 1    
    18   55    9 1    
    19   12   11 1    
    20   35   11 1    
    21   36   11 1    
    22   13   12 2    
    23   14   12 am   
    24   15   14 1    
    25   37   14 1    
    26   16   15 1    
    27   18   15 1    
    28   38   15 1    
    29   17   16 1    
    30   39   16 1    
    31   40   16 1    
    32   20   17 1    
    33   41   17 1    
    34   42   17 1    
    35   19   18 1    
    36   43   18 1    
    37   44   18 1    
    38   20   19 1    
    39   45   19 1    
    40   46   19 1    
    41   21   20 1    
    42   47   20 1    
    43   22   21 am   
    44   26   21 1    
    45   23   22 2    
    46   24   22 am   
    47   25   24 1    
    48   48   24 1    
    49   26   25 ar   
    50   30   25 ar   
    51   27   26 ar   
    52   28   27 ar   
    53   49   27 1    
    54   29   28 ar   
    55   50   28 1    
    56   30   29 ar   
    57   51   29 1    
    58   52   30 1    
@<TRIPOS>SUBSTRUCTURE
     1 K4E1402     1 GROUP   
@<TRIPOS>SET

