#    Name: 2jjq_SAH_1_INTS_M
#    Modification time : Tue Mar 25 20:58:52 2014

@<TRIPOS>MOLECULE
2jjq_SAH_1_INTS_M
   67     0    12     0     0
SMALL
NO_CHARGES


@<TRIPOS>ATOM
      1 OD1         9.1860    0.7975    5.2475 O.co2     3 ASC3        0.0000 
      2 OD1         8.7270    0.7340    6.6200 O.co2    11 ASL3        0.0000 
      3 OD1         9.6450    0.8610    3.8750 O.co2     7 ASP3        0.0000 
      4 O           7.8270   -0.5285    6.8500 O.2       1 ALC1        0.0000 
      5 O           8.7270    0.7340    6.6200 O.2       9 ALL1        0.0000 
      6 O           6.9270   -1.7910    7.0800 O.2       5 ALP1        0.0000 
      7 O           9.1860    0.7975    5.2475 O.2       1 ALC1        0.0000 
      8 O           9.6450    0.8610    3.8750 O.2       5 ALP1        0.0000 
      9 O           7.1540    0.7885    6.1720 O.2       1 ALC1        0.0000 
     10 O           5.5810    0.8430    5.7240 O.2       5 ALP1        0.0000 
     11 O           7.9730    1.7260    7.5795 O.2       1 ALC1        0.0000 
     12 O           7.2190    2.7180    8.5390 O.2       5 ALP1        0.0000 
     13 CA          9.4350   -0.8870    9.1445 C.3       4 GLC5        0.0000 
     14 CA          9.8270    0.0970    7.4160 C.3      12 GLL5        0.0000 
     15 CA          9.0430   -1.8710   10.8730 C.3       8 GLP5        0.0000 
     16 CA          7.8965   -2.8850    5.7755 C.3       4 GLC5        0.0000 
     17 CA          9.9150   -2.0230    6.0270 C.3      12 GLL5        0.0000 
     18 CA          5.8780   -3.7470    5.5240 C.3       8 GLP5        0.0000 
     19 N          11.4175    2.4895    9.2530 N.am      2 SEC2        0.0000 
     20 N          11.6190    1.0070    8.7720 N.am     10 SEL2        0.0000 
     21 N          11.2160    3.9720    9.7340 N.am      6 SEP2        0.0000 
     22 N          11.7885    2.6585    6.6115 N.am      2 SEC2        0.0000 
     23 N          10.5820    2.3230    7.4780 N.am     10 SEL2        0.0000 
     24 N          12.9950    2.9940    5.7450 N.am      6 SEP2        0.0000 
     25 N          10.8990    3.1475    8.6060 N.am      2 SEC2        0.0000 
     26 CA         10.1455   -5.9005    3.6955 C.3       4 GLC5        0.0000 
     27 CA          9.9910   -4.6150    5.3120 C.3      12 GLL5        0.0000 
     28 CA         10.3000   -7.1860    2.0790 C.3       8 GLP5        0.0000 
     29 O           8.9205   -5.4295    9.8300 O.2       1 ALC1        0.0000 
     30 O          10.0130   -4.5240    8.8510 O.2       9 ALL1        0.0000 
     31 O           7.8280   -6.3350   10.8090 O.2       5 ALP1        0.0000 
     32 O           8.7625   -4.5185    9.2250 O.2       1 ALC1        0.0000 
     33 O           7.5120   -4.5130    9.5990 O.2       5 ALP1        0.0000 
     34 O           8.8890   -6.7905   10.1380 O.2       1 ALC1        0.0000 
     35 O           9.9500   -7.2460    9.4670 O.2       9 ALL1        0.0000 
     36 CA          6.9150   -6.5795    6.1935 C.3       4 GLC5        0.0000 
     37 CA          8.4940   -7.0410    7.6070 C.3      12 GLL5        0.0000 
     38 CA          5.3360   -6.1180    4.7800 C.3       8 GLP5        0.0000 
     39 CA          7.7330   -9.3850    4.5320 C.3       4 GLC5        0.0000 
     40 CA          6.7360   -9.9460    6.3310 C.3      12 GLL5        0.0000 
     41 CA          8.7300   -8.8240    2.7330 C.3       8 GLP5        0.0000 
     42 CA          3.5585   -9.9185    5.2110 C.3       4 GLC5        0.0000 
     43 CA          5.4070  -10.5840    6.2290 C.3      12 GLL5        0.0000 
     44 CA          1.7100   -9.2530    4.1930 C.3       8 GLP5        0.0000 
     45 O           4.0005  -11.6250    4.8870 O.2       1 ALC1        0.0000 
     46 O           5.3180  -11.7520    5.5460 O.2       9 ALL1        0.0000 
     47 O           2.6830  -11.4980    4.2280 O.2       5 ALP1        0.0000 
     48 N           2.8815  -10.0465    6.6675 N.am      2 SEC2        0.0000 
     49 N           4.3540   -9.9520    6.8440 N.am     10 SEL2        0.0000 
     50 N           1.4090  -10.1410    6.4910 N.am      6 SEP2        0.0000 
     51 CA          2.9910   -7.6320    7.0310 C.3       4 GLC5        0.0000 
     52 CA          4.4870   -8.7900    7.5200 C.3      12 GLL5        0.0000 
     53 CA          1.4950   -6.4740    6.5420 C.3       8 GLP5        0.0000 
     54 CA          4.5840   -7.3150    9.1915 C.3       4 GLC5        0.0000 
     55 CA          4.6810   -5.8400   10.8630 C.3       8 GLP5        0.0000 
     56 CA          5.0805   -9.6770    8.9060 C.3       4 GLC5        0.0000 
     57 CA          5.6740  -10.5640   10.2920 C.3       8 GLP5        0.0000 
     58 CA          3.0125   -9.9535    8.1250 C.3       4 GLC5        0.0000 
     59 CA          1.5380  -11.1170    8.7300 C.3       8 GLP5        0.0000 
     60 CA          3.0985   -9.0215    5.8565 C.3       4 GLC5        0.0000 
     61 N           5.5430   -8.1785    9.2600 N.am      2 SEC2        0.0000 
     62 N           5.6730   -8.1800    7.6550 N.am     10 SEL2        0.0000 
     63 N           5.4130   -8.1770   10.8650 N.am      6 SEP2        0.0000 
     64 CA          8.9462   -0.8460    4.8127 C.3       4 GLC5        0.0000 
     65 CA          7.5960   -0.2690    3.3410 C.3       8 GLP5        0.0000 
     66 CA          7.7605   -4.2920    5.7428 C.3       4 GLC5        0.0000 
     67 CA          6.0516  -10.0225    8.4870 C.3       4 GLC5        0.0000 
@<TRIPOS>BOND
@<TRIPOS>SUBSTRUCTURE
     1 ALC1        4 GROUP        1 X    ALC  0     ROOT ALC X 1
     2 SEC2       19 GROUP        1 X    SEC  0     **** SEC X 2
     3 ASC3        1 GROUP        1 X    ASC  0     **** ASC X 3
     4 GLC5       13 GROUP        1 X    GLC  0     **** GLC X 6
     5 ALP1        6 GROUP        1 Y    ALP  0     ROOT ALP Y 8
     6 SEP2       21 GROUP        1 Y    SEP  0     **** SEP Y 9
     7 ASP3        3 GROUP        1 Y    ASP  0     **** ASP Y 10
     8 GLP5       15 GROUP        1 Y    GLP  0     **** GLP Y 13
     9 ALL1        5 GROUP        1 Z    ALL  0     ROOT ALL Z 15
    10 SEL2       20 GROUP        1 Z    SEL  0     **** SEL Z 16
    11 ASL3        2 GROUP        1 Z    ASL  0     **** ASL Z 17
    12 GLL5       14 GROUP        1 Z    GLL  0     **** GLL Z 20
@<TRIPOS>SET

