#    Name: 2jjq_SAH_1_ligand
#    Modification time : Tue Mar 25 20:58:52 2014

@<TRIPOS>MOLECULE
2jjq_SAH_1_ligand
   46    48     1     0     0
SMALL
NO_CHARGES


@<TRIPOS>ATOM
      1 N           8.7270    0.7340    6.6200 N.4       1 SAH1406     0.0000 
      2 CA          9.8270    0.0970    7.4160 C.3       1 SAH1406     0.0000 
      3 CB         10.6780   -0.8230    6.5420 C.3       1 SAH1406     0.0000 
      4 CG          9.9150   -2.0230    6.0270 C.3       1 SAH1406     0.0000 
      5 SD         11.1310   -3.2960    5.6480 S.3       1 SAH1406     0.0000 
      6 C          10.7250    1.1970    7.9320 C.2       1 SAH1406     0.0000 
      7 O          11.6190    1.0070    8.7720 O.co2     1 SAH1406     0.0000 
      8 OXT        10.5820    2.3230    7.4780 O.co2     1 SAH1406     0.0000 
      9 C5'         9.9910   -4.6150    5.3120 C.3       1 SAH1406     0.0000 
     10 C4'         9.2950   -5.0590    6.6110 C.3       1 SAH1406     0.0000 
     11 O4'         8.4840   -6.2460    6.4060 O.3       1 SAH1406     0.0000 
     12 C3'        10.2500   -5.4220    7.7480 C.3       1 SAH1406     0.0000 
     13 O3'        10.0130   -4.5240    8.8510 O.3       1 SAH1406     0.0000 
     14 C2'         9.9100   -6.8970    8.0800 C.3       1 SAH1406     0.0000 
     15 O2'         9.9500   -7.2460    9.4670 O.3       1 SAH1406     0.0000 
     16 C1'         8.4940   -7.0410    7.6070 C.3       1 SAH1406     0.0000 
     17 N9          8.0700   -8.3230    7.0550 N.pl3     1 SAH1406     0.0000 
     18 C8          8.7980   -9.2020    6.3250 C.2       1 SAH1406     0.0000 
     19 N7          7.9820  -10.2050    5.9030 N.2       1 SAH1406     0.0000 
     20 C5          6.7360   -9.9460    6.3310 C.ar      1 SAH1406     0.0000 
     21 C6          5.4070  -10.5840    6.2290 C.ar      1 SAH1406     0.0000 
     22 N6          5.3180  -11.7520    5.5460 N.pl3     1 SAH1406     0.0000 
     23 N1          4.3540   -9.9520    6.8440 N.ar      1 SAH1406     0.0000 
     24 C2          4.4870   -8.7900    7.5200 C.ar      1 SAH1406     0.0000 
     25 N3          5.6730   -8.1800    7.6550 N.ar      1 SAH1406     0.0000 
     26 C4          6.7870   -8.6970    7.0840 C.ar      1 SAH1406     0.0000 
     27 H           9.4331   -0.4482    8.2325 H         1 SAH1406     0.0000 
     28 H          11.5447   -1.1649    7.1268 H         1 SAH1406     0.0000 
     29 H          11.0655   -0.2439    5.6908 H         1 SAH1406     0.0000 
     30 H           9.4484   -1.8678    5.0973 H         1 SAH1406     0.0000 
     31 H           9.3118   -2.4905    6.7507 H         1 SAH1406     0.0000 
     32 H          10.6053   -5.3738    4.8924 H         1 SAH1406     0.0000 
     33 H           9.3186   -4.1892    4.6079 H         1 SAH1406     0.0000 
     34 H           8.6583   -4.2506    6.9644 H         1 SAH1406     0.0000 
     35 H          11.2383   -5.3796    7.3726 H         1 SAH1406     0.0000 
     36 H          10.5206   -7.5231    7.4664 H         1 SAH1406     0.0000 
     37 H           7.8096   -6.6444    8.2844 H         1 SAH1406     0.0000 
     38 H           9.7416   -9.1308    6.1339 H         1 SAH1406     0.0000 
     39 H           4.6876  -11.7609    4.7698 H         1 SAH1406     0.0000 
     40 H           5.8906  -12.5011    5.8789 H         1 SAH1406     0.0000 
     41 H           3.6285   -8.3528    7.9533 H         1 SAH1406     0.0000 
     42 H           7.8961    0.1776    6.6233 H         1 SAH1406     0.0000 
     43 H           8.4793    1.6328    6.9818 H         1 SAH1406     0.0000 
     44 H           8.9884    0.8648    5.6637 H         1 SAH1406     0.0000 
     45 H           9.2487   -4.9278    9.3537 H         1 SAH1406     0.0000 
     46 H           9.1157   -6.8556    9.8562 H         1 SAH1406     0.0000 
@<TRIPOS>BOND
     1    2    1 1    
     2   42    1 1    
     3   43    1 1    
     4   44    1 1    
     5    3    2 1    
     6    6    2 1    
     7   27    2 1    
     8    4    3 1    
     9   28    3 1    
    10   29    3 1    
    11    5    4 1    
    12   30    4 1    
    13   31    4 1    
    14    9    5 1    
    15    7    6 ar   
    16    8    6 ar   
    17   10    9 1    
    18   32    9 1    
    19   33    9 1    
    20   11   10 1    
    21   12   10 1    
    22   34   10 1    
    23   16   11 1    
    24   13   12 1    
    25   14   12 1    
    26   35   12 1    
    27   45   13 1    
    28   15   14 1    
    29   16   14 1    
    30   36   14 1    
    31   46   15 1    
    32   17   16 1    
    33   37   16 1    
    34   18   17 1    
    35   26   17 1    
    36   19   18 2    
    37   38   18 1    
    38   20   19 1    
    39   21   20 ar   
    40   26   20 ar   
    41   22   21 1    
    42   23   21 ar   
    43   39   22 1    
    44   40   22 1    
    45   24   23 ar   
    46   25   24 ar   
    47   41   24 1    
    48   26   25 ar   
@<TRIPOS>SUBSTRUCTURE
     1 SAH1406     1 GROUP   
@<TRIPOS>SET

