#    Name: 4kyk_IMN_1_INTS_M
#    Modification time : Tue Mar 25 09:18:50 2014

@<TRIPOS>MOLECULE
4kyk_IMN_1_INTS_M
   52     0     6     0     0
SMALL
NO_CHARGES


@<TRIPOS>ATOM
      1 CA         18.7275   13.6285   60.3675 C.3       2 GLC5        0.0000 
      2 CA         20.5320   12.7130   60.4470 C.3       6 GLL5        0.0000 
      3 CA         16.9230   14.5440   60.2880 C.3       4 GLP5        0.0000 
      4 CA         19.8925   10.5965   57.2920 C.3       2 GLC5        0.0000 
      5 CA         20.2140   12.4240   56.3570 C.3       6 GLL5        0.0000 
      6 CA         19.5710    8.7690   58.2270 C.3       4 GLP5        0.0000 
      7 CA         20.7305   12.3655   54.4570 C.3       2 GLC5        0.0000 
      8 CA         21.2470   12.3070   52.5570 C.3       4 GLP5        0.0000 
      9 CA         22.0290   13.1665   56.4780 C.3       2 GLC5        0.0000 
     10 CA         23.8440   13.9090   56.5990 C.3       4 GLP5        0.0000 
     11 CA         18.5530   12.6255   57.2125 C.3       2 GLC5        0.0000 
     12 CA         16.8920   12.8270   58.0680 C.3       4 GLP5        0.0000 
     13 CA         18.7955   15.3940   60.7425 C.3       2 GLC5        0.0000 
     14 CA         20.6680   16.2440   61.1970 C.3       6 GLL5        0.0000 
     15 CA         17.7770   13.3815   61.6415 C.3       2 GLC5        0.0000 
     16 CA         18.6310   12.2190   62.9950 C.3       6 GLL5        0.0000 
     17 CA         19.6770   17.7595   64.4820 C.3       2 GLC5        0.0000 
     18 CA         20.7540   16.5110   63.7390 C.3       6 GLL5        0.0000 
     19 CA         18.6000   19.0080   65.2250 C.3       4 GLP5        0.0000 
     20 CA         20.8300   16.0000   65.5370 C.3       2 GLC5        0.0000 
     21 CA         20.9060   15.4890   67.3350 C.3       4 GLP5        0.0000 
     22 N          18.0805   19.1140   58.7420 N.am      1 SEC2        0.0000 
     23 N          19.4550   18.7500   59.0700 N.am      5 SEL2        0.0000 
     24 N          16.7060   19.4780   58.4140 N.am      3 SEP2        0.0000 
     25 N          17.1020   17.4770   60.2305 N.am      1 SEC2        0.0000 
     26 N          18.4060   17.7310   60.7020 N.am      5 SEL2        0.0000 
     27 N          15.7980   17.2230   59.7590 N.am      3 SEP2        0.0000 
     28 CA         17.2810    6.5195   62.8750 C.3       2 GLC5        0.0000 
     29 CA         17.3840    8.5140   63.7740 C.3       6 GLL5        0.0000 
     30 CA         17.1780    4.5250   61.9760 C.3       4 GLP5        0.0000 
     31 CA         18.1535    8.1515   62.0385 C.3       2 GLC5        0.0000 
     32 CA         18.9230    7.7890   60.3030 C.3       4 GLP5        0.0000 
     33 CA         17.0480    7.1865   65.0015 C.3       2 GLC5        0.0000 
     34 CA         16.7120    5.8590   66.2290 C.3       4 GLP5        0.0000 
     35 CA         15.7005    9.0230   64.8320 C.3       2 GLC5        0.0000 
     36 CA         14.0170    9.5320   65.8900 C.3       4 GLP5        0.0000 
     37 CA         18.7316   14.6706   60.0344 C.3       2 GLC5        0.0000 
     38 CA         20.4870   15.0430   58.8970 C.3       6 GLL5        0.0000 
     39 CA         18.6570   13.0185   58.3777 C.3       2 GLC5        0.0000 
     40 CA         20.4090   13.7890   58.3050 C.3       6 GLL5        0.0000 
     41 CA         22.1427   13.7162   57.7172 C.3       2 GLC5        0.0000 
     42 CA         20.4350   12.6310   59.0700 C.3       6 GLL5        0.0000 
     43 CA         18.7380   12.8182   64.8810 C.3       2 GLC5        0.0000 
     44 CA         19.8850   12.2610   63.5980 C.3       6 GLL5        0.0000 
     45 CA         17.3710   13.9330   65.8130 C.3       4 GLP5        0.0000 
     46 CA         20.5068    8.7037   64.0262 C.3       2 GLC5        0.0000 
     47 CA         20.3250   11.1460   64.3000 C.3       6 GLL5        0.0000 
     48 CA         21.0790    6.8290   63.7080 C.3       4 GLP5        0.0000 
     49 CA         19.4652    8.0390   63.7373 C.3       2 GLC5        0.0000 
     50 CA         18.3190    9.9840   63.7590 C.3       6 GLL5        0.0000 
     51 CA         17.8052   12.7920   64.4232 C.3       2 GLC5        0.0000 
     52 CA         17.8480   11.0830   63.0720 C.3       6 GLL5        0.0000 
@<TRIPOS>BOND
@<TRIPOS>SUBSTRUCTURE
     1 SEC2       22 GROUP        1 X    SEC  0     ROOT SEC X 2
     2 GLC5        1 GROUP        1 X    GLC  0     **** GLC X 6
     3 SEP2       24 GROUP        1 Y    SEP  0     ROOT SEP Y 9
     4 GLP5        3 GROUP        1 Y    GLP  0     **** GLP Y 13
     5 SEL2       23 GROUP        1 Z    SEL  0     ROOT SEL Z 16
     6 GLL5        2 GROUP        1 Z    GLL  0     **** GLL Z 20
@<TRIPOS>SET

