#    Name: 4kyk_IMN_1_ligand
#    Modification time : Tue Mar 25 09:18:50 2014

@<TRIPOS>MOLECULE
4kyk_IMN_1_ligand
   40    42     1     0     0
SMALL
NO_CHARGES


@<TRIPOS>ATOM
      1 C          20.6010   13.9640   61.0470 C.ar      1 IMN300      0.0000 
      2 C1         20.5860   15.1390   60.2820 C.ar      1 IMN300      0.0000 
      3 C2         20.4870   15.0430   58.8970 C.ar      1 IMN300      0.0000 
      4 C3         20.4090   13.7890   58.3050 C.ar      1 IMN300      0.0000 
      5 C4         20.4350   12.6310   59.0700 C.ar      1 IMN300      0.0000 
      6 C5         20.5320   12.7130   60.4470 C.ar      1 IMN300      0.0000 
      7 C6         20.2140   12.4240   56.3570 C.3       1 IMN300      0.0000 
      8 C7         20.6680   16.2440   61.1970 C.2       1 IMN300      0.0000 
      9 C8         20.7100   15.7530   62.4570 C.2       1 IMN300      0.0000 
     10 C9         20.7790   13.4600   63.5280 C.2       1 IMN300      0.0000 
     11 C10        19.8850   12.2610   63.5980 C.ar      1 IMN300      0.0000 
     12 C11        20.3250   11.1460   64.3000 C.ar      1 IMN300      0.0000 
     13 C12        19.5440   10.0110   64.3890 C.ar      1 IMN300      0.0000 
     14 C13        18.3190    9.9840   63.7590 C.ar      1 IMN300      0.0000 
     15 C14        17.8480   11.0830   63.0720 C.ar      1 IMN300      0.0000 
     16 C15        18.6310   12.2190   62.9950 C.ar      1 IMN300      0.0000 
     17 C16        20.7540   16.5110   63.7390 C.3       1 IMN300      0.0000 
     18 C17        20.7380   17.6940   60.7970 C.3       1 IMN300      0.0000 
     19 C18        19.4750   18.1200   60.0980 C.2       1 IMN300      0.0000 
     20 N          20.6820   14.3510   62.4100 N.am      1 IMN300      0.0000 
     21 O          20.3000   13.7190   56.9410 O.3       1 IMN300      0.0000 
     22 O1         21.5920   13.6680   64.4080 O.2       1 IMN300      0.0000 
     23 O2         19.4550   18.7500   59.0700 O.co2     1 IMN300      0.0000 
     24 O3         18.4060   17.7310   60.7020 O.co2     1 IMN300      0.0000 
     25 CL         17.3840    8.5140   63.7740 Cl        1 IMN300      0.0000 
     26 H          20.4719   15.8895   58.3212 H         1 IMN300      0.0000 
     27 H          20.3819   11.7110   58.6094 H         1 IMN300      0.0000 
     28 H          20.5529   11.8644   61.0194 H         1 IMN300      0.0000 
     29 H          21.2525   11.1701   64.7618 H         1 IMN300      0.0000 
     30 H          19.8740    9.1957   64.9198 H         1 IMN300      0.0000 
     31 H          16.9254   11.0588   62.6220 H         1 IMN300      0.0000 
     32 H          18.2854   13.0499   62.4845 H         1 IMN300      0.0000 
     33 H          21.5922   17.8466   60.1307 H         1 IMN300      0.0000 
     34 H          20.8865   18.3105   61.6885 H         1 IMN300      0.0000 
     35 H          21.0182   11.8679   56.5667 H         1 IMN300      0.0000 
     36 H          19.4153   11.9204   56.6863 H         1 IMN300      0.0000 
     37 H          20.1412   12.4700   55.3607 H         1 IMN300      0.0000 
     38 H          20.7835   15.9006   64.5305 H         1 IMN300      0.0000 
     39 H          21.5593   17.1014   63.7939 H         1 IMN300      0.0000 
     40 H          19.9521   17.0979   63.8512 H         1 IMN300      0.0000 
@<TRIPOS>BOND
     1    2    1 ar   
     2    6    1 ar   
     3   20    1 1    
     4    3    2 ar   
     5    8    2 1    
     6    4    3 ar   
     7   26    3 1    
     8    5    4 ar   
     9   21    4 1    
    10    6    5 ar   
    11   27    5 1    
    12   28    6 1    
    13   21    7 1    
    14   35    7 1    
    15   36    7 1    
    16   37    7 1    
    17    9    8 2    
    18   18    8 1    
    19   17    9 1    
    20   20    9 1    
    21   11   10 1    
    22   20   10 am   
    23   22   10 2    
    24   12   11 ar   
    25   16   11 ar   
    26   13   12 ar   
    27   29   12 1    
    28   14   13 ar   
    29   30   13 1    
    30   15   14 ar   
    31   25   14 1    
    32   16   15 ar   
    33   31   15 1    
    34   32   16 1    
    35   38   17 1    
    36   39   17 1    
    37   40   17 1    
    38   19   18 1    
    39   33   18 1    
    40   34   18 1    
    41   23   19 ar   
    42   24   19 ar   
@<TRIPOS>SUBSTRUCTURE
     1 IMN300      1 GROUP   
@<TRIPOS>SET

