#    Name: 4jlk_1NO_1_INTS_M
#    Modification time : Tue Mar 25 06:01:11 2014

@<TRIPOS>MOLECULE
4jlk_1NO_1_INTS_M
   58     0     9     0     0
SMALL
NO_CHARGES


@<TRIPOS>ATOM
      1 CA        -36.4695    7.6355   -2.9915 C.3       3 GLC5        0.0000 
      2 CA        -35.7570    8.1710   -0.9560 C.3       9 GLL5        0.0000 
      3 CA        -37.1820    7.1000   -5.0270 C.3       6 GLP5        0.0000 
      4 CA        -34.3135    8.4575   -2.4195 C.3       3 GLC5        0.0000 
      5 CA        -35.1110   10.4870   -2.3520 C.3       9 GLL5        0.0000 
      6 CA        -33.5160    6.4280   -2.4870 C.3       6 GLP5        0.0000 
      7 CA        -39.1575    9.3790   -3.7840 C.3       3 GLC5        0.0000 
      8 CA        -39.7850   11.0480   -2.8170 C.3       9 GLL5        0.0000 
      9 CA        -38.5300    7.7100   -4.7510 C.3       6 GLP5        0.0000 
     10 CA        -28.7505   14.2935   -5.8925 C.3       3 GLC5        0.0000 
     11 CA        -30.5470   13.8450   -5.1800 C.3       9 GLL5        0.0000 
     12 CA        -26.9540   14.7420   -6.6050 C.3       6 GLP5        0.0000 
     13 CA        -30.5665   14.3500   -6.9660 C.3       3 GLC5        0.0000 
     14 CA        -30.5860   14.8550   -8.7520 C.3       6 GLP5        0.0000 
     15 CA        -29.7450   12.6615   -6.5030 C.3       3 GLC5        0.0000 
     16 CA        -28.9430   11.4780   -7.8260 C.3       6 GLP5        0.0000 
     17 CA        -28.9680   11.8985   -1.0745 C.3       3 GLC5        0.0000 
     18 CA        -30.0850   12.0560   -2.5560 C.3       9 GLL5        0.0000 
     19 CA        -27.8510   11.7410    0.4070 C.3       6 GLP5        0.0000 
     20 CA        -29.0240   10.4035   -5.0665 C.3       3 GLC5        0.0000 
     21 CA        -29.4240   10.4210   -3.1070 C.3       9 GLL5        0.0000 
     22 CA        -28.6240   10.3860   -7.0260 C.3       6 GLP5        0.0000 
     23 CA        -28.6585   10.4150   -1.5360 C.3       3 GLC5        0.0000 
     24 CA        -27.8930   10.4090    0.0350 C.3       6 GLP5        0.0000 
     25 CA        -27.2795    9.5215   -2.0795 C.3       3 GLC5        0.0000 
     26 CA        -27.7350   10.7730   -3.3660 C.3       9 GLL5        0.0000 
     27 CA        -26.8240    8.2700   -0.7930 C.3       6 GLP5        0.0000 
     28 N         -27.6020    8.4660   -3.9895 N.am      2 SEC2        0.0000 
     29 N         -26.9280    9.7430   -3.6590 N.am      8 SEL2        0.0000 
     30 N         -28.2760    7.1890   -4.3200 N.am      5 SEP2        0.0000 
     31 CA        -25.0190    9.5180   -5.9260 C.3       3 GLC5        0.0000 
     32 CA        -25.6210    9.9390   -3.8860 C.3       9 GLL5        0.0000 
     33 CA        -24.4170    9.0970   -7.9660 C.3       6 GLP5        0.0000 
     34 CA        -24.0725    8.6165   -2.9300 C.3       3 GLC5        0.0000 
     35 CA        -22.5240    7.2940   -1.9740 C.3       6 GLP5        0.0000 
     36 CA        -26.2225    9.1045   -2.3395 C.3       3 GLC5        0.0000 
     37 O         -25.5750    7.5380   -4.1205 O.2       1 ALC1        0.0000 
     38 O         -24.8470    8.8890   -4.1910 O.2       7 ALL1        0.0000 
     39 O         -26.3030    6.1870   -4.0500 O.2       4 ALP1        0.0000 
     40 O         -23.3480    9.1325   -3.9775 O.2       1 ALC1        0.0000 
     41 O         -21.8490    9.3760   -3.7640 O.2       4 ALP1        0.0000 
     42 O         -23.9670   13.7065   -3.2780 O.2       1 ALC1        0.0000 
     43 O         -25.4460   13.4500   -3.3700 O.2       7 ALL1        0.0000 
     44 O         -22.4880   13.9630   -3.1860 O.2       4 ALP1        0.0000 
     45 CA        -36.2460    5.6162    1.3417 C.3       3 GLC5        0.0000 
     46 CA        -36.3720    7.1410   -0.0110 C.3       9 GLL5        0.0000 
     47 CA        -36.4770    4.0830    2.0960 C.3       6 GLP5        0.0000 
     48 CA        -34.7010    7.0441   -1.3356 C.3       3 GLC5        0.0000 
     49 CA        -35.6580    7.1580    1.1860 C.3       9 GLL5        0.0000 
     50 CA        -35.1540    8.8261    0.6959 C.3       3 GLC5        0.0000 
     51 CA        -34.4220    9.9920    1.5760 C.3       6 GLP5        0.0000 
     52 CA        -37.0138   12.0693   -5.8427 C.3       3 GLC5        0.0000 
     53 CA        -37.2710   11.5450   -3.7950 C.3       9 GLL5        0.0000 
     54 CA        -37.4040   12.3810   -7.7510 C.3       6 GLP5        0.0000 
     55 CA        -37.8200    9.3259   -3.9341 C.3       3 GLC5        0.0000 
     56 CA        -25.5135   12.1803   -5.4105 C.3       3 GLC5        0.0000 
     57 CA        -25.9330   12.2460   -3.4550 C.3       9 GLL5        0.0000 
     58 CA        -25.3850   12.9510   -7.1750 C.3       6 GLP5        0.0000 
@<TRIPOS>BOND
@<TRIPOS>SUBSTRUCTURE
     1 ALC1       37 GROUP        1 X    ALC  0     ROOT ALC X 1
     2 SEC2       28 GROUP        1 X    SEC  0     **** SEC X 2
     3 GLC5        1 GROUP        1 X    GLC  0     **** GLC X 6
     4 ALP1       39 GROUP        1 Y    ALP  0     ROOT ALP Y 8
     5 SEP2       30 GROUP        1 Y    SEP  0     **** SEP Y 9
     6 GLP5        3 GROUP        1 Y    GLP  0     **** GLP Y 13
     7 ALL1       38 GROUP        1 Z    ALL  0     ROOT ALL Z 15
     8 SEL2       29 GROUP        1 Z    SEL  0     **** SEL Z 16
     9 GLL5        2 GROUP        1 Z    GLL  0     **** GLL Z 20
@<TRIPOS>SET

