#    Name: 4jlk_1NO_1_ligand
#    Modification time : Tue Mar 25 06:01:11 2014

@<TRIPOS>MOLECULE
4jlk_1NO_1_ligand
   48    50     1     0     0
SMALL
NO_CHARGES


@<TRIPOS>ATOM
      1 FAN       -35.6580    7.1580    1.1860 F         1 1NO402      0.0000 
      2 CAM       -36.3720    7.1410   -0.0110 C.3       1 1NO402      0.0000 
      3 CAL       -35.7570    8.1710   -0.9560 C.3       1 1NO402      0.0000 
      4 OAK       -36.7220    9.1800   -1.1270 O.3       1 1NO402      0.0000 
      5 CAV       -36.4140   10.0750   -2.0860 C.ar      1 1NO402      0.0000 
      6 CAU       -35.1110   10.4870   -2.3520 C.ar      1 1NO402      0.0000 
      7 CAW       -37.4840   10.6020   -2.7930 C.ar      1 1NO402      0.0000 
      8 OAX       -38.7270   10.1590   -2.4640 O.3       1 1NO402      0.0000 
      9 CAY       -39.7850   11.0480   -2.8170 C.3       1 1NO402      0.0000 
     10 CBB       -37.2710   11.5450   -3.7950 C.ar      1 1NO402      0.0000 
     11 CBA       -35.9760   11.9700   -4.0740 C.ar      1 1NO402      0.0000 
     12 CAT       -34.9040   11.4220   -3.3720 C.ar      1 1NO402      0.0000 
     13 CAS       -33.6320   11.8800   -3.6340 C.2       1 1NO402      0.0000 
     14 NAR       -32.5510   11.6660   -2.8900 N.2       1 1NO402      0.0000 
     15 SAZ       -33.2240   12.9130   -4.8870 S.3       1 1NO402      0.0000 
     16 CAP       -31.6160   13.0350   -4.4400 C.2       1 1NO402      0.0000 
     17 CAO       -30.5470   13.8450   -5.1800 C.3       1 1NO402      0.0000 
     18 CAQ       -31.4210   12.2740   -3.2860 C.2       1 1NO402      0.0000 
     19 CAJ       -30.0850   12.0560   -2.5560 C.3       1 1NO402      0.0000 
     20 SAI       -29.4240   10.4210   -3.1070 S.3       1 1NO402      0.0000 
     21 C2        -27.7350   10.7730   -3.3660 C.ar      1 1NO402      0.0000 
     22 N1        -27.2410   12.0190   -3.2580 N.ar      1 1NO402      0.0000 
     23 N3        -26.9280    9.7430   -3.6590 N.ar      1 1NO402      0.0000 
     24 C4        -25.6210    9.9390   -3.8860 C.ar      1 1NO402      0.0000 
     25 NAF       -24.8470    8.8890   -4.1910 N.pl3     1 1NO402      0.0000 
     26 C5        -25.0810   11.2070   -3.7880 C.ar      1 1NO402      0.0000 
     27 C6        -25.9330   12.2460   -3.4550 C.ar      1 1NO402      0.0000 
     28 NAA       -25.4460   13.4500   -3.3700 N.pl3     1 1NO402      0.0000 
     29 H         -37.4264    7.4076    0.1209 H         1 1NO402      0.0000 
     30 H         -36.3302    6.1693   -0.5154 H         1 1NO402      0.0000 
     31 H         -35.5134    7.6638   -1.8845 H         1 1NO402      0.0000 
     32 H         -34.8448    8.5385   -0.4960 H         1 1NO402      0.0000 
     33 H         -34.3278   10.1197   -1.8204 H         1 1NO402      0.0000 
     34 H         -38.0635   11.9234   -4.3234 H         1 1NO402      0.0000 
     35 H         -35.8100   12.6826   -4.7922 H         1 1NO402      0.0000 
     36 H         -30.1806   11.9117   -1.5246 H         1 1NO402      0.0000 
     37 H         -29.3234   12.7070   -2.8560 H         1 1NO402      0.0000 
     38 H         -25.3092    8.0043   -4.2509 H         1 1NO402      0.0000 
     39 H         -23.8763    9.0840   -4.3315 H         1 1NO402      0.0000 
     40 H         -24.0934   11.3724   -3.9543 H         1 1NO402      0.0000 
     41 H         -24.4975   13.5202   -3.0611 H         1 1NO402      0.0000 
     42 H         -26.0652   14.1939   -3.6214 H         1 1NO402      0.0000 
     43 H         -39.6886   11.9366   -2.3686 H         1 1NO402      0.0000 
     44 H         -39.8139   11.2184   -3.8020 H         1 1NO402      0.0000 
     45 H         -40.6789   10.6835   -2.5562 H         1 1NO402      0.0000 
     46 H         -29.6547   13.7774   -4.7337 H         1 1NO402      0.0000 
     47 H         -30.4283   13.5303   -6.1217 H         1 1NO402      0.0000 
     48 H         -30.7805   14.8164   -5.2228 H         1 1NO402      0.0000 
@<TRIPOS>BOND
     1    2    1 1    
     2    3    2 1    
     3   29    2 1    
     4   30    2 1    
     5    4    3 1    
     6   31    3 1    
     7   32    3 1    
     8    5    4 1    
     9    6    5 ar   
    10    7    5 ar   
    11   12    6 ar   
    12   33    6 1    
    13    8    7 1    
    14   10    7 ar   
    15    9    8 1    
    16   43    9 1    
    17   44    9 1    
    18   45    9 1    
    19   11   10 ar   
    20   34   10 1    
    21   12   11 ar   
    22   35   11 1    
    23   13   12 1    
    24   14   13 2    
    25   15   13 1    
    26   18   14 1    
    27   16   15 1    
    28   17   16 1    
    29   18   16 2    
    30   46   17 1    
    31   47   17 1    
    32   48   17 1    
    33   19   18 1    
    34   20   19 1    
    35   36   19 1    
    36   37   19 1    
    37   21   20 1    
    38   22   21 ar   
    39   23   21 ar   
    40   27   22 ar   
    41   24   23 ar   
    42   25   24 1    
    43   26   24 ar   
    44   38   25 1    
    45   39   25 1    
    46   27   26 ar   
    47   40   26 1    
    48   28   27 1    
    49   41   28 1    
    50   42   28 1    
@<TRIPOS>SUBSTRUCTURE
     1 1NO402      1 GROUP   
@<TRIPOS>SET

