#    Name: 1uhl_MEI_1_INTS_M
#    Modification time : Tue Mar 25 06:35:57 2014

@<TRIPOS>MOLECULE
1uhl_MEI_1_INTS_M
   69     0     6     0     0
SMALL
NO_CHARGES


@<TRIPOS>ATOM
      1 CA         47.3335   -8.0755   34.1865 C.3       2 GLC5        0.0000 
      2 CA         49.3640   -7.4670   33.7720 C.3       6 GLL5        0.0000 
      3 CA         45.3030   -8.6840   34.6010 C.3       4 GLP5        0.0000 
      4 CA         49.9840   -7.5940   35.3765 C.3       2 GLC5        0.0000 
      5 CA         50.6040   -7.7210   36.9810 C.3       4 GLP5        0.0000 
      6 CA         51.2155   -6.8010   33.3880 C.3       2 GLC5        0.0000 
      7 CA         53.0670   -6.1350   33.0040 C.3       4 GLP5        0.0000 
      8 CA         48.6975   -5.5665   34.7600 C.3       2 GLC5        0.0000 
      9 CA         48.0310   -3.6660   35.7480 C.3       4 GLP5        0.0000 
     10 CA         49.8580   -9.8340   34.5350 C.3       2 GLC5        0.0000 
     11 CA         48.2120   -9.8630   33.0250 C.3       6 GLL5        0.0000 
     12 CA         51.5040   -9.8050   36.0450 C.3       4 GLP5        0.0000 
     13 CA         48.2885  -11.4895   31.6255 C.3       2 GLC5        0.0000 
     14 CA         48.3650  -13.1160   30.2260 C.3       4 GLP5        0.0000 
     15 CA         50.7070   -8.5310   29.7010 C.3       2 GLC5        0.0000 
     16 CA         49.9760   -9.3830   31.2070 C.3       6 GLL5        0.0000 
     17 CA         51.4380   -7.6790   28.1950 C.3       4 GLP5        0.0000 
     18 CA         51.5935  -10.4420   31.5585 C.3       2 GLC5        0.0000 
     19 CA         53.2110  -11.5010   31.9100 C.3       4 GLP5        0.0000 
     20 CA         49.4165  -10.6200   29.6810 C.3       2 GLC5        0.0000 
     21 CA         48.8570  -11.8570   28.1550 C.3       4 GLP5        0.0000 
     22 CA         46.0785   -9.5415   31.5175 C.3       2 GLC5        0.0000 
     23 CA         47.6140   -8.6580   30.8690 C.3       6 GLL5        0.0000 
     24 CA         44.5430  -10.4250   32.1660 C.3       4 GLP5        0.0000 
     25 CA         46.0420   -6.2090   28.6475 C.3       2 GLC5        0.0000 
     26 CA         47.2100   -7.8390   28.5220 C.3       6 GLL5        0.0000 
     27 CA         44.8740   -4.5790   28.7730 C.3       4 GLP5        0.0000 
     28 CA         46.0360   -9.8900   25.1320 C.3       2 GLC5        0.0000 
     29 CA         45.9970   -8.1530   26.3750 C.3       6 GLL5        0.0000 
     30 CA         46.0750  -11.6270   23.8890 C.3       4 GLP5        0.0000 
     31 CA         47.2070   -8.6185   24.7975 C.3       2 GLC5        0.0000 
     32 CA         48.4170   -9.0840   23.2200 C.3       4 GLP5        0.0000 
     33 CA         44.5700   -7.5155   25.3575 C.3       2 GLC5        0.0000 
     34 CA         43.1430   -6.8780   24.3400 C.3       4 GLP5        0.0000 
     35 CA         45.4355   -6.3660   27.5740 C.3       2 GLC5        0.0000 
     36 CA         42.2580   -8.8140   25.8730 C.3       2 GLC5        0.0000 
     37 CA         42.1290   -8.3470   27.5660 C.3       6 GLL5        0.0000 
     38 CA         42.3870   -9.2810   24.1800 C.3       4 GLP5        0.0000 
     39 CA         41.1690   -6.4925   31.5680 C.3       2 GLC5        0.0000 
     40 CA         41.5530   -6.9650   29.5070 C.3       6 GLL5        0.0000 
     41 CA         40.7850   -6.0200   33.6290 C.3       4 GLP5        0.0000 
     42 N          39.1790   -4.8860   28.1020 N.am      1 SEC2        0.0000 
     43 N          39.9990   -5.9020   27.7720 N.am      5 SEL2        0.0000 
     44 N          38.3590   -3.8700   28.4320 N.am      3 SEP2        0.0000 
     45 N          38.0695   -6.2420   30.1465 N.am      1 SEC2        0.0000 
     46 N          39.3290   -7.0200   29.4100 N.am      5 SEL2        0.0000 
     47 N          36.8100   -5.4640   30.8830 N.am      3 SEP2        0.0000 
     48 CA         46.8805   -9.0365   33.5310 C.3       2 GLC5        0.0000 
     49 CA         48.7040   -8.9150   31.8970 C.3       6 GLL5        0.0000 
     50 CA         48.3792  -10.2193   29.1620 C.3       2 GLC5        0.0000 
     51 CA         49.5688   -7.9255   28.5953 C.3       2 GLC5        0.0000 
     52 CA         48.1890   -8.5050   29.4690 C.3       6 GLL5        0.0000 
     53 CA         46.9696   -6.5043   26.7440 C.3       2 GLC5        0.0000 
     54 CA         47.5050   -4.7530   26.2650 C.3       4 GLP5        0.0000 
     55 CA         47.5284  -10.4473   28.2052 C.3       2 GLC5        0.0000 
     56 CA         45.5280   -9.7170   28.4400 C.3       6 GLL5        0.0000 
     57 CA         44.4020   -6.6318   28.8620 C.3       2 GLC5        0.0000 
     58 CA         44.2100   -9.0120   28.4480 C.3       6 GLL5        0.0000 
     59 CA         44.4013   -9.6429   30.5575 C.3       2 GLC5        0.0000 
     60 CA         43.6500   -8.3570   29.4540 C.3       6 GLL5        0.0000 
     61 CA         43.3692  -10.3064   28.2635 C.3       2 GLC5        0.0000 
     62 CA         42.4790  -11.7520   27.5780 C.3       4 GLP5        0.0000 
     63 CA         40.4375   -8.5150   30.1670 C.3       2 GLC5        0.0000 
     64 CA         42.3970   -7.8370   28.9330 C.3       6 GLL5        0.0000 
     65 CA         38.9000   -9.6290   31.1140 C.3       4 GLP5        0.0000 
     66 CA         41.6265   -9.7270   27.8592 C.3       2 GLC5        0.0000 
     67 CA         40.9900  -11.3620   27.4690 C.3       4 GLP5        0.0000 
     68 CA         42.7640   -5.7780   28.8375 C.3       2 GLC5        0.0000 
     69 CA         43.5530   -4.1550   28.4550 C.3       4 GLP5        0.0000 
@<TRIPOS>BOND
@<TRIPOS>SUBSTRUCTURE
     1 SEC2       42 GROUP        1 X    SEC  0     ROOT SEC X 2
     2 GLC5        1 GROUP        1 X    GLC  0     **** GLC X 6
     3 SEP2       44 GROUP        1 Y    SEP  0     ROOT SEP Y 9
     4 GLP5        3 GROUP        1 Y    GLP  0     **** GLP Y 13
     5 SEL2       43 GROUP        1 Z    SEL  0     ROOT SEL Z 16
     6 GLL5        2 GROUP        1 Z    GLL  0     **** GLL Z 20
@<TRIPOS>SET

