#    Name: 1uhl_MEI_1_ligand
#    Modification time : Tue Mar 25 06:35:57 2014

@<TRIPOS>MOLECULE
1uhl_MEI_1_ligand
   46    45     1     0     0
SMALL
NO_CHARGES


@<TRIPOS>ATOM
      1 C1         49.3640   -7.4670   33.7720 C.3       1 MEI1001     0.0000 
      2 O1         49.1440   -7.6620   32.3720 O.3       1 MEI1001     0.0000 
      3 C2         48.7040   -8.9150   31.8970 C.3       1 MEI1001     0.0000 
      4 C3         48.2120   -9.8630   33.0250 C.3       1 MEI1001     0.0000 
      5 C4         49.9760   -9.3830   31.2070 C.3       1 MEI1001     0.0000 
      6 C5         47.6140   -8.6580   30.8690 C.3       1 MEI1001     0.0000 
      7 C6         48.1890   -8.5050   29.4690 C.3       1 MEI1001     0.0000 
      8 C7         47.2100   -7.8390   28.5220 C.3       1 MEI1001     0.0000 
      9 C8         46.5330   -8.8770   27.6200 C.3       1 MEI1001     0.0000 
     10 C9         45.9970   -8.1530   26.3750 C.3       1 MEI1001     0.0000 
     11 C10        45.5280   -9.7170   28.4400 C.3       1 MEI1001     0.0000 
     12 C11        44.2100   -9.0120   28.4480 C.2       1 MEI1001     0.0000 
     13 C12        43.6500   -8.3570   29.4540 C.2       1 MEI1001     0.0000 
     14 C13        42.3970   -7.8370   28.9330 C.2       1 MEI1001     0.0000 
     15 C14        42.1290   -8.3470   27.5660 C.3       1 MEI1001     0.0000 
     16 C15        41.5530   -6.9650   29.5070 C.2       1 MEI1001     0.0000 
     17 C16        40.2670   -6.5710   28.8170 C.2       1 MEI1001     0.0000 
     18 O2         39.9990   -5.9020   27.7720 O.co2     1 MEI1001     0.0000 
     19 O3         39.3290   -7.0200   29.4100 O.co2     1 MEI1001     0.0000 
     20 H          47.0727   -7.7464   31.1374 H         1 MEI1001     0.0000 
     21 H          46.9058   -9.4913   30.8782 H         1 MEI1001     0.0000 
     22 H          48.4535   -9.4946   29.0797 H         1 MEI1001     0.0000 
     23 H          49.1061   -7.9075   29.5212 H         1 MEI1001     0.0000 
     24 H          47.7373   -7.1181   27.8981 H         1 MEI1001     0.0000 
     25 H          46.4454   -7.3155   29.0949 H         1 MEI1001     0.0000 
     26 H          47.3455   -9.5563   27.2849 H         1 MEI1001     0.0000 
     27 H          45.9088   -9.8214   29.4469 H         1 MEI1001     0.0000 
     28 H          45.4353  -10.6900   27.9768 H         1 MEI1001     0.0000 
     29 H          43.7053   -9.0805   27.4965 H         1 MEI1001     0.0000 
     30 H          43.9336   -8.2152   30.3327 H         1 MEI1001     0.0000 
     31 H          41.7142   -6.5232   30.4157 H         1 MEI1001     0.0000 
     32 H          50.0598   -8.0903   34.1290 H         1 MEI1001     0.0000 
     33 H          49.6722   -6.5373   33.9736 H         1 MEI1001     0.0000 
     34 H          48.5314   -7.6216   34.3039 H         1 MEI1001     0.0000 
     35 H          48.9333  -10.0536   33.6909 H         1 MEI1001     0.0000 
     36 H          47.4428   -9.4715   33.5300 H         1 MEI1001     0.0000 
     37 H          47.9070  -10.7439   32.6631 H         1 MEI1001     0.0000 
     38 H          50.7429   -9.4471   31.8456 H         1 MEI1001     0.0000 
     39 H          49.8631  -10.2862   30.7929 H         1 MEI1001     0.0000 
     40 H          50.2539   -8.7585   30.4771 H         1 MEI1001     0.0000 
     41 H          46.7290   -7.7042   25.8624 H         1 MEI1001     0.0000 
     42 H          45.5424   -8.7834   25.7457 H         1 MEI1001     0.0000 
     43 H          45.3309   -7.4465   26.6142 H         1 MEI1001     0.0000 
     44 H          42.8495   -8.0849   26.9239 H         1 MEI1001     0.0000 
     45 H          42.0685   -9.3450   27.5472 H         1 MEI1001     0.0000 
     46 H          41.2678   -7.9942   27.2002 H         1 MEI1001     0.0000 
@<TRIPOS>BOND
     1    2    1 1    
     2   32    1 1    
     3   33    1 1    
     4   34    1 1    
     5    3    2 1    
     6    4    3 1    
     7    5    3 1    
     8    6    3 1    
     9   35    4 1    
    10   36    4 1    
    11   37    4 1    
    12   38    5 1    
    13   39    5 1    
    14   40    5 1    
    15    7    6 1    
    16   20    6 1    
    17   21    6 1    
    18    8    7 1    
    19   22    7 1    
    20   23    7 1    
    21    9    8 1    
    22   24    8 1    
    23   25    8 1    
    24   10    9 1    
    25   11    9 1    
    26   26    9 1    
    27   41   10 1    
    28   42   10 1    
    29   43   10 1    
    30   12   11 1    
    31   27   11 1    
    32   28   11 1    
    33   13   12 2    
    34   29   12 1    
    35   14   13 1    
    36   30   13 1    
    37   15   14 1    
    38   16   14 2    
    39   44   15 1    
    40   45   15 1    
    41   46   15 1    
    42   17   16 1    
    43   31   16 1    
    44   18   17 ar   
    45   19   17 ar   
@<TRIPOS>SUBSTRUCTURE
     1 MEI1001     1 GROUP   
@<TRIPOS>SET

