#    Name: 2rfs_AM8_1_INTS_M
#    Modification time : Mon Mar 24 23:51:15 2014

@<TRIPOS>MOLECULE
2rfs_AM8_1_INTS_M
   74     0     6     0     0
SMALL
NO_CHARGES


@<TRIPOS>ATOM
      1 CA         19.9200    8.0185   58.5835 C.3       2 GLC5        0.0000 
      2 CA         19.0860    8.9480   60.2670 C.3       6 GLL5        0.0000 
      3 CA         20.7540    7.0890   56.9000 C.3       4 GLP5        0.0000 
      4 CA         24.4785    4.9925   61.1745 C.3       2 GLC5        0.0000 
      5 CA         22.6390    5.5720   61.7870 C.3       6 GLL5        0.0000 
      6 CA         26.3180    4.4130   60.5620 C.3       4 GLP5        0.0000 
      7 CA         24.3790   10.4945   60.0315 C.3       2 GLC5        0.0000 
      8 CA         23.0120   10.1750   58.5590 C.3       6 GLL5        0.0000 
      9 CA         25.7460   10.8140   61.5040 C.3       4 GLP5        0.0000 
     10 CA         24.7925   11.7220   59.4080 C.3       2 GLC5        0.0000 
     11 CA         23.1730   11.4150   57.9490 C.3       6 GLL5        0.0000 
     12 CA         26.4120   12.0290   60.8670 C.3       4 GLP5        0.0000 
     13 CA         23.0660   12.2885   59.6120 C.3       2 GLC5        0.0000 
     14 CA         22.9590   13.1620   61.2750 C.3       4 GLP5        0.0000 
     15 CA         21.4225   12.2455   59.2255 C.3       2 GLC5        0.0000 
     16 CA         22.3120   12.4840   57.7000 C.3       6 GLL5        0.0000 
     17 CA         20.5330   12.0070   60.7510 C.3       4 GLP5        0.0000 
     18 N          25.8000    8.7725   59.6230 N.am      1 SEC2        0.0000 
     19 N          24.5330    8.4370   58.9210 N.am      5 SEL2        0.0000 
     20 N          27.0670    9.1080   60.3250 N.am      3 SEP2        0.0000 
     21 N          26.0970    9.7325   59.1110 N.am      1 SEC2        0.0000 
     22 N          25.1270   10.3570   57.8970 N.am      5 SEL2        0.0000 
     23 CA         25.3170   10.8345   55.7945 C.3       2 GLC5        0.0000 
     24 CA         24.9780   12.6360   56.9040 C.3       6 GLL5        0.0000 
     25 CA         25.6560    9.0330   54.6850 C.3       4 GLP5        0.0000 
     26 CA         25.9670   14.0515   57.5625 C.3       2 GLC5        0.0000 
     27 CA         26.9560   15.4670   58.2210 C.3       4 GLP5        0.0000 
     28 CA         26.1270   12.8525   55.3440 C.3       2 GLC5        0.0000 
     29 CA         27.2760   13.0690   53.7840 C.3       4 GLP5        0.0000 
     30 CA         25.6950   12.3325   58.8855 C.3       2 GLC5        0.0000 
     31 CA         24.5525   13.7580   54.8500 C.3       2 GLC5        0.0000 
     32 CA         24.1110   13.7030   56.6550 C.3       6 GLL5        0.0000 
     33 CA         24.9940   13.8130   53.0450 C.3       4 GLP5        0.0000 
     34 CA         22.8685   13.3970   59.1670 C.3       2 GLC5        0.0000 
     35 CA         22.7780   13.6320   57.0590 C.3       6 GLL5        0.0000 
     36 CA         22.9995   15.6125   58.0330 C.3       2 GLC5        0.0000 
     37 CA         23.2210   17.5930   59.0070 C.3       4 GLP5        0.0000 
     38 N          22.0445   17.3775   56.4705 N.am      1 SEC2        0.0000 
     39 N          22.4070   16.0680   56.0270 N.am      5 SEL2        0.0000 
     40 N          21.6820   18.6870   56.9140 N.am      3 SEP2        0.0000 
     41 CA         21.9140   16.0315   53.4910 C.3       2 GLC5        0.0000 
     42 CA         20.5380   14.5990   54.3470 C.3       6 GLL5        0.0000 
     43 CA         23.2900   17.4640   52.6350 C.3       4 GLP5        0.0000 
     44 CA         18.9480   14.0575   53.7715 C.3       2 GLC5        0.0000 
     45 CA         17.3580   13.5160   53.1960 C.3       4 GLP5        0.0000 
     46 CA         19.5950    8.4660   56.5935 C.3       2 GLC5        0.0000 
     47 CA         18.4360    9.8430   56.2870 C.3       6 GLL5        0.0000 
     48 CA         17.5505    8.5790   55.4815 C.3       2 GLC5        0.0000 
     49 CA         16.6650    7.3150   54.6760 C.3       4 GLP5        0.0000 
     50 CA         19.1565    9.5040   54.8730 C.3       2 GLC5        0.0000 
     51 CA         19.8770    9.1650   53.4590 C.3       4 GLP5        0.0000 
     52 CA         17.0385   10.9640   55.1695 C.3       2 GLC5        0.0000 
     53 CA         15.6410   12.0850   54.0520 C.3       4 GLP5        0.0000 
     54 CA         18.9050   16.3620   56.8450 C.3       2 GLC5        0.0000 
     55 CA         18.5500   14.2470   57.2150 C.3       6 GLL5        0.0000 
     56 CA         19.2600   18.4770   56.4750 C.3       4 GLP5        0.0000 
     57 CA         20.1440   10.2957   60.5580 C.3       2 GLC5        0.0000 
     58 CA         20.4240    8.2210   60.4630 C.3       6 GLL5        0.0000 
     59 CA         20.9909    7.1464   58.9399 C.3       2 GLC5        0.0000 
     60 CA         20.5970    7.0700   61.2140 C.3       6 GLL5        0.0000 
     61 CA         21.2225    8.1424   62.5189 C.3       2 GLC5        0.0000 
     62 CA         21.4420    9.5590   63.6660 C.3       4 GLP5        0.0000 
     63 CA         21.0770    9.0686   61.9042 C.3       2 GLC5        0.0000 
     64 CA         21.6690    8.5720   59.9200 C.3       6 GLL5        0.0000 
     65 CA         21.5648    8.3715   57.9666 C.3       2 GLC5        0.0000 
     66 CA         21.4543   10.8305   59.8921 C.3       2 GLC5        0.0000 
     67 CA         24.6908   15.2063   56.5990 C.3       2 GLC5        0.0000 
     68 CA         25.9370   16.7450   56.3410 C.3       4 GLP5        0.0000 
     69 CA         19.4115   10.5400   54.9190 C.3       2 GLC5        0.0000 
     70 CA         19.4420   12.3060   56.0950 C.3       6 GLL5        0.0000 
     71 CA         19.0277   12.3908   59.2000 C.3       2 GLC5        0.0000 
     72 CA         17.4960   12.0910   57.5090 C.3       6 GLL5        0.0000 
     73 CA         15.7897   12.8102   56.7600 C.3       2 GLC5        0.0000 
     74 CA         14.0570   12.8460   55.8710 C.3       4 GLP5        0.0000 
@<TRIPOS>BOND
@<TRIPOS>SUBSTRUCTURE
     1 SEC2       18 GROUP        1 X    SEC  0     ROOT SEC X 2
     2 GLC5        1 GROUP        1 X    GLC  0     **** GLC X 6
     3 SEP2       20 GROUP        1 Y    SEP  0     ROOT SEP Y 9
     4 GLP5        3 GROUP        1 Y    GLP  0     **** GLP Y 13
     5 SEL2       19 GROUP        1 Z    SEL  0     ROOT SEL Z 16
     6 GLL5        2 GROUP        1 Z    GLL  0     **** GLL Z 20
@<TRIPOS>SET

