#    Name: 2rfs_AM8_1_ligand
#    Modification time : Mon Mar 24 23:51:15 2014

@<TRIPOS>MOLECULE
2rfs_AM8_1_ligand
   53    56     1     0     0
SMALL
NO_CHARGES


@<TRIPOS>ATOM
      1 CAA        19.5250    6.3090   62.0310 C.3       1 AM81        0.0000 
      2 CAC        20.5970    7.0700   61.2140 C.2       1 AM81        0.0000 
      3 CAD        20.4240    8.2210   60.4630 C.2       1 AM81        0.0000 
      4 CAE        19.0860    8.9480   60.2670 C.3       1 AM81        0.0000 
      5 CAF        21.9450    6.7620   61.1210 C.2       1 AM81        0.0000 
      6 CAG        22.6390    5.5720   61.7870 C.3       1 AM81        0.0000 
      7 NAH        22.5560    7.6590   60.3430 N.pl3     1 AM81        0.0000 
      8 CAI        21.6690    8.5720   59.9200 C.2       1 AM81        0.0000 
      9 CAJ        21.8090    9.6940   59.0950 C.3       1 AM81        0.0000 
     10 CAK        23.0120   10.1750   58.5590 C.2       1 AM81        0.0000 
     11 CAL        23.1730   11.4150   57.9490 C.ar      1 AM81        0.0000 
     12 CAM        22.3120   12.4840   57.7000 C.ar      1 AM81        0.0000 
     13 CAN        24.2530    9.5530   58.4960 C.2       1 AM81        0.0000 
     14 OAO        24.5330    8.4370   58.9210 O.2       1 AM81        0.0000 
     15 NAP        25.1270   10.3570   57.8970 N.2       1 AM81        0.0000 
     16 CAQ        24.5120   11.4890   57.5480 C.ar      1 AM81        0.0000 
     17 CAR        24.9780   12.6360   56.9040 C.ar      1 AM81        0.0000 
     18 CAS        24.1110   13.7030   56.6550 C.ar      1 AM81        0.0000 
     19 CAT        22.7780   13.6320   57.0590 C.ar      1 AM81        0.0000 
     20 SAU        21.6720   14.9670   56.7380 S.o2      1 AM81        0.0000 
     21 OAV        21.0750   15.4780   58.0150 O.2       1 AM81        0.0000 
     22 OAW        22.4070   16.0680   56.0270 O.2       1 AM81        0.0000 
     23 NAX        20.4810   14.3820   55.8020 N.pl3     1 AM81        0.0000 
     24 CBE        20.5380   14.5990   54.3470 C.3       1 AM81        0.0000 
     25 CAY        19.4980   13.6690   56.3620 C.ar      1 AM81        0.0000 
     26 CAZ        19.4420   12.3060   56.0950 C.ar      1 AM81        0.0000 
     27 CBA        18.4500   11.5240   56.6630 C.ar      1 AM81        0.0000 
     28 CLBM       18.4360    9.8430   56.2870 Cl        1 AM81        0.0000 
     29 CBB        17.4960   12.0910   57.5090 C.ar      1 AM81        0.0000 
     30 CBC        17.5490   13.4580   57.7890 C.ar      1 AM81        0.0000 
     31 CBD        18.5500   14.2470   57.2150 C.ar      1 AM81        0.0000 
     32 H          23.5074    7.6540   60.1139 H         1 AM81        0.0000 
     33 H          21.2686   10.6021   59.6301 H         1 AM81        0.0000 
     34 H          21.0406    9.5796   58.2009 H         1 AM81        0.0000 
     35 H          21.3260   12.4253   57.9913 H         1 AM81        0.0000 
     36 H          25.9613   12.6968   56.6118 H         1 AM81        0.0000 
     37 H          24.4575   14.5418   56.1728 H         1 AM81        0.0000 
     38 H          20.1426   11.8777   55.4715 H         1 AM81        0.0000 
     39 H          16.7622   11.5092   57.9217 H         1 AM81        0.0000 
     40 H          16.8561   13.8824   58.4136 H         1 AM81        0.0000 
     41 H          18.5910   15.2522   57.4186 H         1 AM81        0.0000 
     42 H          19.9075    5.5065   62.4890 H         1 AM81        0.0000 
     43 H          19.1198    6.8859   62.7403 H         1 AM81        0.0000 
     44 H          18.7761    5.9869   61.4519 H         1 AM81        0.0000 
     45 H          19.1853    9.7601   59.6921 H         1 AM81        0.0000 
     46 H          18.4049    8.3608   59.8297 H         1 AM81        0.0000 
     47 H          18.6968    9.2506   61.1370 H         1 AM81        0.0000 
     48 H          23.6166    5.5476   61.5780 H         1 AM81        0.0000 
     49 H          22.5528    5.6015   62.7828 H         1 AM81        0.0000 
     50 H          22.2529    4.7003   61.4851 H         1 AM81        0.0000 
     51 H          21.3579   14.1935   53.9429 H         1 AM81        0.0000 
     52 H          19.7509   14.1957   53.8802 H         1 AM81        0.0000 
     53 H          20.5483   15.5721   54.1167 H         1 AM81        0.0000 
@<TRIPOS>BOND
     1    2    1 1    
     2   42    1 1    
     3   43    1 1    
     4   44    1 1    
     5    3    2 1    
     6    5    2 2    
     7    4    3 1    
     8    8    3 2    
     9   45    4 1    
    10   46    4 1    
    11   47    4 1    
    12    6    5 1    
    13    7    5 1    
    14   48    6 1    
    15   49    6 1    
    16   50    6 1    
    17    8    7 1    
    18   32    7 1    
    19    9    8 1    
    20   10    9 1    
    21   33    9 1    
    22   34    9 1    
    23   11   10 2    
    24   13   10 1    
    25   12   11 ar   
    26   16   11 ar   
    27   19   12 ar   
    28   35   12 1    
    29   14   13 2    
    30   15   13 1    
    31   16   15 2    
    32   17   16 ar   
    33   18   17 ar   
    34   36   17 1    
    35   19   18 ar   
    36   37   18 1    
    37   20   19 1    
    38   21   20 2    
    39   22   20 2    
    40   23   20 1    
    41   24   23 1    
    42   25   23 1    
    43   51   24 1    
    44   52   24 1    
    45   53   24 1    
    46   26   25 ar   
    47   31   25 ar   
    48   27   26 ar   
    49   38   26 1    
    50   28   27 1    
    51   29   27 ar   
    52   30   29 ar   
    53   39   29 1    
    54   31   30 ar   
    55   40   30 1    
    56   41   31 1    
@<TRIPOS>SUBSTRUCTURE
     1 AM81        1 GROUP   
@<TRIPOS>SET

