#    Name: 3u9d_ATP_2_INTS_M
#    Modification time : Mon Mar 24 21:57:05 2014

@<TRIPOS>MOLECULE
3u9d_ATP_2_INTS_M
   53     0    15     0     0
SMALL
NO_CHARGES


@<TRIPOS>ATOM
      1 Zn        -11.8315  -30.9925  -51.2970 Zn        4 ZIC7        0.0000 
      2 Zn        -13.0730  -30.9840  -51.5690 Zn       14 ZIL7        0.0000 
      3 Zn        -10.5900  -31.0010  -51.0250 Zn        9 ZIP7        0.0000 
      4 Zn        -10.9150  -31.7715  -51.7110 Zn        4 ZIC7        0.0000 
      5 Zn        -11.2400  -32.5420  -52.3970 Zn       14 ZIL7        0.0000 
      6 NZ        -10.1010  -33.8915  -49.5295 N.4       3 LYC4        0.0000 
      7 NZ        -10.8930  -33.4110  -50.6990 N.4      13 LYL4        0.0000 
      8 NZ         -9.3090  -34.3720  -48.3600 N.4       8 LYP4        0.0000 
      9 Zn        -10.7415  -32.2060  -50.8620 Zn        4 ZIC7        0.0000 
     10 Zn        -10.8930  -33.4110  -50.6990 Zn       14 ZIL7        0.0000 
     11 N         -10.1010  -33.8915  -49.5295 N.am      2 SEC2        0.0000 
     12 N         -10.8930  -33.4110  -50.6990 N.am     12 SEL2        0.0000 
     13 N          -9.3090  -34.3720  -48.3600 N.am      7 SEP2        0.0000 
     14 NZ        -11.0240  -34.4310  -48.7475 N.4       3 LYC4        0.0000 
     15 NZ        -12.7390  -34.4900  -49.1350 N.4      13 LYL4        0.0000 
     16 N         -13.8295  -34.3650  -47.9505 N.am      2 SEC2        0.0000 
     17 N         -12.7390  -34.4900  -49.1350 N.am     12 SEL2        0.0000 
     18 N         -14.9200  -34.2400  -46.7660 N.am      7 SEP2        0.0000 
     19 N         -13.6950  -32.7765  -49.8520 N.am      2 SEC2        0.0000 
     20 N         -13.3270  -33.3960  -51.3440 N.am     12 SEL2        0.0000 
     21 N         -14.0630  -32.1570  -48.3600 N.am      7 SEP2        0.0000 
     22 NZ         -9.6035  -35.5075  -49.8265 N.4       3 LYC4        0.0000 
     23 NZ         -9.8980  -36.6430  -51.2930 N.4      13 LYL4        0.0000 
     24 NZ        -10.4830  -35.3375  -48.8330 N.4       3 LYC4        0.0000 
     25 NZ        -11.6570  -36.3030  -49.3060 N.4      13 LYL4        0.0000 
     26 N         -10.4830  -35.3375  -48.8330 N.am      2 SEC2        0.0000 
     27 N         -11.6570  -36.3030  -49.3060 N.am     12 SEL2        0.0000 
     28 CA        -14.2855  -37.8750  -50.3480 C.3       5 GLC5        0.0000 
     29 CA        -12.3560  -38.9310  -50.0930 C.3      15 GLL5        0.0000 
     30 CA        -16.2150  -36.8190  -50.6030 C.3      10 GLP5        0.0000 
     31 CA        -11.4175  -40.2245  -52.1560 C.3       5 GLC5        0.0000 
     32 CA        -13.0340  -40.1000  -50.7680 C.3      15 GLL5        0.0000 
     33 CA         -9.8010  -40.3490  -53.5440 C.3      10 GLP5        0.0000 
     34 N         -14.9945  -43.7625  -50.1450 N.am      2 SEC2        0.0000 
     35 N         -13.9840  -43.2120  -49.5460 N.am     12 SEL2        0.0000 
     36 N         -16.0050  -44.3130  -50.7440 N.am      7 SEP2        0.0000 
     37 O         -12.9175  -44.1520  -48.8485 O.2       1 ALC1        0.0000 
     38 O         -13.9840  -43.2120  -49.5460 O.2      11 ALL1        0.0000 
     39 O         -11.8510  -45.0920  -48.1510 O.2       6 ALP1        0.0000 
     40 CA        -11.1050  -41.3305  -52.3865 C.3       5 GLC5        0.0000 
     41 CA        -12.4090  -42.3120  -51.2290 C.3      15 GLL5        0.0000 
     42 CA        -12.6650  -41.7770  -53.3560 C.3       5 GLC5        0.0000 
     43 CA        -12.9210  -41.2420  -55.4830 C.3      10 GLP5        0.0000 
     44 CA        -11.9220  -46.3635  -51.8255 C.3       5 GLC5        0.0000 
     45 CA        -11.9880  -45.9400  -53.8550 C.3      15 GLL5        0.0000 
     46 CA        -11.8560  -46.7870  -49.7960 C.3      10 GLP5        0.0000 
     47 CA        -10.2300  -45.1815  -54.7140 C.3       5 GLC5        0.0000 
     48 CA         -8.4720  -44.4230  -55.5730 C.3      10 GLP5        0.0000 
     49 CA        -10.5600  -42.3425  -52.9070 C.3       5 GLC5        0.0000 
     50 CA        -11.3190  -44.3360  -52.2700 C.3      15 GLL5        0.0000 
     51 CA        -11.2384  -45.8900  -51.1066 C.3       5 GLC5        0.0000 
     52 CA        -10.0270  -45.0360  -52.1480 C.3      15 GLL5        0.0000 
     53 CA         -9.5464  -44.7080  -53.9951 C.3       5 GLC5        0.0000 
@<TRIPOS>BOND
@<TRIPOS>SUBSTRUCTURE
     1 ALC1       37 GROUP        1 X    ALC  0     ROOT ALC X 1
     2 SEC2       11 GROUP        1 X    SEC  0     **** SEC X 2
     3 LYC4        6 GROUP        1 X    LYC  0     **** LYC X 4
     4 ZIC7        1 GROUP        1 X    ZIC  0     **** ZIC X 5
     5 GLC5       28 GROUP        1 X    GLC  0     **** GLC X 6
     6 ALP1       39 GROUP        1 Y    ALP  0     ROOT ALP Y 8
     7 SEP2       13 GROUP        1 Y    SEP  0     **** SEP Y 9
     8 LYP4        8 GROUP        1 Y    LYP  0     **** LYP Y 11
     9 ZIP7        3 GROUP        1 Y    ZIP  0     **** ZIP Y 12
    10 GLP5       30 GROUP        1 Y    GLP  0     **** GLP Y 13
    11 ALL1       38 GROUP        1 Z    ALL  0     ROOT ALL Z 15
    12 SEL2       12 GROUP        1 Z    SEL  0     **** SEL Z 16
    13 LYL4        7 GROUP        1 Z    LYL  0     **** LYL Z 18
    14 ZIL7        2 GROUP        1 Z    ZIL  0     **** ZIL Z 19
    15 GLL5       29 GROUP        1 Z    GLL  0     **** GLL Z 20
@<TRIPOS>SET

