#    Name: 3u9d_ATP_2_ligand
#    Modification time : Mon Mar 24 21:57:05 2014

@<TRIPOS>MOLECULE
3u9d_ATP_2_ligand
   43    45     1     0     0
SMALL
NO_CHARGES


@<TRIPOS>ATOM
      1 PG        -12.7310  -32.2630  -52.3220 P.3       1 ATP501      0.0000 
      2 O1G       -13.0730  -30.9840  -51.5690 O.co2     1 ATP501      0.0000 
      3 O2G       -13.4990  -32.4940  -53.6280 O.co2     1 ATP501      0.0000 
      4 O3G       -11.2400  -32.5420  -52.3970 O.co2     1 ATP501      0.0000 
      5 PB        -12.2040  -34.1570  -50.4890 P.3       1 ATP501      0.0000 
      6 O1B       -10.8930  -33.4110  -50.6990 O.co2     1 ATP501      0.0000 
      7 O2B       -12.7390  -34.4900  -49.1350 O.co2     1 ATP501      0.0000 
      8 O3B       -13.3270  -33.3960  -51.3440 O.3       1 ATP501      0.0000 
      9 PA        -11.2790  -36.6430  -50.7180 P.3       1 ATP501      0.0000 
     10 O1A        -9.8980  -36.6430  -51.2930 O.co2     1 ATP501      0.0000 
     11 O2A       -11.6570  -36.3030  -49.3060 O.co2     1 ATP501      0.0000 
     12 O3A       -12.0950  -35.4860  -51.3830 O.3       1 ATP501      0.0000 
     13 O5'       -11.9840  -38.0280  -51.1050 O.3       1 ATP501      0.0000 
     14 C5'       -12.3560  -38.9310  -50.0930 C.3       1 ATP501      0.0000 
     15 C4'       -13.0340  -40.1000  -50.7680 C.3       1 ATP501      0.0000 
     16 O4'       -12.1020  -40.9320  -51.4960 O.3       1 ATP501      0.0000 
     17 C3'       -13.6180  -40.9580  -49.6740 C.3       1 ATP501      0.0000 
     18 O3'       -15.0060  -41.1670  -49.9200 O.3       1 ATP501      0.0000 
     19 C2'       -12.9320  -42.2930  -49.7910 C.3       1 ATP501      0.0000 
     20 O2'       -13.9840  -43.2120  -49.5460 O.3       1 ATP501      0.0000 
     21 C1'       -12.4090  -42.3120  -51.2290 C.3       1 ATP501      0.0000 
     22 N9        -11.2930  -43.2820  -51.4390 N.pl3     1 ATP501      0.0000 
     23 C8        -10.1030  -43.2900  -50.8180 C.2       1 ATP501      0.0000 
     24 N7         -9.3200  -44.3300  -51.2320 N.2       1 ATP501      0.0000 
     25 C5        -10.0270  -45.0360  -52.1480 C.ar      1 ATP501      0.0000 
     26 C6         -9.8180  -46.2640  -52.9810 C.ar      1 ATP501      0.0000 
     27 N6         -8.6680  -46.9930  -52.9600 N.pl3     1 ATP501      0.0000 
     28 N1        -10.8340  -46.6420  -53.7940 N.ar      1 ATP501      0.0000 
     29 C2        -11.9880  -45.9400  -53.8550 C.ar      1 ATP501      0.0000 
     30 N3        -12.2290  -44.8440  -53.1210 N.ar      1 ATP501      0.0000 
     31 C4        -11.3190  -44.3360  -52.2700 C.ar      1 ATP501      0.0000 
     32 H         -13.0609  -38.4934  -49.3861 H         1 ATP501      0.0000 
     33 H         -11.4966  -39.3113  -49.5409 H         1 ATP501      0.0000 
     34 H         -13.8255  -39.7535  -51.3832 H         1 ATP501      0.0000 
     35 H         -13.4159  -40.5381  -48.7388 H         1 ATP501      0.0000 
     36 H         -12.1526  -42.3299  -49.1112 H         1 ATP501      0.0000 
     37 H         -13.2751  -42.6056  -51.8495 H         1 ATP501      0.0000 
     38 H          -9.8165  -42.6308  -50.1428 H         1 ATP501      0.0000 
     39 H          -8.6357  -47.7817  -53.5739 H         1 ATP501      0.0000 
     40 H          -7.9571  -46.6754  -52.3325 H         1 ATP501      0.0000 
     41 H         -12.7456  -46.2806  -54.5254 H         1 ATP501      0.0000 
     42 H         -15.1994  -42.0772  -49.5538 H         1 ATP501      0.0000 
     43 H         -13.5450  -43.9973  -49.1095 H         1 ATP501      0.0000 
@<TRIPOS>BOND
     1    2    1 ar   
     2    3    1 ar   
     3    4    1 ar   
     4    8    1 1    
     5    6    5 ar   
     6    7    5 ar   
     7    8    5 1    
     8   12    5 1    
     9   10    9 ar   
    10   11    9 ar   
    11   12    9 1    
    12   13    9 1    
    13   14   13 1    
    14   15   14 1    
    15   32   14 1    
    16   33   14 1    
    17   16   15 1    
    18   17   15 1    
    19   34   15 1    
    20   21   16 1    
    21   18   17 1    
    22   19   17 1    
    23   35   17 1    
    24   42   18 1    
    25   20   19 1    
    26   21   19 1    
    27   36   19 1    
    28   43   20 1    
    29   22   21 1    
    30   37   21 1    
    31   23   22 1    
    32   31   22 1    
    33   24   23 2    
    34   38   23 1    
    35   25   24 1    
    36   26   25 ar   
    37   31   25 ar   
    38   27   26 1    
    39   28   26 ar   
    40   39   27 1    
    41   40   27 1    
    42   29   28 ar   
    43   30   29 ar   
    44   41   29 1    
    45   31   30 ar   
@<TRIPOS>SUBSTRUCTURE
     1 ATP501      1 GROUP   
@<TRIPOS>SET

