#    Name: 3bw4_FMN_1_INTS_M
#    Modification time : Mon Mar 24 20:09:19 2014

@<TRIPOS>MOLECULE
3bw4_FMN_1_INTS_M
   73     0     9     0     0
SMALL
NO_CHARGES


@<TRIPOS>ATOM
      1 O         -54.1915   20.9010  -62.7830 O.2       1 ALC1        0.0000 
      2 O         -53.7670   20.4780  -61.4500 O.2       7 ALL1        0.0000 
      3 O         -54.6160   21.3240  -64.1160 O.2       4 ALP1        0.0000 
      4 N         -52.8620   16.8770  -61.5740 N.am      2 SEC2        0.0000 
      5 N         -52.7360   18.4690  -61.8110 N.am      8 SEL2        0.0000 
      6 N         -52.9880   15.2850  -61.3370 N.am      5 SEP2        0.0000 
      7 N         -52.9205   16.5345  -60.2205 N.am      2 SEC2        0.0000 
      8 N         -52.8530   17.7840  -59.1040 N.am      8 SEL2        0.0000 
      9 CA        -53.9665   16.4895  -58.8705 C.3       3 GLC5        0.0000 
     10 CA        -52.9590   17.4700  -57.7480 C.3       9 GLL5        0.0000 
     11 CA        -54.9740   15.5090  -59.9930 C.3       6 GLP5        0.0000 
     12 CA        -53.9110   15.4550  -58.0145 C.3       3 GLC5        0.0000 
     13 CA        -52.4740   16.2220  -57.2790 C.3       9 GLL5        0.0000 
     14 CA        -55.3480   14.6880  -58.7500 C.3       6 GLP5        0.0000 
     15 CA        -54.6995   14.4565  -55.9645 C.3       3 GLC5        0.0000 
     16 CA        -52.7660   14.3170  -55.6920 C.3       9 GLL5        0.0000 
     17 CA        -56.6330   14.5960  -56.2370 C.3       6 GLP5        0.0000 
     18 CA        -52.9650   12.6385  -56.9700 C.3       3 GLC5        0.0000 
     19 CA        -53.1640   10.9600  -58.2480 C.3       6 GLP5        0.0000 
     20 CA        -53.4100   13.1770  -54.2695 C.3       3 GLC5        0.0000 
     21 CA        -54.0540   12.0370  -52.8470 C.3       6 GLP5        0.0000 
     22 CA        -55.3305   15.4865  -55.0180 C.3       3 GLC5        0.0000 
     23 CA        -54.0280   16.3770  -53.7990 C.3       9 GLL5        0.0000 
     24 CA        -53.3715   17.8745  -52.4925 C.3       3 GLC5        0.0000 
     25 CA        -52.7150   19.3720  -51.1860 C.3       6 GLP5        0.0000 
     26 CA        -54.0410   14.2070  -53.3230 C.3       3 GLC5        0.0000 
     27 O         -57.9180   21.9630  -57.7215 O.2       1 ALC1        0.0000 
     28 O         -56.5330   21.4930  -57.4720 O.2       7 ALL1        0.0000 
     29 O         -59.3030   22.4330  -57.9710 O.2       4 ALP1        0.0000 
     30 CA        -58.0045   23.0005  -54.4310 C.3       3 GLC5        0.0000 
     31 CA        -56.6420   21.3750  -55.0700 C.3       9 GLL5        0.0000 
     32 CA        -59.3670   24.6260  -53.7920 C.3       6 GLP5        0.0000 
     33 N         -54.8625   23.5175  -54.9585 N.am      2 SEC2        0.0000 
     34 N         -56.1470   22.7130  -54.9980 N.am      8 SEL2        0.0000 
     35 N         -53.5780   24.3220  -54.9190 N.am      5 SEP2        0.0000 
     36 CA        -58.2650   22.8780  -53.2010 C.3       3 GLC5        0.0000 
     37 CA        -57.1630   21.1300  -52.6100 C.3       9 GLL5        0.0000 
     38 CA        -57.5515   22.3325  -51.0990 C.3       3 GLC5        0.0000 
     39 CA        -57.9400   23.5350  -49.5880 C.3       6 GLP5        0.0000 
     40 N         -55.2655   20.4375  -51.1330 N.am      2 SEC2        0.0000 
     41 N         -56.8200   20.4880  -51.3620 N.am      8 SEL2        0.0000 
     42 N         -53.7110   20.3870  -50.9040 N.am      5 SEP2        0.0000 
     43 N         -55.0005   19.4180  -51.2760 N.am      2 SEC2        0.0000 
     44 N         -56.2900   18.4490  -51.6480 N.am      8 SEL2        0.0000 
     45 N         -57.0215   17.1475  -51.8970 N.am      2 SEC2        0.0000 
     46 N         -57.7530   15.8460  -52.1460 N.am      5 SEP2        0.0000 
     47 N         -55.9630   17.2805  -50.9620 N.am      2 SEC2        0.0000 
     48 N         -55.6360   16.1120  -50.2760 N.am      5 SEP2        0.0000 
     49 N         -59.1385   18.6290  -52.4150 N.am      2 SEC2        0.0000 
     50 N         -58.6830   19.5240  -51.2910 N.am      8 SEL2        0.0000 
     51 N         -59.5940   17.7340  -53.5390 N.am      5 SEP2        0.0000 
     52 N         -57.4870   20.6525  -48.7415 N.am      2 SEC2        0.0000 
     53 N         -56.8800   19.6210  -49.4460 N.am      8 SEL2        0.0000 
     54 N         -58.0940   21.6840  -48.0370 N.am      5 SEP2        0.0000 
     55 CA        -54.5350   15.9023  -56.6037 C.3       3 GLC5        0.0000 
     56 CA        -53.2200   16.7890  -55.0310 C.3       9 GLL5        0.0000 
     57 CA        -56.1780   15.4930  -57.7450 C.3       6 GLP5        0.0000 
     58 CA        -51.6680   17.7668  -54.8427 C.3       3 GLC5        0.0000 
     59 CA        -52.5640   15.8340  -55.8940 C.3       9 GLL5        0.0000 
     60 CA        -50.4440   19.2220  -54.2230 C.3       6 GLP5        0.0000 
     61 CA        -51.2045   15.2948  -54.7245 C.3       3 GLC5        0.0000 
     62 CA        -49.7440   15.5140  -53.6560 C.3       6 GLP5        0.0000 
     63 CA        -51.6840   16.0485  -54.0355 C.3       3 GLC5        0.0000 
     64 CA        -54.9020   16.8650  -56.9565 C.3       3 GLC5        0.0000 
     65 CA        -53.6890   18.0640  -55.4850 C.3       9 GLL5        0.0000 
     66 CA        -52.0350   18.7295  -55.1955 C.3       3 GLC5        0.0000 
     67 CA        -53.5630   18.4100  -56.8510 C.3       9 GLL5        0.0000 
     68 CA        -57.7230   20.0175  -56.4333 C.3       3 GLC5        0.0000 
     69 CA        -56.0440   20.7350  -56.3750 C.3       9 GLL5        0.0000 
     70 CA        -59.1030   18.9800  -57.1440 C.3       6 GLP5        0.0000 
     71 CA        -55.6718   22.1558  -52.2915 C.3       3 GLC5        0.0000 
     72 CA        -56.2460   20.6630  -53.7720 C.3       9 GLL5        0.0000 
     73 CA        -54.6390   23.4150  -51.3920 C.3       6 GLP5        0.0000 
@<TRIPOS>BOND
@<TRIPOS>SUBSTRUCTURE
     1 ALC1        1 GROUP        1 X    ALC  0     ROOT ALC X 1
     2 SEC2        4 GROUP        1 X    SEC  0     **** SEC X 2
     3 GLC5        9 GROUP        1 X    GLC  0     **** GLC X 6
     4 ALP1        3 GROUP        1 Y    ALP  0     ROOT ALP Y 8
     5 SEP2        6 GROUP        1 Y    SEP  0     **** SEP Y 9
     6 GLP5       11 GROUP        1 Y    GLP  0     **** GLP Y 13
     7 ALL1        2 GROUP        1 Z    ALL  0     ROOT ALL Z 15
     8 SEL2        5 GROUP        1 Z    SEL  0     **** SEL Z 16
     9 GLL5       10 GROUP        1 Z    GLL  0     **** GLL Z 20
@<TRIPOS>SET

