#    Name: 3bw4_FMN_1_ligand
#    Modification time : Mon Mar 24 20:09:19 2014

@<TRIPOS>MOLECULE
3bw4_FMN_1_ligand
   50    52     1     0     0
SMALL
NO_CHARGES


@<TRIPOS>ATOM
      1 N1        -54.4370   21.1370  -59.2190 N.2       1 FMN370      0.0000 
      2 C2        -54.3510   21.3970  -60.5900 C.2       1 FMN370      0.0000 
      3 O2        -54.8050   22.4480  -61.0390 O.2       1 FMN370      0.0000 
      4 N3        -53.7670   20.4780  -61.4500 N.am      1 FMN370      0.0000 
      5 C4        -53.2470   19.2700  -61.0060 C.2       1 FMN370      0.0000 
      6 O4        -52.7360   18.4690  -61.8110 O.2       1 FMN370      0.0000 
      7 C4A       -53.3340   18.9860  -59.6170 C.2       1 FMN370      0.0000 
      8 N5        -52.8530   17.7840  -59.1040 N.2       1 FMN370      0.0000 
      9 C5A       -52.9590   17.4700  -57.7480 C.ar      1 FMN370      0.0000 
     10 C6        -52.4740   16.2220  -57.2790 C.ar      1 FMN370      0.0000 
     11 C7        -52.5640   15.8340  -55.8940 C.ar      1 FMN370      0.0000 
     12 C7M       -52.7660   14.3170  -55.6920 C.3       1 FMN370      0.0000 
     13 C8        -53.2200   16.7890  -55.0310 C.ar      1 FMN370      0.0000 
     14 C8M       -54.0280   16.3770  -53.7990 C.3       1 FMN370      0.0000 
     15 C9        -53.6890   18.0640  -55.4850 C.ar      1 FMN370      0.0000 
     16 C9A       -53.5630   18.4100  -56.8510 C.ar      1 FMN370      0.0000 
     17 N10       -54.0340   19.6520  -57.3580 N.pl3     1 FMN370      0.0000 
     18 C10       -53.9360   19.9420  -58.7340 C.2       1 FMN370      0.0000 
     19 C1'       -54.4940   20.7640  -56.4050 C.3       1 FMN370      0.0000 
     20 C2'       -56.0440   20.7350  -56.3750 C.3       1 FMN370      0.0000 
     21 O2'       -56.5330   21.4930  -57.4720 O.3       1 FMN370      0.0000 
     22 C3'       -56.6420   21.3750  -55.0700 C.3       1 FMN370      0.0000 
     23 O3'       -56.1470   22.7130  -54.9980 O.3       1 FMN370      0.0000 
     24 C4'       -56.2460   20.6630  -53.7720 C.3       1 FMN370      0.0000 
     25 O4'       -56.3950   19.2560  -53.9630 O.3       1 FMN370      0.0000 
     26 C5'       -57.1630   21.1300  -52.6100 C.3       1 FMN370      0.0000 
     27 O5'       -56.8200   20.4880  -51.3620 O.3       1 FMN370      0.0000 
     28 P         -57.3520   19.0530  -50.7840 P.3       1 FMN370      0.0000 
     29 O1P       -56.2900   18.4490  -51.6480 O.co2     1 FMN370      0.0000 
     30 O2P       -58.6830   19.5240  -51.2910 O.co2     1 FMN370      0.0000 
     31 O3P       -56.8800   19.6210  -49.4460 O.co2     1 FMN370      0.0000 
     32 H         -53.7166   20.7035  -62.4702 H         1 FMN370      0.0000 
     33 H         -52.0408   15.5637  -57.9442 H         1 FMN370      0.0000 
     34 H         -54.1082   18.7101  -54.8243 H         1 FMN370      0.0000 
     35 H         -54.1680   21.7149  -56.7742 H         1 FMN370      0.0000 
     36 H         -54.1204   20.5736  -55.4196 H         1 FMN370      0.0000 
     37 H         -56.3735   19.7187  -56.4227 H         1 FMN370      0.0000 
     38 H         -57.7120   21.3749  -55.1632 H         1 FMN370      0.0000 
     39 H         -55.2389   20.9286  -53.5312 H         1 FMN370      0.0000 
     40 H         -58.2004   20.9105  -52.9050 H         1 FMN370      0.0000 
     41 H         -57.0688   22.2244  -52.5401 H         1 FMN370      0.0000 
     42 H         -52.0116   13.7870  -56.0793 H         1 FMN370      0.0000 
     43 H         -52.8264   14.0761  -54.7233 H         1 FMN370      0.0000 
     44 H         -53.6058   13.9929  -56.1275 H         1 FMN370      0.0000 
     45 H         -53.4688   15.8755  -53.1388 H         1 FMN370      0.0000 
     46 H         -54.4060   17.1697  -53.3207 H         1 FMN370      0.0000 
     47 H         -54.7976   15.7858  -54.0403 H         1 FMN370      0.0000 
     48 H         -57.5109   21.6037  -57.2946 H         1 FMN370      0.0000 
     49 H         -55.9084   22.9516  -55.9393 H         1 FMN370      0.0000 
     50 H         -55.9075   18.8378  -53.1965 H         1 FMN370      0.0000 
@<TRIPOS>BOND
     1    2    1 1    
     2   18    1 2    
     3    3    2 2    
     4    4    2 am   
     5    5    4 am   
     6   32    4 1    
     7    6    5 2    
     8    7    5 1    
     9    8    7 2    
    10   18    7 1    
    11    9    8 1    
    12   10    9 ar   
    13   16    9 ar   
    14   11   10 ar   
    15   33   10 1    
    16   12   11 1    
    17   13   11 ar   
    18   42   12 1    
    19   43   12 1    
    20   44   12 1    
    21   14   13 1    
    22   15   13 ar   
    23   45   14 1    
    24   46   14 1    
    25   47   14 1    
    26   16   15 ar   
    27   34   15 1    
    28   17   16 1    
    29   18   17 1    
    30   19   17 1    
    31   20   19 1    
    32   35   19 1    
    33   36   19 1    
    34   21   20 1    
    35   22   20 1    
    36   37   20 1    
    37   48   21 1    
    38   23   22 1    
    39   24   22 1    
    40   38   22 1    
    41   49   23 1    
    42   25   24 1    
    43   26   24 1    
    44   39   24 1    
    45   50   25 1    
    46   27   26 1    
    47   40   26 1    
    48   41   26 1    
    49   28   27 1    
    50   29   28 ar   
    51   30   28 ar   
    52   31   28 ar   
@<TRIPOS>SUBSTRUCTURE
     1 FMN370      1 GROUP   
@<TRIPOS>SET

