#    Name: 4j0y_1H6_1_INTS_M
#    Modification time : Tue Mar 25 04:59:47 2014

@<TRIPOS>MOLECULE
4j0y_1H6_1_INTS_M
   57     0     6     0     0
SMALL
NO_CHARGES


@<TRIPOS>ATOM
      1 CA        -16.1125  -40.1425   -5.3970 C.3       2 GLC5        0.0000 
      2 CA        -15.2930  -40.0100   -7.4680 C.3       6 GLL5        0.0000 
      3 CA        -16.9320  -40.2750   -3.3260 C.3       4 GLP5        0.0000 
      4 CA        -17.8055  -39.9110   -5.3300 C.3       2 GLC5        0.0000 
      5 CA        -18.6790  -39.5470   -7.3340 C.3       6 GLL5        0.0000 
      6 CA        -15.9310  -39.3650  -11.7885 C.3       2 GLC5        0.0000 
      7 CA        -16.5300  -40.0030   -9.9560 C.3       6 GLL5        0.0000 
      8 CA        -15.3320  -38.7270  -13.6210 C.3       4 GLP5        0.0000 
      9 CA        -14.9850  -36.3905   -8.8110 C.3       2 GLC5        0.0000 
     10 CA        -16.5670  -37.4530   -9.5570 C.3       6 GLL5        0.0000 
     11 CA        -13.4030  -35.3280   -8.0650 C.3       4 GLP5        0.0000 
     12 CA        -16.1680  -37.0040  -11.1785 C.3       2 GLC5        0.0000 
     13 CA        -15.7690  -36.5550  -12.8000 C.3       4 GLP5        0.0000 
     14 CA        -18.1230  -37.2890  -11.8825 C.3       2 GLC5        0.0000 
     15 CA        -19.1320  -37.9260  -10.6130 C.3       6 GLL5        0.0000 
     16 CA        -17.1140  -36.6520  -13.1520 C.3       4 GLP5        0.0000 
     17 CA        -20.1050  -36.6680  -10.7205 C.3       2 GLC5        0.0000 
     18 CA        -21.0780  -35.4100  -10.8280 C.3       4 GLP5        0.0000 
     19 O         -15.9020  -37.8840   -6.9065 O.2       1 ALC1        0.0000 
     20 O         -16.0220  -38.9390   -7.7430 O.2       5 ALL1        0.0000 
     21 O         -15.7820  -36.8290   -6.0700 O.2       3 ALP1        0.0000 
     22 CA        -17.1275  -39.5590  -12.3365 C.3       2 GLC5        0.0000 
     23 CA        -17.5780  -40.2420  -10.6760 C.3       6 GLL5        0.0000 
     24 CA        -16.6770  -38.8760  -13.9970 C.3       4 GLP5        0.0000 
     25 O         -14.7550  -39.0145   -5.3520 O.2       1 ALC1        0.0000 
     26 O         -14.6090  -40.0630   -6.2470 O.2       5 ALL1        0.0000 
     27 O         -14.9010  -37.9660   -4.4570 O.2       3 ALP1        0.0000 
     28 O         -15.1955  -38.4460   -6.1585 O.2       1 ALC1        0.0000 
     29 O         -13.8420  -41.1200   -5.7655 O.2       1 ALC1        0.0000 
     30 O         -13.0750  -42.1770   -5.2840 O.2       3 ALP1        0.0000 
     31 O         -18.9190  -41.0335   -5.3890 O.2       1 ALC1        0.0000 
     32 O         -20.2000  -40.3750   -5.6920 O.2       5 ALL1        0.0000 
     33 O         -17.6380  -41.6920   -5.0860 O.2       3 ALP1        0.0000 
     34 CA        -20.9135  -39.5235   -4.0915 C.3       2 GLC5        0.0000 
     35 CA        -21.2450  -41.6750   -3.9850 C.3       6 GLL5        0.0000 
     36 CA        -20.5820  -37.3720   -4.1980 C.3       4 GLP5        0.0000 
     37 CA        -18.4630  -41.1720   -2.6995 C.3       2 GLC5        0.0000 
     38 CA        -19.9940  -42.0690   -2.0730 C.3       6 GLL5        0.0000 
     39 CA        -18.3280  -43.0785   -2.9495 C.3       2 GLC5        0.0000 
     40 CA        -16.6620  -44.0880   -3.8260 C.3       4 GLP5        0.0000 
     41 CA        -19.3575  -44.4505    0.8360 C.3       2 GLC5        0.0000 
     42 CA        -20.7440  -43.6880   -0.3840 C.3       6 GLL5        0.0000 
     43 CA        -17.9710  -45.2130    2.0560 C.3       4 GLP5        0.0000 
     44 CA        -20.0953  -38.4509   -5.7649 C.3       2 GLC5        0.0000 
     45 CA        -18.6382  -37.2550   -7.5231 C.3       2 GLC5        0.0000 
     46 CA        -18.4910  -35.3820   -6.9010 C.3       4 GLP5        0.0000 
     47 CA        -17.6043  -36.7548   -8.0730 C.3       2 GLC5        0.0000 
     48 CA        -16.8680  -38.8020   -8.9330 C.3       6 GLL5        0.0000 
     49 CA        -19.7503  -44.9903   -1.3832 C.3       2 GLC5        0.0000 
     50 CA        -20.9190  -43.0230   -1.6350 C.3       6 GLL5        0.0000 
     51 CA        -18.6690  -46.6250   -1.7570 C.3       4 GLP5        0.0000 
     52 CA        -24.0250  -42.6390   -2.4090 C.3       2 GLC5        0.0000 
     53 CA        -22.0730  -43.3060   -2.4410 C.3       6 GLL5        0.0000 
     54 CA        -25.9160  -42.3120   -1.7760 C.3       4 GLP5        0.0000 
     55 CA        -22.3618  -41.8021   -1.5757 C.3       2 GLC5        0.0000 
     56 CA        -22.8270  -40.8760   -0.0240 C.3       4 GLP5        0.0000 
     57 CA        -21.7136  -41.9965   -0.5715 C.3       2 GLC5        0.0000 
@<TRIPOS>BOND
@<TRIPOS>SUBSTRUCTURE
     1 ALC1       19 GROUP        1 X    ALC  0     ROOT ALC X 1
     2 GLC5        1 GROUP        1 X    GLC  0     **** GLC X 6
     3 ALP1       21 GROUP        1 Y    ALP  0     ROOT ALP Y 8
     4 GLP5        3 GROUP        1 Y    GLP  0     **** GLP Y 13
     5 ALL1       20 GROUP        1 Z    ALL  0     ROOT ALL Z 15
     6 GLL5        2 GROUP        1 Z    GLL  0     **** GLL Z 20
@<TRIPOS>SET

