#    Name: 4j0y_1H6_1_ligand
#    Modification time : Tue Mar 25 04:59:47 2014

@<TRIPOS>MOLECULE
4j0y_1H6_1_ligand
   43    45     1     0     0
SMALL
NO_CHARGES


@<TRIPOS>ATOM
      1 C13       -15.2930  -40.0100   -7.4680 C.2       1 1H6504      0.0000 
      2 C3        -20.7720  -38.6910   -8.9910 C.ar      1 1H6504      0.0000 
      3 C2        -21.0750  -39.3030   -7.7390 C.ar      1 1H6504      0.0000 
      4 C1        -20.0010  -39.7220   -6.9200 C.ar      1 1H6504      0.0000 
      5 C4        -19.4230  -38.5140   -9.3960 C.ar      1 1H6504      0.0000 
      6 C5        -18.3610  -38.9040   -8.5170 C.ar      1 1H6504      0.0000 
      7 C6        -18.6790  -39.5470   -7.3340 C.ar      1 1H6504      0.0000 
      8 C10       -16.5300  -40.0030   -9.9560 C.3       1 1H6504      0.0000 
      9 C9        -16.5670  -37.4530   -9.5570 C.3       1 1H6504      0.0000 
     10 C8        -16.8680  -38.8020   -8.9330 C.3       1 1H6504      0.0000 
     11 C11       -16.2460  -41.2860   -9.1860 C.3       1 1H6504      0.0000 
     12 F7        -19.1320  -37.9260  -10.6130 F         1 1H6504      0.0000 
     13 O12       -15.1530  -41.0350   -8.2950 O.3       1 1H6504      0.0000 
     14 N14       -16.0220  -38.9390   -7.7430 N.pl3     1 1H6504      0.0000 
     15 F15       -17.5780  -40.2420  -10.6760 F         1 1H6504      0.0000 
     16 N16       -14.6090  -40.0630   -6.2470 N.pl3     1 1H6504      0.0000 
     17 N17       -20.2000  -40.3750   -5.6920 N.am      1 1H6504      0.0000 
     18 C18       -21.3230  -40.9950   -5.2690 C.2       1 1H6504      0.0000 
     19 C19       -21.2450  -41.6750   -3.9850 C.ar      1 1H6504      0.0000 
     20 O20       -22.3860  -40.9230   -5.8630 O.2       1 1H6504      0.0000 
     21 N21       -20.1920  -41.4170   -3.2070 N.ar      1 1H6504      0.0000 
     22 C22       -19.9940  -42.0690   -2.0730 C.ar      1 1H6504      0.0000 
     23 C23       -20.9190  -43.0230   -1.6350 C.ar      1 1H6504      0.0000 
     24 C24       -22.0730  -43.3060   -2.4410 C.ar      1 1H6504      0.0000 
     25 C25       -22.1950  -42.6260   -3.6430 C.ar      1 1H6504      0.0000 
     26 C26       -20.7440  -43.6880   -0.3840 C.1       1 1H6504      0.0000 
     27 N27       -20.6040  -44.2200    0.5950 N.1       1 1H6504      0.0000 
     28 H         -21.5313  -38.3795   -9.5972 H         1 1H6504      0.0000 
     29 H         -22.0307  -39.4310   -7.4506 H         1 1H6504      0.0000 
     30 H         -17.9128  -39.9137   -6.7299 H         1 1H6504      0.0000 
     31 H         -15.6522  -39.7166  -10.4799 H         1 1H6504      0.0000 
     32 H         -16.0091  -42.0676   -9.9063 H         1 1H6504      0.0000 
     33 H         -17.1505  -41.5649   -8.6476 H         1 1H6504      0.0000 
     34 H         -16.0337  -38.0992   -7.0996 H         1 1H6504      0.0000 
     35 H         -14.0184  -40.8579   -6.1076 H         1 1H6504      0.0000 
     36 H         -14.7698  -39.3015   -5.6192 H         1 1H6504      0.0000 
     37 H         -19.3462  -40.3695   -5.0246 H         1 1H6504      0.0000 
     38 H         -19.1565  -41.8959   -1.4792 H         1 1H6504      0.0000 
     39 H         -22.7521  -43.9744   -2.1259 H         1 1H6504      0.0000 
     40 H         -22.9791  -42.8238   -4.2726 H         1 1H6504      0.0000 
     41 H         -15.6071  -37.3741   -9.8259 H         1 1H6504      0.0000 
     42 H         -17.1154  -37.2927  -10.3777 H         1 1H6504      0.0000 
     43 H         -16.7573  -36.7011   -8.9258 H         1 1H6504      0.0000 
@<TRIPOS>BOND
     1   13    1 1    
     2   14    1 2    
     3   16    1 1    
     4    3    2 ar   
     5    5    2 ar   
     6   28    2 1    
     7    4    3 ar   
     8   29    3 1    
     9    7    4 ar   
    10   17    4 1    
    11    6    5 ar   
    12   12    5 1    
    13    7    6 ar   
    14   10    6 1    
    15   30    7 1    
    16   10    8 1    
    17   11    8 1    
    18   15    8 1    
    19   31    8 1    
    20   10    9 1    
    21   41    9 1    
    22   42    9 1    
    23   43    9 1    
    24   14   10 1    
    25   13   11 1    
    26   32   11 1    
    27   33   11 1    
    28   34   14 1    
    29   35   16 1    
    30   36   16 1    
    31   18   17 am   
    32   37   17 1    
    33   19   18 1    
    34   20   18 2    
    35   21   19 ar   
    36   25   19 ar   
    37   22   21 ar   
    38   23   22 ar   
    39   38   22 1    
    40   24   23 ar   
    41   26   23 1    
    42   25   24 ar   
    43   39   24 1    
    44   40   25 1    
    45   27   26 3    
@<TRIPOS>SUBSTRUCTURE
     1 1H6504      1 GROUP   
@<TRIPOS>SET

