#    Name: 4fnz_NZF_1_INTS_M
#    Modification time : Mon Mar 24 20:24:17 2014

@<TRIPOS>MOLECULE
4fnz_NZF_1_INTS_M
  102     0     9     0     0
SMALL
NO_CHARGES


@<TRIPOS>ATOM
      1 CA         18.2720    7.2150   61.0845 C.3       3 GLC5        0.0000 
      2 CA         18.8820    8.4190   59.4410 C.3       9 GLL5        0.0000 
      3 CA         17.6620    6.0110   62.7280 C.3       6 GLP5        0.0000 
      4 CA         22.7395    8.7205   55.2565 C.3       3 GLC5        0.0000 
      5 CA         22.4030    6.9290   56.2460 C.3       9 GLL5        0.0000 
      6 CA         23.0760   10.5120   54.2670 C.3       6 GLP5        0.0000 
      7 CA         24.5300    9.1995   57.5140 C.3       3 GLC5        0.0000 
      8 CA         23.4650    7.8330   58.9320 C.3       9 GLL5        0.0000 
      9 CA         25.5950   10.5660   56.0960 C.3       6 GLP5        0.0000 
     10 CA         26.6120    7.5300   61.2540 C.3       3 GLC5        0.0000 
     11 CA         25.4000    6.8120   59.6110 C.3       9 GLL5        0.0000 
     12 CA         27.8240    8.2480   62.8970 C.3       6 GLP5        0.0000 
     13 CA         23.9555    6.5395   60.9085 C.3       3 GLC5        0.0000 
     14 CA         22.5110    6.2670   62.2060 C.3       6 GLP5        0.0000 
     15 O          24.2905   10.0660   61.9270 O.2       1 ALC1        0.0000 
     16 O          23.3120   10.7060   61.0950 O.2       7 ALL1        0.0000 
     17 O          25.2690    9.4260   62.7590 O.2       4 ALP1        0.0000 
     18 CA         23.5900   12.0740   59.4590 C.3       3 GLC5        0.0000 
     19 CA         22.7410   11.8850   61.3970 C.3       9 GLL5        0.0000 
     20 CA         24.4390   12.2630   57.5210 C.3       6 GLP5        0.0000 
     21 CA         23.6130   13.8915   60.9335 C.3       3 GLC5        0.0000 
     22 CA         24.4850   15.8980   60.4700 C.3       6 GLP5        0.0000 
     23 CA         23.4955   11.3345   63.2180 C.3       3 GLC5        0.0000 
     24 CA         24.2500   10.7840   65.0390 C.3       6 GLP5        0.0000 
     25 CA         21.5325   11.7600   62.9370 C.3       3 GLC5        0.0000 
     26 CA         20.3240   11.6350   64.4770 C.3       6 GLP5        0.0000 
     27 N          24.6655   12.4125   63.0815 N.am      2 SEC2        0.0000 
     28 N          23.3810   12.6740   62.2870 N.am      8 SEL2        0.0000 
     29 N          25.9500   12.1510   63.8760 N.am      5 SEP2        0.0000 
     30 CA         24.9715   14.0335   62.9770 C.3       3 GLC5        0.0000 
     31 CA         22.8910   13.8460   62.6610 C.3       9 GLL5        0.0000 
     32 CA         27.0520   14.2210   63.2930 C.3       6 GLP5        0.0000 
     33 CA         23.3330   12.8945   64.2750 C.3       3 GLC5        0.0000 
     34 CA         23.7750   11.9430   65.8890 C.3       6 GLP5        0.0000 
     35 CA         21.0155   16.3120   62.2960 C.3       3 GLC5        0.0000 
     36 CA         21.6870   14.2910   62.1250 C.3       9 GLL5        0.0000 
     37 CA         20.3440   18.3330   62.4670 C.3       6 GLP5        0.0000 
     38 CA         21.3410   14.2815   59.2665 C.3       3 GLC5        0.0000 
     39 CA         21.0370   13.4670   61.2070 C.3       9 GLL5        0.0000 
     40 CA         21.6450   15.0960   57.3260 C.3       6 GLP5        0.0000 
     41 CA         19.1915   15.3645   58.9780 C.3       3 GLC5        0.0000 
     42 CA         19.1340   15.0940   61.0190 C.3       9 GLL5        0.0000 
     43 CA         19.2490   15.6350   56.9370 C.3       6 GLP5        0.0000 
     44 CA         19.1880   14.2750   58.3180 C.3       3 GLC5        0.0000 
     45 CA         19.1270   12.9150   59.6990 C.3       9 GLL5        0.0000 
     46 CA         15.6650   13.3170   62.3875 C.3       3 GLC5        0.0000 
     47 CA         17.0220   13.7900   60.7290 C.3       9 GLL5        0.0000 
     48 CA         14.3080   12.8440   64.0460 C.3       6 GLP5        0.0000 
     49 N          15.5650   17.6180   60.5890 N.am      2 SEC2        0.0000 
     50 N          16.5540   16.7620   61.2830 N.am      8 SEL2        0.0000 
     51 N          14.5760   18.4740   59.8950 N.am      5 SEP2        0.0000 
     52 O          16.9970   15.1225   64.1755 O.2       1 ALC1        0.0000 
     53 O          16.8590   16.0920   63.3910 O.2       7 ALL1        0.0000 
     54 O          17.1350   14.1530   64.9600 O.2       4 ALP1        0.0000 
     55 CA         19.7525   16.8000   66.2610 C.3       3 GLC5        0.0000 
     56 CA         17.7580   17.4650   65.8000 C.3       9 GLL5        0.0000 
     57 CA         21.7470   16.1350   66.7220 C.3       6 GLP5        0.0000 
     58 CA         19.2900   18.7525   65.0235 C.3       3 GLC5        0.0000 
     59 CA         20.8220   20.0400   64.2470 C.3       6 GLP5        0.0000 
     60 CA         19.5405   16.5300   67.4960 C.3       3 GLC5        0.0000 
     61 CA         18.0740   17.6130   67.1420 C.3       9 GLL5        0.0000 
     62 CA         21.0070   15.4470   67.8500 C.3       6 GLP5        0.0000 
     63 CA         17.5185   17.4085   70.0030 C.3       3 GLC5        0.0000 
     64 CA         17.0780   17.6980   68.1000 C.3       9 GLL5        0.0000 
     65 CA         17.9590   17.1190   71.9060 C.3       6 GLP5        0.0000 
     66 CA         14.1555   14.7795   66.7490 C.3       3 GLC5        0.0000 
     67 CA         13.9040   15.6540   68.3540 C.3       9 GLL5        0.0000 
     68 CA         14.4070   13.9050   65.1440 C.3       6 GLP5        0.0000 
     69 CA         12.4645   16.8450   67.7645 C.3       3 GLC5        0.0000 
     70 CA         11.0250   18.0360   67.1750 C.3       6 GLP5        0.0000 
     71 CA         21.9405    7.7173   60.7578 C.3       3 GLC5        0.0000 
     72 CA         21.5500    9.6760   59.7590 C.3       9 GLL5        0.0000 
     73 CA         22.6635    7.0243   60.4460 C.3       3 GLC5        0.0000 
     74 CA         23.7193   10.7780   58.7115 C.3       3 GLC5        0.0000 
     75 CA         23.7940    8.8550   59.8100 C.3       9 GLL5        0.0000 
     76 CA         22.9190    7.7938   61.1128 C.3       3 GLC5        0.0000 
     77 CA         22.8600    9.7860   60.2290 C.3       9 GLL5        0.0000 
     78 CA         23.0740   14.8329   61.1350 C.3       3 GLC5        0.0000 
     79 CA         20.9935   12.7014   63.1385 C.3       3 GLC5        0.0000 
     80 CA         19.4115   16.6157   61.9095 C.3       3 GLC5        0.0000 
     81 CA         15.9730   19.3815   66.7200 C.3       3 GLC5        0.0000 
     82 CA         15.4130   17.4780   66.3600 C.3       9 GLL5        0.0000 
     83 CA         16.3640   21.2150   66.4070 C.3       6 GLP5        0.0000 
     84 CA         15.1256   15.6506   65.3305 C.3       3 GLC5        0.0000 
     85 CA         16.7989   19.2934   65.0715 C.3       3 GLC5        0.0000 
     86 CA         16.1190   17.2340   63.9340 C.3       9 GLL5        0.0000 
     87 CA         16.5810   21.1970   64.9060 C.3       6 GLP5        0.0000 
     88 CA         18.1040   19.3828   67.4935 C.3       3 GLC5        0.0000 
     89 CA         18.6320   21.1100   67.3660 C.3       6 GLP5        0.0000 
     90 CA         17.5475   15.4977   67.2113 C.3       3 GLC5        0.0000 
     91 CA         17.5980   13.3770   67.1370 C.3       6 GLP5        0.0000 
     92 CA         16.4080   16.7055   70.7700 C.3       3 GLC5        0.0000 
     93 CA         14.3600   16.5470   69.2690 C.3       9 GLL5        0.0000 
     94 CA         12.7490   17.8843   68.8053 C.3       3 GLC5        0.0000 
     95 CA         11.6300   19.0170   67.9400 C.3       6 GLP5        0.0000 
     96 CA         14.3042   18.4185   70.5980 C.3       3 GLC5        0.0000 
     97 CA         13.3760   16.9560   70.0720 C.3       9 GLL5        0.0000 
     98 CA         14.4920   20.2130   71.3430 C.3       6 GLP5        0.0000 
     99 CA         12.4855   15.3834   69.7196 C.3       3 GLC5        0.0000 
    100 CA         11.0850   14.5640   70.4270 C.3       6 GLP5        0.0000 
    101 CA         14.2081   14.6215   69.8337 C.3       3 GLC5        0.0000 
    102 CA         14.4060   13.1040   70.5640 C.3       6 GLP5        0.0000 
@<TRIPOS>BOND
@<TRIPOS>SUBSTRUCTURE
     1 ALC1       15 GROUP        1 X    ALC  0     ROOT ALC X 1
     2 SEC2       27 GROUP        1 X    SEC  0     **** SEC X 2
     3 GLC5        1 GROUP        1 X    GLC  0     **** GLC X 6
     4 ALP1       17 GROUP        1 Y    ALP  0     ROOT ALP Y 8
     5 SEP2       29 GROUP        1 Y    SEP  0     **** SEP Y 9
     6 GLP5        3 GROUP        1 Y    GLP  0     **** GLP Y 13
     7 ALL1       16 GROUP        1 Z    ALL  0     ROOT ALL Z 15
     8 SEL2       28 GROUP        1 Z    SEL  0     **** SEL Z 16
     9 GLL5        2 GROUP        1 Z    GLL  0     **** GLL Z 20
@<TRIPOS>SET

