#    Name: 4fnz_NZF_1_ligand
#    Modification time : Mon Mar 24 20:24:18 2014

@<TRIPOS>MOLECULE
4fnz_NZF_1_ligand
   70    73     1     0     0
SMALL
NO_CHARGES


@<TRIPOS>ATOM
      1 C17        18.8820    8.4190   59.4410 C.3       1 NZF1501     0.0000 
      2 O1         19.8870    8.5940   58.4000 O.3       1 NZF1501     0.0000 
      3 C15        21.1900    8.6590   58.8600 C.ar      1 NZF1501     0.0000 
      4 C16        21.5500    9.6760   59.7590 C.ar      1 NZF1501     0.0000 
      5 C14        22.1670    7.7300   58.4400 C.ar      1 NZF1501     0.0000 
      6 O2         21.8740    6.7130   57.5720 O.3       1 NZF1501     0.0000 
      7 C18        22.4030    6.9290   56.2460 C.3       1 NZF1501     0.0000 
      8 C13        23.4650    7.8330   58.9320 C.ar      1 NZF1501     0.0000 
      9 O3         24.4410    6.9690   58.5580 O.3       1 NZF1501     0.0000 
     10 C19        25.4000    6.8120   59.6110 C.3       1 NZF1501     0.0000 
     11 C12        23.7940    8.8550   59.8100 C.ar      1 NZF1501     0.0000 
     12 C11        22.8600    9.7860   60.2290 C.ar      1 NZF1501     0.0000 
     13 N4         23.3120   10.7060   61.0950 N.pl3     1 NZF1501     0.0000 
     14 C10        22.7410   11.8850   61.3970 C.ar      1 NZF1501     0.0000 
     15 N3         21.5780   12.2890   60.8620 N.ar      1 NZF1501     0.0000 
     16 N2         23.3810   12.6740   62.2870 N.ar      1 NZF1501     0.0000 
     17 C9         22.8910   13.8460   62.6610 C.ar      1 NZF1501     0.0000 
     18 C8         21.6870   14.2910   62.1250 C.ar      1 NZF1501     0.0000 
     19 C7         21.0370   13.4670   61.2070 C.ar      1 NZF1501     0.0000 
     20 N1         19.8180   13.8450   60.6310 N.3       1 NZF1501     0.0000 
     21 C3         19.1340   15.0940   61.0190 C.3       1 NZF1501     0.0000 
     22 C2         19.1270   12.9150   59.6990 C.3       1 NZF1501     0.0000 
     23 C1         17.8070   12.5300   60.3570 C.3       1 NZF1501     0.0000 
     24 C5         17.0220   13.7900   60.7290 C.3       1 NZF1501     0.0000 
     25 C4         17.8240   14.7030   61.6850 C.3       1 NZF1501     0.0000 
     26 C6         17.0120   15.9500   62.0920 C.2       1 NZF1501     0.0000 
     27 O4         16.5540   16.7620   61.2830 O.2       1 NZF1501     0.0000 
     28 N5         16.8590   16.0920   63.3910 N.am      1 NZF1501     0.0000 
     29 C20        16.1190   17.2340   63.9340 C.3       1 NZF1501     0.0000 
     30 C21        16.4320   17.3950   65.4140 C.ar      1 NZF1501     0.0000 
     31 C27        15.4130   17.4780   66.3600 C.ar      1 NZF1501     0.0000 
     32 C22        17.7580   17.4650   65.8000 C.ar      1 NZF1501     0.0000 
     33 C23        18.0740   17.6130   67.1420 C.ar      1 NZF1501     0.0000 
     34 C24        17.0780   17.6980   68.1000 C.ar      1 NZF1501     0.0000 
     35 C25        15.7510   17.6180   67.7060 C.ar      1 NZF1501     0.0000 
     36 O5         14.7880   17.7290   68.6510 O.3       1 NZF1501     0.0000 
     37 C26        14.3600   16.5470   69.2690 C.3       1 NZF1501     0.0000 
     38 F2         15.3540   16.0370   69.9990 F         1 NZF1501     0.0000 
     39 F3         13.3760   16.9560   70.0720 F         1 NZF1501     0.0000 
     40 F1         13.9040   15.6540   68.3540 F         1 NZF1501     0.0000 
     41 H          20.8347   10.3487   60.0740 H         1 NZF1501     0.0000 
     42 H          24.7728    8.9225   60.1634 H         1 NZF1501     0.0000 
     43 H          24.2463   10.4722   61.6117 H         1 NZF1501     0.0000 
     44 H          23.3790   14.4511   63.3477 H         1 NZF1501     0.0000 
     45 H          21.2935   15.1854   62.3922 H         1 NZF1501     0.0000 
     46 H          18.9185   15.6986   60.1495 H         1 NZF1501     0.0000 
     47 H          19.7317   15.6550   61.7233 H         1 NZF1501     0.0000 
     48 H          19.7159   12.0260   59.5455 H         1 NZF1501     0.0000 
     49 H          18.9229   13.4023   58.7600 H         1 NZF1501     0.0000 
     50 H          18.0049   11.9541   61.2551 H         1 NZF1501     0.0000 
     51 H          17.2192   11.9335   59.6670 H         1 NZF1501     0.0000 
     52 H          16.0892   13.5049   61.2163 H         1 NZF1501     0.0000 
     53 H          16.7864   14.3504   59.8238 H         1 NZF1501     0.0000 
     54 H          18.0493   14.1317   62.5792 H         1 NZF1501     0.0000 
     55 H          17.2386   15.4288   64.0884 H         1 NZF1501     0.0000 
     56 H          15.0424   17.0870   63.8212 H         1 NZF1501     0.0000 
     57 H          16.3968   18.1562   63.4184 H         1 NZF1501     0.0000 
     58 H          14.4350   17.4371   66.0739 H         1 NZF1501     0.0000 
     59 H          18.5060   17.4078   65.0979 H         1 NZF1501     0.0000 
     60 H          19.0675   17.6605   67.4304 H         1 NZF1501     0.0000 
     61 H          17.3178   17.8186   69.0888 H         1 NZF1501     0.0000 
     62 H          19.0275    7.5766   59.9598 H         1 NZF1501     0.0000 
     63 H          18.8922    9.1731   60.0976 H         1 NZF1501     0.0000 
     64 H          17.9580    8.3735   59.0613 H         1 NZF1501     0.0000 
     65 H          23.3994    7.0132   56.2528 H         1 NZF1501     0.0000 
     66 H          22.1767    6.1756   55.6286 H         1 NZF1501     0.0000 
     67 H          22.0411    7.7649   55.8334 H         1 NZF1501     0.0000 
     68 H          26.1288    6.1758   59.3578 H         1 NZF1501     0.0000 
     69 H          25.8374    7.6797   59.8474 H         1 NZF1501     0.0000 
     70 H          24.9795    6.4584   60.4466 H         1 NZF1501     0.0000 
@<TRIPOS>BOND
     1    2    1 1    
     2   62    1 1    
     3   63    1 1    
     4   64    1 1    
     5    3    2 1    
     6    4    3 ar   
     7    5    3 ar   
     8   12    4 ar   
     9   41    4 1    
    10    6    5 1    
    11    8    5 ar   
    12    7    6 1    
    13   65    7 1    
    14   66    7 1    
    15   67    7 1    
    16    9    8 1    
    17   11    8 ar   
    18   10    9 1    
    19   68   10 1    
    20   69   10 1    
    21   70   10 1    
    22   12   11 ar   
    23   42   11 1    
    24   13   12 1    
    25   14   13 1    
    26   43   13 1    
    27   15   14 ar   
    28   16   14 ar   
    29   19   15 ar   
    30   17   16 ar   
    31   18   17 ar   
    32   44   17 1    
    33   19   18 ar   
    34   45   18 1    
    35   20   19 1    
    36   21   20 1    
    37   22   20 1    
    38   25   21 1    
    39   46   21 1    
    40   47   21 1    
    41   23   22 1    
    42   48   22 1    
    43   49   22 1    
    44   24   23 1    
    45   50   23 1    
    46   51   23 1    
    47   25   24 1    
    48   52   24 1    
    49   53   24 1    
    50   26   25 1    
    51   54   25 1    
    52   27   26 2    
    53   28   26 am   
    54   29   28 1    
    55   55   28 1    
    56   30   29 1    
    57   56   29 1    
    58   57   29 1    
    59   31   30 ar   
    60   32   30 ar   
    61   35   31 ar   
    62   58   31 1    
    63   33   32 ar   
    64   59   32 1    
    65   34   33 ar   
    66   60   33 1    
    67   35   34 ar   
    68   61   34 1    
    69   36   35 1    
    70   37   36 1    
    71   38   37 1    
    72   39   37 1    
    73   40   37 1    
@<TRIPOS>SUBSTRUCTURE
     1 NZF1501     1 GROUP   
@<TRIPOS>SET

