#    Name: 1tka_N3T_1_INTS_M
#    Modification time : Tue Mar 25 05:22:32 2014

@<TRIPOS>MOLECULE
1tka_N3T_1_INTS_M
   68     0     9     0     0
SMALL
NO_CHARGES


@<TRIPOS>ATOM
      1 CA         -0.5185   59.3580   19.1655 C.3       3 GLC5        0.0000 
      2 CA         -1.1050   60.3640   20.9750 C.3       9 GLL5        0.0000 
      3 CA          0.0680   58.3520   17.3560 C.3       6 GLP5        0.0000 
      4 CA         -1.7840   60.3475   22.7510 C.3       3 GLC5        0.0000 
      5 CA         -2.4630   60.3310   24.5270 C.3       6 GLP5        0.0000 
      6 CA          0.5095   60.9825   21.3315 C.3       3 GLC5        0.0000 
      7 CA          2.1240   61.6010   21.6880 C.3       6 GLP5        0.0000 
      8 O          -3.4315   56.0320   20.3025 O.2       1 ALC1        0.0000 
      9 O          -4.3140   56.9930   19.8450 O.2       7 ALL1        0.0000 
     10 O          -2.5490   55.0710   20.7600 O.2       4 ALP1        0.0000 
     11 CA         -3.4555   58.8950   17.6765 C.3       3 GLC5        0.0000 
     12 CA         -4.8760   59.2250   19.3500 C.3       9 GLL5        0.0000 
     13 CA         -2.0350   58.5650   16.0030 C.3       6 GLP5        0.0000 
     14 CA         -3.2045   61.2700   17.8110 C.3       3 GLC5        0.0000 
     15 CA         -4.4510   60.4920   19.3840 C.3       9 GLL5        0.0000 
     16 CA         -1.9580   62.0480   16.2380 C.3       6 GLP5        0.0000 
     17 CA         -7.5890   58.7215   16.9715 C.3       3 GLC5        0.0000 
     18 CA         -6.1160   58.8440   18.5940 C.3       9 GLL5        0.0000 
     19 CA         -9.0620   58.5990   15.3490 C.3       6 GLP5        0.0000 
     20 CA         -5.3695   54.4880   15.4395 C.3       3 GLC5        0.0000 
     21 CA         -5.4750   56.5790   15.3350 C.3       9 GLL5        0.0000 
     22 CA         -5.2640   52.3970   15.5440 C.3       6 GLP5        0.0000 
     23 CA         -7.6340   59.5205   15.7800 C.3       3 GLC5        0.0000 
     24 CA         -6.2060   60.4420   16.2110 C.3       9 GLL5        0.0000 
     25 CA         -6.4955   61.9615   15.1340 C.3       3 GLC5        0.0000 
     26 CA         -6.7850   63.4810   14.0570 C.3       6 GLP5        0.0000 
     27 CA         -8.1240   60.7985   17.1820 C.3       3 GLC5        0.0000 
     28 CA        -10.0420   61.1550   18.1530 C.3       6 GLP5        0.0000 
     29 CA         -4.8230   61.1790   15.2940 C.3       3 GLC5        0.0000 
     30 CA         -3.4400   61.9160   14.3770 C.3       6 GLP5        0.0000 
     31 N          -1.5340   57.2435   11.6360 N.am      2 SEC2        0.0000 
     32 N          -2.3340   55.7430   11.8510 N.am      8 SEL2        0.0000 
     33 N          -0.7340   58.7440   11.4210 N.am      5 SEP2        0.0000 
     34 N          -1.9170   56.9060    9.6665 N.am      2 SEC2        0.0000 
     35 N          -3.6030   56.8090    9.9410 N.am      8 SEL2        0.0000 
     36 N          -0.2310   57.0030    9.3920 N.am      5 SEP2        0.0000 
     37 N          -3.0215   56.9385    8.6145 N.am      2 SEC2        0.0000 
     38 N          -2.4400   57.0680    7.2880 N.am      5 SEP2        0.0000 
     39 N          -4.4175   54.9105    7.7660 N.am      2 SEC2        0.0000 
     40 N          -4.6650   54.5610    9.0580 N.am      8 SEL2        0.0000 
     41 N          -4.1700   55.2600    6.4740 N.am      5 SEP2        0.0000 
     42 N          -7.5375   55.1260   10.9000 N.am      2 SEC2        0.0000 
     43 N          -6.7270   55.4710    9.9490 N.am      8 SEL2        0.0000 
     44 N          -8.3480   54.7810   11.8510 N.am      5 SEP2        0.0000 
     45 N          -5.7175   52.9415   12.0335 N.am      2 SEC2        0.0000 
     46 N          -6.0780   53.2010   10.6490 N.am      8 SEL2        0.0000 
     47 N          -5.3570   52.6820   13.4180 N.am      5 SEP2        0.0000 
     48 N          -7.2130   53.9910   11.2500 N.am      2 SEC2        0.0000 
     49 CA         -1.2635   57.9361   21.1324 C.3       3 GLC5        0.0000 
     50 CA         -2.7080   58.5800   20.3080 C.3       9 GLL5        0.0000 
     51 CA         -0.3010   56.5120   21.7700 C.3       6 GLP5        0.0000 
     52 CA         -2.3026   58.2469   18.5757 C.3       3 GLC5        0.0000 
     53 CA         -1.3150   57.7370   17.0130 C.3       6 GLP5        0.0000 
     54 CA         -3.8095   57.6600   16.0793 C.3       3 GLC5        0.0000 
     55 CA         -5.6930   56.9310   16.9760 C.3       9 GLL5        0.0000 
     56 CA         -4.5678   60.2687   14.9667 C.3       3 GLC5        0.0000 
     57 CA         -5.8110   58.9910   16.1300 C.3       9 GLL5        0.0000 
     58 CA         -3.8651   58.6224   15.2814 C.3       3 GLC5        0.0000 
     59 CA         -5.5800   58.2520   14.9830 C.3       9 GLL5        0.0000 
     60 CA         -5.9272   59.1965   11.3815 C.3       3 GLC5        0.0000 
     61 CA         -5.6950   58.7380   13.5630 C.3       9 GLL5        0.0000 
     62 CA         -6.2600   60.1250    9.7700 C.3       6 GLP5        0.0000 
     63 CA         -7.4558   58.4290   13.4240 C.3       3 GLC5        0.0000 
     64 CA         -5.4940   57.7980   12.4230 C.3       9 GLL5        0.0000 
     65 CA         -9.3170   58.5900   13.8550 C.3       6 GLP5        0.0000 
     66 CA         -4.5442   60.0305   12.9275 C.3       3 GLC5        0.0000 
     67 CA         -3.4940   61.7930   12.8620 C.3       6 GLP5        0.0000 
     68 CA         -7.3509   58.1436   15.6025 C.3       3 GLC5        0.0000 
@<TRIPOS>BOND
@<TRIPOS>SUBSTRUCTURE
     1 ALC1        8 GROUP        1 X    ALC  0     ROOT ALC X 1
     2 SEC2       31 GROUP        1 X    SEC  0     **** SEC X 2
     3 GLC5        1 GROUP        1 X    GLC  0     **** GLC X 6
     4 ALP1       10 GROUP        1 Y    ALP  0     ROOT ALP Y 8
     5 SEP2       33 GROUP        1 Y    SEP  0     **** SEP Y 9
     6 GLP5        3 GROUP        1 Y    GLP  0     **** GLP Y 13
     7 ALL1        9 GROUP        1 Z    ALL  0     ROOT ALL Z 15
     8 SEL2       32 GROUP        1 Z    SEL  0     **** SEL Z 16
     9 GLL5        2 GROUP        1 Z    GLL  0     **** GLL Z 20
@<TRIPOS>SET

