#    Name: 1tka_N3T_1_ligand
#    Modification time : Tue Mar 25 05:22:32 2014

@<TRIPOS>MOLECULE
1tka_N3T_1_ligand
   43    44     1     0     0
SMALL
NO_CHARGES


@<TRIPOS>ATOM
      1 N1'        -3.2320   60.8370   19.8970 N.ar      1 N3T681      0.0000 
      2 C2'        -2.3830   59.9170   20.3880 C.ar      1 N3T681      0.0000 
      3 CM2        -1.1050   60.3640   20.9750 C.3       1 N3T681      0.0000 
      4 C3'        -2.7080   58.5800   20.3080 C.ar      1 N3T681      0.0000 
      5 C4'        -4.0350   58.2650   19.9290 C.ar      1 N3T681      0.0000 
      6 N4'        -4.3140   56.9930   19.8450 N.pl3     1 N3T681      0.0000 
      7 C5'        -4.8760   59.2250   19.3500 C.ar      1 N3T681      0.0000 
      8 C6'        -4.4510   60.4920   19.3840 C.ar      1 N3T681      0.0000 
      9 C7'        -6.1160   58.8440   18.5940 C.3       1 N3T681      0.0000 
     10 N3         -5.8050   58.2460   17.2260 N.pl3     1 N3T681      0.0000 
     11 C2         -5.6930   56.9310   16.9760 C.2       1 N3T681      0.0000 
     12 S1         -5.4750   56.5790   15.3350 S.3       1 N3T681      0.0000 
     13 C5         -5.5800   58.2520   14.9830 C.2       1 N3T681      0.0000 
     14 C4         -5.8110   58.9910   16.1300 C.2       1 N3T681      0.0000 
     15 CM4        -6.2060   60.4420   16.2110 C.3       1 N3T681      0.0000 
     16 C6         -5.6950   58.7380   13.5630 C.3       1 N3T681      0.0000 
     17 C7         -5.4940   57.7980   12.4230 C.3       1 N3T681      0.0000 
     18 O7         -4.0890   57.4670   12.3610 O.3       1 N3T681      0.0000 
     19 PA         -3.6290   56.3160   11.3770 P.3       1 N3T681      0.0000 
     20 O1A        -2.3340   55.7430   11.8510 O.co2     1 N3T681      0.0000 
     21 O2A        -3.6030   56.8090    9.9410 O.co2     1 N3T681      0.0000 
     22 O3A        -4.7410   55.1390   11.3460 O.3       1 N3T681      0.0000 
     23 PB         -5.6430   54.5090   10.1780 P.3       1 N3T681      0.0000 
     24 O1B        -4.6650   54.5610    9.0580 O.co2     1 N3T681      0.0000 
     25 O2B        -6.7270   55.4710    9.9490 O.co2     1 N3T681      0.0000 
     26 O3B        -6.0780   53.2010   10.6490 O.co2     1 N3T681      0.0000 
     27 H          -2.0470   57.8497   20.5058 H         1 N3T681      0.0000 
     28 H          -5.2493   56.7646   19.5746 H         1 N3T681      0.0000 
     29 H          -3.5669   56.3636   20.0587 H         1 N3T681      0.0000 
     30 H          -5.0679   61.2609   19.0052 H         1 N3T681      0.0000 
     31 H          -6.7517   59.7300   18.4555 H         1 N3T681      0.0000 
     32 H          -6.6938   58.1121   19.1760 H         1 N3T681      0.0000 
     33 H          -5.7102   56.1573   17.5244 H         1 N3T681      0.0000 
     34 H          -4.9822   59.6167   13.4351 H         1 N3T681      0.0000 
     35 H          -6.7126   59.2351   13.4446 H         1 N3T681      0.0000 
     36 H          -5.8228   58.2793   11.5014 H         1 N3T681      0.0000 
     37 H          -6.0987   56.9053   12.5858 H         1 N3T681      0.0000 
     38 H          -0.5608   59.5947   21.3097 H         1 N3T681      0.0000 
     39 H          -0.5418   60.8539   20.3095 H         1 N3T681      0.0000 
     40 H          -1.2475   60.9809   21.7490 H         1 N3T681      0.0000 
     41 H          -5.6016   60.9581   16.8179 H         1 N3T681      0.0000 
     42 H          -6.1720   60.8867   15.3160 H         1 N3T681      0.0000 
     43 H          -7.1367   60.5547   16.5591 H         1 N3T681      0.0000 
@<TRIPOS>BOND
     1    2    1 ar   
     2    8    1 ar   
     3    3    2 1    
     4    4    2 ar   
     5   38    3 1    
     6   39    3 1    
     7   40    3 1    
     8    5    4 ar   
     9   27    4 1    
    10    6    5 1    
    11    7    5 ar   
    12   28    6 1    
    13   29    6 1    
    14    8    7 ar   
    15    9    7 1    
    16   30    8 1    
    17   10    9 1    
    18   31    9 1    
    19   32    9 1    
    20   11   10 2    
    21   14   10 1    
    22   12   11 1    
    23   33   11 1    
    24   13   12 1    
    25   14   13 2    
    26   16   13 1    
    27   15   14 1    
    28   41   15 1    
    29   42   15 1    
    30   43   15 1    
    31   17   16 1    
    32   34   16 1    
    33   35   16 1    
    34   18   17 1    
    35   36   17 1    
    36   37   17 1    
    37   19   18 1    
    38   20   19 ar   
    39   21   19 ar   
    40   22   19 1    
    41   23   22 1    
    42   24   23 ar   
    43   25   23 ar   
    44   26   23 ar   
@<TRIPOS>SUBSTRUCTURE
     1 N3T681      1 GROUP   
@<TRIPOS>SET

