#    Name: 3rin_I2O_1_INTS_M
#    Modification time : Tue Mar 25 11:33:55 2014

@<TRIPOS>MOLECULE
3rin_I2O_1_INTS_M
   96     0     9     0     0
SMALL
NO_CHARGES


@<TRIPOS>ATOM
      1 CA          8.7250   30.5425   31.8495 C.3       3 GLC5        0.0000 
      2 CA          6.7160   30.3910   30.9070 C.3       9 GLL5        0.0000 
      3 CA         10.7340   30.6940   32.7920 C.3       6 GLP5        0.0000 
      4 CA          3.0855   30.6730   28.0600 C.3       3 GLC5        0.0000 
      5 CA          4.4290   29.7660   29.4330 C.3       9 GLL5        0.0000 
      6 CA          1.7420   31.5800   26.6870 C.3       6 GLP5        0.0000 
      7 CA          5.5375   28.0605   31.0645 C.3       3 GLC5        0.0000 
      8 CA          5.6370   29.1050   29.1050 C.3       9 GLL5        0.0000 
      9 CA          5.4380   27.0160   33.0240 C.3       6 GLP5        0.0000 
     10 CA          5.9440   30.2055   27.2460 C.3       3 GLC5        0.0000 
     11 CA          6.2510   31.3060   25.3870 C.3       6 GLP5        0.0000 
     12 CA          7.1995   31.5020   29.6490 C.3       3 GLC5        0.0000 
     13 CA          6.7980   29.4660   29.8580 C.3       9 GLL5        0.0000 
     14 CA          7.6010   33.5380   29.4400 C.3       6 GLP5        0.0000 
     15 CA          3.8505   32.0920   33.8905 C.3       3 GLC5        0.0000 
     16 CA          5.4150   32.0470   32.3830 C.3       9 GLL5        0.0000 
     17 CA          2.2860   32.1370   35.3980 C.3       6 GLP5        0.0000 
     18 CA          4.4115   33.4955   32.8210 C.3       3 GLC5        0.0000 
     19 CA          3.4080   34.9440   33.2590 C.3       6 GLP5        0.0000 
     20 CA          6.5080   32.7925   30.9115 C.3       3 GLC5        0.0000 
     21 O           7.2965   26.6515   29.0935 O.2       1 ALC1        0.0000 
     22 O           6.6040   27.1490   27.8530 O.2       7 ALL1        0.0000 
     23 O           7.9890   26.1540   30.3340 O.2       4 ALP1        0.0000 
     24 CA          8.1920   28.6400   25.9990 C.3       3 GLC5        0.0000 
     25 CA          7.0640   27.0440   25.3930 C.3       9 GLL5        0.0000 
     26 CA          9.3200   30.2360   26.6050 C.3       6 GLP5        0.0000 
     27 CA          6.6575   29.1750   25.3900 C.3       3 GLC5        0.0000 
     28 CA          9.6955   25.8250   24.8055 C.3       3 GLC5        0.0000 
     29 CA          8.0390   26.0590   26.0350 C.3       9 GLL5        0.0000 
     30 CA         11.3520   25.5910   23.5760 C.3       6 GLP5        0.0000 
     31 CA          9.1740   27.6370   26.5635 C.3       3 GLC5        0.0000 
     32 CA         10.3090   29.2150   27.0920 C.3       6 GLP5        0.0000 
     33 N           4.2400   27.7015   25.9855 N.am      2 SEC2        0.0000 
     34 N           4.9850   28.3140   26.9170 N.am      8 SEL2        0.0000 
     35 N           3.4950   27.0890   25.0540 N.am      5 SEP2        0.0000 
     36 CA          3.8255   32.8530   28.3590 C.3       3 GLC5        0.0000 
     37 CA          2.8580   32.6150   30.3220 C.3       9 GLL5        0.0000 
     38 CA          4.7930   33.0910   26.3960 C.3       6 GLP5        0.0000 
     39 CA          1.4850   31.7185   33.4125 C.3       3 GLC5        0.0000 
     40 CA          0.6840   31.3000   31.4270 C.3       9 GLL5        0.0000 
     41 CA          2.3520   30.1915   33.2420 C.3       3 GLC5        0.0000 
     42 CA          1.9180   30.6260   31.2740 C.3       9 GLL5        0.0000 
     43 CA          2.7860   29.7570   35.2100 C.3       6 GLP5        0.0000 
     44 O           2.4100   35.7480   29.9020 O.2       1 ALC1        0.0000 
     45 O           1.3940   34.5770   30.1080 O.2       7 ALL1        0.0000 
     46 O           3.4260   36.9190   29.6960 O.2       4 ALP1        0.0000 
     47 N          -0.3265   37.2260   29.7200 N.am      2 SEC2        0.0000 
     48 N          -0.4430   35.9340   30.0910 N.am      8 SEL2        0.0000 
     49 N          -0.2100   38.5180   29.3490 N.am      5 SEP2        0.0000 
     50 N          -1.5420   37.0925   30.1720 N.am      2 SEC2        0.0000 
     51 N          -2.6410   38.2510   30.2530 N.am      5 SEP2        0.0000 
     52 CA         -3.2165   36.4090   31.5580 C.3       3 GLC5        0.0000 
     53 CA         -2.6690   34.4630   31.9370 C.3       9 GLL5        0.0000 
     54 CA         -3.7640   38.3550   31.1790 C.3       6 GLP5        0.0000 
     55 CA         -1.4595   33.6965   28.1845 C.3       3 GLC5        0.0000 
     56 CA         -1.7830   33.2770   30.0470 C.3       9 GLL5        0.0000 
     57 CA         -1.1360   34.1160   26.3220 C.3       6 GLP5        0.0000 
     58 CA         -0.8895   31.7295   28.8125 C.3       3 GLC5        0.0000 
     59 CA          0.0040   30.1820   27.5780 C.3       6 GLP5        0.0000 
     60 CA          6.7810   28.6817   31.9367 C.3       3 GLC5        0.0000 
     61 CA          6.8050   27.4350   33.4910 C.3       6 GLP5        0.0000 
     62 CA          8.4940   29.5308   29.4817 C.3       3 GLC5        0.0000 
     63 CA         10.2310   29.1330   28.5810 C.3       6 GLP5        0.0000 
     64 CA          6.0330   30.5652   33.3785 C.3       3 GLC5        0.0000 
     65 CA          5.4810   31.0160   31.2310 C.3       9 GLL5        0.0000 
     66 CA          6.6180   29.5990   34.9500 C.3       6 GLP5        0.0000 
     67 CA          6.4051   32.1206   30.1100 C.3       3 GLC5        0.0000 
     68 CA          8.6152   25.7828   27.7538 C.3       3 GLC5        0.0000 
     69 CA          6.6480   26.3060   26.6740 C.3       9 GLL5        0.0000 
     70 CA          9.8870   25.3830   29.1530 C.3       6 GLP5        0.0000 
     71 CA          5.2080   26.1440   25.5587 C.3       3 GLC5        0.0000 
     72 CA          3.5600   25.6130   25.0840 C.3       6 GLP5        0.0000 
     73 CA          7.8722   27.2393   24.1005 C.3       3 GLC5        0.0000 
     74 CA          8.1930   27.9270   22.4870 C.3       6 GLP5        0.0000 
     75 CA          7.8613   24.7975   26.5606 C.3       3 GLC5        0.0000 
     76 CA          8.2750   23.2280   27.0870 C.3       6 GLP5        0.0000 
     77 CA          3.1765   33.4505   31.8927 C.3       3 GLC5        0.0000 
     78 CA          3.0320   31.2990   30.7310 C.3       9 GLL5        0.0000 
     79 CA          2.2615   33.9652   31.9977 C.3       3 GLC5        0.0000 
     80 CA          1.6660   33.3110   30.4610 C.3       9 GLL5        0.0000 
     81 CA          2.0237   32.1070   28.5904 C.3       3 GLC5        0.0000 
     82 CA          0.5085   29.6175   32.4093 C.3       3 GLC5        0.0000 
     83 CA         -0.2840   28.2720   33.4680 C.3       6 GLP5        0.0000 
     84 CA          0.6375   30.7428   29.4124 C.3       3 GLC5        0.0000 
     85 CA         -1.6292   33.9375   34.1220 C.3       3 GLC5        0.0000 
     86 CA         -1.2500   34.0470   32.3570 C.3       9 GLL5        0.0000 
     87 CA         -1.2990   33.6200   36.0970 C.3       6 GLP5        0.0000 
     88 CA         -2.5797   32.5075   32.6880 C.3       3 GLC5        0.0000 
     89 CA         -3.2000   30.7600   33.2290 C.3       6 GLP5        0.0000 
     90 CA         -0.7241   35.7027   32.6645 C.3       3 GLC5        0.0000 
     91 CA          0.3500   37.2360   33.5230 C.3       6 GLP5        0.0000 
     92 CA         -4.4255   34.7212   30.6878 C.3       3 GLC5        0.0000 
     93 CA         -5.9970   35.5130   29.9430 C.3       6 GLP5        0.0000 
     94 CA         -3.1000   31.8478   31.2668 C.3       3 GLC5        0.0000 
     95 CA         -3.0390   33.3960   30.9280 C.3       9 GLL5        0.0000 
     96 CA         -3.7890   30.3590   32.0460 C.3       6 GLP5        0.0000 
@<TRIPOS>BOND
@<TRIPOS>SUBSTRUCTURE
     1 ALC1       21 GROUP        1 X    ALC  0     ROOT ALC X 1
     2 SEC2       33 GROUP        1 X    SEC  0     **** SEC X 2
     3 GLC5        1 GROUP        1 X    GLC  0     **** GLC X 6
     4 ALP1       23 GROUP        1 Y    ALP  0     ROOT ALP Y 8
     5 SEP2       35 GROUP        1 Y    SEP  0     **** SEP Y 9
     6 GLP5        3 GROUP        1 Y    GLP  0     **** GLP Y 13
     7 ALL1       22 GROUP        1 Z    ALL  0     ROOT ALL Z 15
     8 SEL2       34 GROUP        1 Z    SEL  0     **** SEL Z 16
     9 GLL5        2 GROUP        1 Z    GLL  0     **** GLL Z 20
@<TRIPOS>SET

