#    Name: 3rin_I2O_1_ligand
#    Modification time : Tue Mar 25 11:33:55 2014

@<TRIPOS>MOLECULE
3rin_I2O_1_ligand
   51    55     1     0     0
SMALL
NO_CHARGES


@<TRIPOS>ATOM
      1 CAA         6.7160   30.3910   30.9070 C.ar      1 I2O401      0.0000 
      2 CAB         5.4810   31.0160   31.2310 C.ar      1 I2O401      0.0000 
      3 CAC         4.3200   30.7030   30.4910 C.ar      1 I2O401      0.0000 
      4 CAD         4.4290   29.7660   29.4330 C.ar      1 I2O401      0.0000 
      5 CAE         5.6370   29.1050   29.1050 C.ar      1 I2O401      0.0000 
      6 CAF         6.7980   29.4660   29.8580 C.ar      1 I2O401      0.0000 
      7 CAG         5.4150   32.0470   32.3830 C.3       1 I2O401      0.0000 
      8 CAH         5.6950   28.1280   27.8940 C.2       1 I2O401      0.0000 
      9 NAI         6.6040   27.1490   27.8530 N.am      1 I2O401      0.0000 
     10 CAJ         6.6480   26.3060   26.6740 C.3       1 I2O401      0.0000 
     11 CAK         7.0640   27.0440   25.3930 C.3       1 I2O401      0.0000 
     12 CAL         8.0390   26.0590   26.0350 C.3       1 I2O401      0.0000 
     13 OAM         4.9850   28.3140   26.9170 O.2       1 I2O401      0.0000 
     14 CAN         3.0320   31.2990   30.7310 C.ar      1 I2O401      0.0000 
     15 CAO         2.8580   32.6150   30.3220 C.ar      1 I2O401      0.0000 
     16 CAP         1.6660   33.3110   30.4610 C.ar      1 I2O401      0.0000 
     17 CAQ         0.5640   32.6620   31.0120 C.ar      1 I2O401      0.0000 
     18 CAR         0.6840   31.3000   31.4270 C.ar      1 I2O401      0.0000 
     19 CAS         1.9180   30.6260   31.2740 C.ar      1 I2O401      0.0000 
     20 NAT         1.3940   34.5770   30.1080 N.am      1 I2O401      0.0000 
     21 CAU         0.1070   34.8740   30.3620 C.2       1 I2O401      0.0000 
     22 CAV        -0.6050   33.7050   30.9930 C.3       1 I2O401      0.0000 
     23 OAW        -0.4430   35.9340   30.0910 O.2       1 I2O401      0.0000 
     24 CAX        -1.2500   34.0470   32.3570 C.3       1 I2O401      0.0000 
     25 CAY        -2.6690   34.4630   31.9370 C.3       1 I2O401      0.0000 
     26 CAZ        -3.0390   33.3960   30.9280 C.3       1 I2O401      0.0000 
     27 CBA        -1.7830   33.2770   30.0470 C.3       1 I2O401      0.0000 
     28 H           7.5529   30.6263   31.4537 H         1 I2O401      0.0000 
     29 H           3.5779   29.5539   28.8696 H         1 I2O401      0.0000 
     30 H           7.6975   29.0346   29.6168 H         1 I2O401      0.0000 
     31 H           7.2675   26.9581   28.5978 H         1 I2O401      0.0000 
     32 H           6.0985   25.5895   26.3944 H         1 I2O401      0.0000 
     33 H           7.3301   27.9162   25.6433 H         1 I2O401      0.0000 
     34 H           6.6483   26.6045   24.6663 H         1 I2O401      0.0000 
     35 H           7.9795   25.2472   25.5595 H         1 I2O401      0.0000 
     36 H           8.6613   26.5589   26.5366 H         1 I2O401      0.0000 
     37 H           3.6774   33.1117   29.8817 H         1 I2O401      0.0000 
     38 H          -0.1178   30.8232   31.8297 H         1 I2O401      0.0000 
     39 H           2.0008   29.6473   31.5587 H         1 I2O401      0.0000 
     40 H           2.0439   35.2016   29.7179 H         1 I2O401      0.0000 
     41 H          -0.7500   34.8631   32.7872 H         1 I2O401      0.0000 
     42 H          -1.2912   33.1839   32.9523 H         1 I2O401      0.0000 
     43 H          -2.6344   35.4111   31.4733 H         1 I2O401      0.0000 
     44 H          -3.3111   34.4159   32.7739 H         1 I2O401      0.0000 
     45 H          -3.8554   33.7185   30.3335 H         1 I2O401      0.0000 
     46 H          -3.2137   32.4716   31.4168 H         1 I2O401      0.0000 
     47 H          -1.6380   32.2728   29.7537 H         1 I2O401      0.0000 
     48 H          -1.8382   33.9571   29.2408 H         1 I2O401      0.0000 
     49 H           5.6910   31.6460   33.2565 H         1 I2O401      0.0000 
     50 H           6.0158   32.8289   32.2165 H         1 I2O401      0.0000 
     51 H           4.4907   32.4085   32.5054 H         1 I2O401      0.0000 
@<TRIPOS>BOND
     1    2    1 ar   
     2    6    1 ar   
     3   28    1 1    
     4    3    2 ar   
     5    7    2 1    
     6    4    3 ar   
     7   14    3 1    
     8    5    4 ar   
     9   29    4 1    
    10    6    5 ar   
    11    8    5 1    
    12   30    6 1    
    13   49    7 1    
    14   50    7 1    
    15   51    7 1    
    16    9    8 am   
    17   13    8 2    
    18   10    9 1    
    19   31    9 1    
    20   11   10 1    
    21   12   10 1    
    22   32   10 1    
    23   12   11 1    
    24   33   11 1    
    25   34   11 1    
    26   35   12 1    
    27   36   12 1    
    28   15   14 ar   
    29   19   14 ar   
    30   16   15 ar   
    31   37   15 1    
    32   17   16 ar   
    33   20   16 1    
    34   18   17 ar   
    35   22   17 1    
    36   19   18 ar   
    37   38   18 1    
    38   39   19 1    
    39   21   20 am   
    40   40   20 1    
    41   22   21 1    
    42   23   21 2    
    43   24   22 1    
    44   27   22 1    
    45   25   24 1    
    46   41   24 1    
    47   42   24 1    
    48   26   25 1    
    49   43   25 1    
    50   44   25 1    
    51   27   26 1    
    52   45   26 1    
    53   46   26 1    
    54   47   27 1    
    55   48   27 1    
@<TRIPOS>SUBSTRUCTURE
     1 I2O401      1 GROUP   
@<TRIPOS>SET

