#    Name: 1r78_FMD_1_INTS_M
#    Modification time : Tue Mar 25 00:26:23 2014

@<TRIPOS>MOLECULE
1r78_FMD_1_INTS_M
   69     0     9     0     0
SMALL
NO_CHARGES


@<TRIPOS>ATOM
      1 CA         18.7310   -6.4170   11.9665 C.3       3 GLC5        0.0000 
      2 CA         16.8200   -6.2940   12.7790 C.3       9 GLL5        0.0000 
      3 CA         20.6420   -6.5400   11.1540 C.3       6 GLP5        0.0000 
      4 O          15.4420   -4.1870    9.4510 O.2       1 ALC1        0.0000 
      5 O          14.1610   -4.6110    9.1400 O.2       7 ALL1        0.0000 
      6 O          16.7230   -3.7630    9.7620 O.2       4 ALP1        0.0000 
      7 CA         16.6175   -6.1420    7.7795 C.3       3 GLC5        0.0000 
      8 CA         14.6030   -6.7310    7.8620 C.3       9 GLL5        0.0000 
      9 CA         18.6320   -5.5530    7.6970 C.3       6 GLP5        0.0000 
     10 CA         14.3905   -8.3230    5.6470 C.3       3 GLC5        0.0000 
     11 CA         13.5260   -6.7260    6.7610 C.3       9 GLL5        0.0000 
     12 CA         15.2550   -9.9200    4.5330 C.3       6 GLP5        0.0000 
     13 O          15.5350   -6.1425    5.4395 O.2       1 ALC1        0.0000 
     14 O          14.0860   -6.7570    5.4410 O.2       7 ALL1        0.0000 
     15 O          16.9840   -5.5280    5.4380 O.2       4 ALP1        0.0000 
     16 CA         11.3055   -4.0665    6.7135 C.3       3 GLC5        0.0000 
     17 CA         12.5500   -5.5320    6.8670 C.3       9 GLL5        0.0000 
     18 CA         10.0610   -2.6010    6.5600 C.3       6 GLP5        0.0000 
     19 O          13.5350  -10.7220   16.2475 O.2       1 ALC1        0.0000 
     20 O          13.4400  -10.0330   14.9620 O.2       7 ALL1        0.0000 
     21 O          13.6300  -11.4110   17.5330 O.2       4 ALP1        0.0000 
     22 N          10.6550  -11.4925   15.1065 N.am      2 SEC2        0.0000 
     23 N          11.4920  -10.9640   14.1290 N.am      8 SEL2        0.0000 
     24 N           9.8180  -12.0210   16.0840 N.am      5 SEP2        0.0000 
     25 CA         15.6020   -6.8985   16.4010 C.3       3 GLC5        0.0000 
     26 CA         16.3660   -7.7200   14.6230 C.3       9 GLL5        0.0000 
     27 CA         14.8380   -6.0770   18.1790 C.3       6 GLP5        0.0000 
     28 CA         13.0925  -11.0840   11.7325 C.3       3 GLC5        0.0000 
     29 CA         12.8870   -9.2350   12.9440 C.3       9 GLL5        0.0000 
     30 CA         13.2980  -12.9330   10.5210 C.3       6 GLP5        0.0000 
     31 CA         14.0610  -10.9375   13.6220 C.3       3 GLC5        0.0000 
     32 CA         15.2350  -12.6400   14.3000 C.3       6 GLP5        0.0000 
     33 CA         11.4545   -9.7335    7.9605 C.3       3 GLC5        0.0000 
     34 CA         10.2500   -8.4690    7.6530 C.3       9 GLL5        0.0000 
     35 CA         12.6590  -10.9980    8.2680 C.3       6 GLP5        0.0000 
     36 CA          8.7815   -7.2545    8.6850 C.3       3 GLC5        0.0000 
     37 CA          7.3130   -6.0400    9.7170 C.3       6 GLP5        0.0000 
     38 CA         17.1910   -7.9290   11.4600 C.3       3 GLC5        0.0000 
     39 CA         16.0240   -7.2080   13.3630 C.3       9 GLL5        0.0000 
     40 CA         17.9600   -9.1070    9.8490 C.3       6 GLP5        0.0000 
     41 CA         16.3440   -4.9670   12.5585 C.3       3 GLC5        0.0000 
     42 CA         16.2660   -3.1830   12.0460 C.3       6 GLP5        0.0000 
     43 CA         15.5835   -9.5657   11.9398 C.3       3 GLC5        0.0000 
     44 CA         14.8770   -7.6070   12.6580 C.3       9 GLL5        0.0000 
     45 CA         16.7110  -11.0200   10.8900 C.3       6 GLP5        0.0000 
     46 CA         16.2085   -7.9560   10.3582 C.3       3 GLC5        0.0000 
     47 CA         14.5880   -7.0390   11.4020 C.3       9 GLL5        0.0000 
     48 CA         15.3615   -4.9940   11.4567 C.3       3 GLC5        0.0000 
     49 CA         14.2345   -8.5275   16.6495 C.3       3 GLC5        0.0000 
     50 CA         14.4160   -9.1250   14.6010 C.3       9 GLL5        0.0000 
     51 CA         13.4820   -8.1500   18.3710 C.3       6 GLP5        0.0000 
     52 CA         15.0634  -10.7089   14.4540 C.3       3 GLC5        0.0000 
     53 CA         15.5580   -8.6850   15.2550 C.3       9 GLL5        0.0000 
     54 CA         16.4143   -9.4617   16.0992 C.3       3 GLC5        0.0000 
     55 CA         17.1520  -10.6110   17.4230 C.3       6 GLP5        0.0000 
     56 CA         14.6311   -6.0564   14.5249 C.3       3 GLC5        0.0000 
     57 CA         13.3540   -4.5490   15.2330 C.3       6 GLP5        0.0000 
     58 CA         12.2871   -8.2184   14.2498 C.3       3 GLC5        0.0000 
     59 CA         11.0180   -7.3840   15.0470 C.3       6 GLP5        0.0000 
     60 CA         12.0898  -10.1312    9.8455 C.3       3 GLC5        0.0000 
     61 CA         12.1510   -9.0080   11.6890 C.3       9 GLL5        0.0000 
     62 CA         11.1528  -10.3097    9.1197 C.3       3 GLC5        0.0000 
     63 CA         10.2570   -9.2220    9.9660 C.3       9 GLL5        0.0000 
     64 CA          8.4797   -7.8308    9.8443 C.3       3 GLC5        0.0000 
     65 CA         10.3914   -7.9091   11.8138 C.3       3 GLC5        0.0000 
     66 CA          9.8940   -6.5750   12.9330 C.3       6 GLP5        0.0000 
     67 CA          7.0192  -10.1150   11.0622 C.3       3 GLC5        0.0000 
     68 CA          9.0360  -10.0210    9.9770 C.3       9 GLL5        0.0000 
     69 CA          5.0090   -9.8470   11.5730 C.3       6 GLP5        0.0000 
@<TRIPOS>BOND
@<TRIPOS>SUBSTRUCTURE
     1 ALC1        4 GROUP        1 X    ALC  0     ROOT ALC X 1
     2 SEC2       22 GROUP        1 X    SEC  0     **** SEC X 2
     3 GLC5        1 GROUP        1 X    GLC  0     **** GLC X 6
     4 ALP1        6 GROUP        1 Y    ALP  0     ROOT ALP Y 8
     5 SEP2       24 GROUP        1 Y    SEP  0     **** SEP Y 9
     6 GLP5        3 GROUP        1 Y    GLP  0     **** GLP Y 13
     7 ALL1        5 GROUP        1 Z    ALL  0     ROOT ALL Z 15
     8 SEL2       23 GROUP        1 Z    SEL  0     **** SEL Z 16
     9 GLL5        2 GROUP        1 Z    GLL  0     **** GLL Z 20
@<TRIPOS>SET

