#    Name: 1r78_FMD_1_ligand
#    Modification time : Tue Mar 25 00:26:23 2014

@<TRIPOS>MOLECULE
1r78_FMD_1_ligand
   49    51     1     0     0
SMALL
NO_CHARGES


@<TRIPOS>ATOM
      1 F17        16.8200   -6.2940   12.7790 F         1 FMD299      0.0000 
      2 C1         16.0240   -7.2080   13.3630 C.ar      1 FMD299      0.0000 
      3 C2         14.8770   -7.6070   12.6580 C.ar      1 FMD299      0.0000 
      4 C18        14.5880   -7.0390   11.4020 C.1       1 FMD299      0.0000 
      5 C19        14.3260   -6.5710   10.3330 C.1       1 FMD299      0.0000 
      6 C20        13.9630   -6.0270    9.0860 C.3       1 FMD299      0.0000 
      7 O27        14.1610   -4.6110    9.1400 O.3       1 FMD299      0.0000 
      8 C23        14.6030   -6.7310    7.8620 C.3       1 FMD299      0.0000 
      9 N28        15.0060   -8.1160    8.1400 N.4       1 FMD299      0.0000 
     10 C24        13.5260   -6.7260    6.7610 C.3       1 FMD299      0.0000 
     11 O26        14.0860   -6.7570    5.4410 O.3       1 FMD299      0.0000 
     12 C25        12.5500   -5.5320    6.8670 C.3       1 FMD299      0.0000 
     13 C3         14.0350   -8.6160   13.3210 C.ar      1 FMD299      0.0000 
     14 C4         14.4160   -9.1250   14.6010 C.ar      1 FMD299      0.0000 
     15 N9         13.4400  -10.0330   14.9620 N.am      1 FMD299      0.0000 
     16 C8         12.4300  -10.2030   13.9990 C.2       1 FMD299      0.0000 
     17 O10        11.4920  -10.9640   14.1290 O.2       1 FMD299      0.0000 
     18 C5         15.5580   -8.6850   15.2550 C.ar      1 FMD299      0.0000 
     19 C6         16.3660   -7.7200   14.6230 C.ar      1 FMD299      0.0000 
     20 C7         12.8870   -9.2350   12.9440 C.2       1 FMD299      0.0000 
     21 C11        12.1510   -9.0080   11.6890 C.2       1 FMD299      0.0000 
     22 C12        10.8900   -9.5210   11.1570 C.2       1 FMD299      0.0000 
     23 C13        10.2570   -9.2220    9.9660 C.2       1 FMD299      0.0000 
     24 O21        10.7020   -8.3290    9.0100 O.3       1 FMD299      0.0000 
     25 C22        10.2500   -8.4690    7.6530 C.3       1 FMD299      0.0000 
     26 C14         9.0360  -10.0210    9.9770 C.2       1 FMD299      0.0000 
     27 C15         9.0230  -10.7450   11.1260 C.2       1 FMD299      0.0000 
     28 N16        10.1410  -10.4580   11.8400 N.pl3     1 FMD299      0.0000 
     29 H          12.8392   -6.1935    8.9615 H         1 FMD299      0.0000 
     30 H          15.4200   -6.1357    7.5198 H         1 FMD299      0.0000 
     31 H          12.9065   -7.6383    6.9110 H         1 FMD299      0.0000 
     32 H          13.4402  -10.5252   15.8170 H         1 FMD299      0.0000 
     33 H          15.8139   -9.0451   16.1696 H         1 FMD299      0.0000 
     34 H          17.2188   -7.3876   15.0946 H         1 FMD299      0.0000 
     35 H          12.6615   -8.3016   11.0096 H         1 FMD299      0.0000 
     36 H           8.4044   -9.9975    9.2813 H         1 FMD299      0.0000 
     37 H           8.3304  -11.3635   11.3914 H         1 FMD299      0.0000 
     38 H          10.3851  -10.8406   12.6902 H         1 FMD299      0.0000 
     39 H          15.4140   -8.5522    7.3380 H         1 FMD299      0.0000 
     40 H          15.6812   -8.1657    8.8760 H         1 FMD299      0.0000 
     41 H          14.2285   -8.6806    8.4169 H         1 FMD299      0.0000 
     42 H          13.0264   -4.6556    6.7970 H         1 FMD299      0.0000 
     43 H          11.8612   -5.5499    6.1423 H         1 FMD299      0.0000 
     44 H          12.0589   -5.5299    7.7381 H         1 FMD299      0.0000 
     45 H          10.6381   -7.7653    7.0578 H         1 FMD299      0.0000 
     46 H          10.5064   -9.3546    7.2657 H         1 FMD299      0.0000 
     47 H           9.2551   -8.3956    7.5835 H         1 FMD299      0.0000 
     48 H          15.1186   -4.4935    9.4031 H         1 FMD299      0.0000 
     49 H          14.9795   -6.3167    5.5287 H         1 FMD299      0.0000 
@<TRIPOS>BOND
     1    2    1 1    
     2    3    2 ar   
     3   19    2 ar   
     4    4    3 1    
     5   13    3 ar   
     6    5    4 3    
     7    6    5 1    
     8    7    6 1    
     9    8    6 1    
    10   29    6 1    
    11   48    7 1    
    12    9    8 1    
    13   10    8 1    
    14   30    8 1    
    15   39    9 1    
    16   40    9 1    
    17   41    9 1    
    18   11   10 1    
    19   12   10 1    
    20   31   10 1    
    21   49   11 1    
    22   42   12 1    
    23   43   12 1    
    24   44   12 1    
    25   14   13 ar   
    26   20   13 1    
    27   15   14 1    
    28   18   14 ar   
    29   16   15 am   
    30   32   15 1    
    31   17   16 2    
    32   20   16 1    
    33   19   18 ar   
    34   33   18 1    
    35   34   19 1    
    36   21   20 2    
    37   22   21 1    
    38   35   21 1    
    39   23   22 2    
    40   28   22 1    
    41   24   23 1    
    42   26   23 1    
    43   25   24 1    
    44   45   25 1    
    45   46   25 1    
    46   47   25 1    
    47   27   26 2    
    48   36   26 1    
    49   28   27 1    
    50   37   27 1    
    51   38   28 1    
@<TRIPOS>SUBSTRUCTURE
     1 FMD299      1 GROUP   
@<TRIPOS>SET

