#    Name: 3ggj_25H_1_INTS_M
#    Modification time : Tue Mar 25 12:29:07 2014

@<TRIPOS>MOLECULE
3ggj_25H_1_INTS_M
   43     0     9     0     0
SMALL
NO_CHARGES


@<TRIPOS>ATOM
      1 O          18.2795   52.3565    6.0765 O.2       1 ALC1        0.0000 
      2 O          18.7860   53.5100    6.7100 O.2       7 ALL1        0.0000 
      3 O          17.7730   51.2030    5.4430 O.2       4 ALP1        0.0000 
      4 N          22.1635   54.7065    8.2480 N.am      2 SEC2        0.0000 
      5 N          21.0780   55.8700    8.4050 N.am      8 SEL2        0.0000 
      6 N          23.2490   53.5430    8.0910 N.am      5 SEP2        0.0000 
      7 CA         19.6335   53.9400    9.2480 C.3       3 GLC5        0.0000 
      8 CA         20.0710   55.2070    7.7790 C.3       9 GLL5        0.0000 
      9 CA         19.1960   52.6730   10.7170 C.3       6 GLP5        0.0000 
     10 N          22.8660   59.3820   12.9625 N.am      2 SEC2        0.0000 
     11 N          21.7210   60.0450   12.3500 N.am      8 SEL2        0.0000 
     12 N          24.0110   58.7190   13.5750 N.am      5 SEP2        0.0000 
     13 N          22.8355   60.8680   12.9085 N.am      2 SEC2        0.0000 
     14 N          23.9500   61.6910   13.4670 N.am      5 SEP2        0.0000 
     15 N          20.0740   62.5615   14.7960 N.am      2 SEC2        0.0000 
     16 N          20.2860   61.6220   13.7150 N.am      8 SEL2        0.0000 
     17 N          19.8620   63.5010   15.8770 N.am      5 SEP2        0.0000 
     18 N          19.1730   62.2950   13.6910 N.am      2 SEC2        0.0000 
     19 N          18.0600   62.9680   13.6670 N.am      5 SEP2        0.0000 
     20 N          22.0600   59.5635   15.2655 N.am      2 SEC2        0.0000 
     21 N          20.8850   59.3070   14.6200 N.am      8 SEL2        0.0000 
     22 N          23.2350   59.8200   15.9110 N.am      5 SEP2        0.0000 
     23 N          21.2395   57.9835   14.3290 N.am      2 SEC2        0.0000 
     24 N          21.5940   56.6600   14.0380 N.am      5 SEP2        0.0000 
     25 CA         18.3905   61.1545   13.8560 C.3       3 GLC5        0.0000 
     26 CA         19.1100   59.5380   12.6830 C.3       9 GLL5        0.0000 
     27 CA         17.6710   62.7710   15.0290 C.3       6 GLP5        0.0000 
     28 CA         15.8130   58.9525   10.4930 C.3       3 GLC5        0.0000 
     29 CA         17.7700   58.4770    9.6090 C.3       9 GLL5        0.0000 
     30 CA         13.8560   59.4280   11.3770 C.3       6 GLP5        0.0000 
     31 CA         17.2705   56.6345   10.4940 C.3       3 GLC5        0.0000 
     32 CA         16.7710   54.7920   11.3790 C.3       6 GLP5        0.0000 
     33 O          17.1895   52.6000    5.7245 O.2       1 ALC1        0.0000 
     34 O          16.6060   53.9970    6.0060 O.2       7 ALL1        0.0000 
     35 N          22.1090   53.3125    7.7575 N.am      2 SEC2        0.0000 
     36 N          20.9690   53.0820    7.4240 N.am      8 SEL2        0.0000 
     37 N          20.7585   51.7995    6.4960 N.am      2 SEC2        0.0000 
     38 N          20.5480   50.5170    5.5680 N.am      5 SEP2        0.0000 
     39 CA         19.2252   61.5108   11.3220 C.3       3 GLC5        0.0000 
     40 CA         19.3030   59.3850   11.1850 C.3       9 GLL5        0.0000 
     41 CA         19.2440   63.5600   10.7100 C.3       6 GLP5        0.0000 
     42 CA         20.8598   58.2623   11.8790 C.3       3 GLC5        0.0000 
     43 CA         22.5130   57.0630   11.8240 C.3       6 GLP5        0.0000 
@<TRIPOS>BOND
@<TRIPOS>SUBSTRUCTURE
     1 ALC1        1 GROUP        1 X    ALC  0     ROOT ALC X 1
     2 SEC2        4 GROUP        1 X    SEC  0     **** SEC X 2
     3 GLC5        7 GROUP        1 X    GLC  0     **** GLC X 6
     4 ALP1        3 GROUP        1 Y    ALP  0     ROOT ALP Y 8
     5 SEP2        6 GROUP        1 Y    SEP  0     **** SEP Y 9
     6 GLP5        9 GROUP        1 Y    GLP  0     **** GLP Y 13
     7 ALL1        2 GROUP        1 Z    ALL  0     ROOT ALL Z 15
     8 SEL2        5 GROUP        1 Z    SEL  0     **** SEL Z 16
     9 GLL5        8 GROUP        1 Z    GLL  0     **** GLL Z 20
@<TRIPOS>SET

