#    Name: 3ggj_25H_1_ligand
#    Modification time : Tue Mar 25 12:29:07 2014

@<TRIPOS>MOLECULE
3ggj_25H_1_ligand
   32    33     1     0     0
SMALL
NO_CHARGES


@<TRIPOS>ATOM
      1 N1         18.7860   53.5100    6.7100 N.am      1 25H218      0.0000 
      2 C8         20.6450   57.1360    8.6610 C.2       1 25H218      0.0000 
      3 C6         19.9500   53.9050    7.3010 C.2       1 25H218      0.0000 
      4 N7         21.0780   55.8700    8.4050 N.2       1 25H218      0.0000 
      5 C5         20.0710   55.2070    7.7790 C.2       1 25H218      0.0000 
      6 C2         17.7550   54.3900    6.5930 C.2       1 25H218      0.0000 
      7 OAD        21.7210   60.0450   12.3500 O.co2     1 25H218      0.0000 
      8 PAT        20.6430   60.1770   13.4040 P.3       1 25H218      0.0000 
      9 OAE        20.2860   61.6220   13.7150 O.co2     1 25H218      0.0000 
     10 OAC        20.8850   59.3070   14.6200 O.co2     1 25H218      0.0000 
     11 CAJ        19.1100   59.5380   12.6830 C.3       1 25H218      0.0000 
     12 CAH        19.3030   59.3850   11.1850 C.3       1 25H218      0.0000 
     13 OAN        18.5850   58.2240   10.7680 O.3       1 25H218      0.0000 
     14 CAG        17.7700   58.4770    9.6090 C.3       1 25H218      0.0000 
     15 CAI        18.5850   58.4850    8.3050 C.3       1 25H218      0.0000 
     16 N9         19.3860   57.2700    8.1990 N.pl3     1 25H218      0.0000 
     17 C4         19.0000   56.0900    7.6490 C.2       1 25H218      0.0000 
     18 N3         17.8480   55.6580    7.0580 N.2       1 25H218      0.0000 
     19 N2         16.6060   53.9970    6.0060 N.pl3     1 25H218      0.0000 
     20 O6         20.9690   53.0820    7.4240 O.2       1 25H218      0.0000 
     21 H          18.6887   52.5426    6.3518 H         1 25H218      0.0000 
     22 H          21.1637   57.8218    9.1034 H         1 25H218      0.0000 
     23 H          18.4062   60.2798   12.9520 H         1 25H218      0.0000 
     24 H          18.9826   58.6220   13.1956 H         1 25H218      0.0000 
     25 H          20.3705   59.2942   10.9876 H         1 25H218      0.0000 
     26 H          18.9313   60.2873   10.7008 H         1 25H218      0.0000 
     27 H          17.2565   59.4532    9.6840 H         1 25H218      0.0000 
     28 H          16.9785   57.7129    9.4995 H         1 25H218      0.0000 
     29 H          19.2194   59.3761    8.3092 H         1 25H218      0.0000 
     30 H          17.8839   58.5689    7.4696 H         1 25H218      0.0000 
     31 H          16.5630   53.0397    5.7200 H         1 25H218      0.0000 
     32 H          15.8994   54.6979    5.9089 H         1 25H218      0.0000 
@<TRIPOS>BOND
     1    3    1 am   
     2    6    1 1    
     3   21    1 1    
     4    4    2 2    
     5   16    2 1    
     6   22    2 1    
     7    5    3 1    
     8   20    3 2    
     9    5    4 1    
    10   17    5 2    
    11   18    6 2    
    12   19    6 1    
    13    8    7 ar   
    14    9    8 ar   
    15   10    8 ar   
    16   11    8 1    
    17   12   11 1    
    18   23   11 1    
    19   24   11 1    
    20   13   12 1    
    21   25   12 1    
    22   26   12 1    
    23   14   13 1    
    24   15   14 1    
    25   27   14 1    
    26   28   14 1    
    27   16   15 1    
    28   29   15 1    
    29   30   15 1    
    30   17   16 1    
    31   18   17 1    
    32   31   19 1    
    33   32   19 1    
@<TRIPOS>SUBSTRUCTURE
     1 25H218      1 GROUP   
@<TRIPOS>SET

