#    Name: 3mnr_SD1_1_INTS_M
#    Modification time : Mon Mar 24 23:28:33 2014

@<TRIPOS>MOLECULE
3mnr_SD1_1_INTS_M
   85     0     9     0     0
SMALL
NO_CHARGES


@<TRIPOS>ATOM
      1 CA          3.3340  -13.1610  -26.4865 C.3       3 GLC5        0.0000 
      2 CA          4.4130  -13.7040  -24.7650 C.3       9 GLL5        0.0000 
      3 CA          2.2550  -12.6180  -28.2080 C.3       6 GLP5        0.0000 
      4 CA          4.4600  -13.9235  -22.7925 C.3       3 GLC5        0.0000 
      5 CA          4.5070  -14.1430  -20.8200 C.3       6 GLP5        0.0000 
      6 CA          4.7205  -11.2775  -26.1090 C.3       3 GLC5        0.0000 
      7 CA          4.7660  -12.3150  -24.2960 C.3       9 GLL5        0.0000 
      8 CA          4.6750  -10.2400  -27.9220 C.3       6 GLP5        0.0000 
      9 CA          6.2755  -14.5765  -22.8160 C.3       3 GLC5        0.0000 
     10 CA          6.8960  -14.2450  -24.5850 C.3       9 GLL5        0.0000 
     11 CA          5.6550  -14.9080  -21.0470 C.3       6 GLP5        0.0000 
     12 CA          8.2565  -14.2920  -23.1405 C.3       3 GLC5        0.0000 
     13 CA          9.6170  -14.3390  -21.6960 C.3       6 GLP5        0.0000 
     14 CA          7.3705  -16.4155  -24.6045 C.3       3 GLC5        0.0000 
     15 CA          7.8450  -18.5860  -24.6240 C.3       6 GLP5        0.0000 
     16 CA          5.5915  -15.2845  -23.5010 C.3       3 GLC5        0.0000 
     17 CA          5.6250  -14.3560  -25.4480 C.3       9 GLL5        0.0000 
     18 CA          5.5580  -16.2130  -21.5540 C.3       6 GLP5        0.0000 
     19 CA          4.6310  -15.9430  -27.6150 C.3       3 GLC5        0.0000 
     20 CA          5.2820  -15.8210  -25.6880 C.3       9 GLL5        0.0000 
     21 CA          3.9800  -16.0650  -29.5420 C.3       6 GLP5        0.0000 
     22 CA          4.7940  -16.2910  -23.7505 C.3       3 GLC5        0.0000 
     23 CA          4.3060  -16.7610  -21.8130 C.3       6 GLP5        0.0000 
     24 CA          3.6385  -17.1000  -25.0880 C.3       3 GLC5        0.0000 
     25 CA          1.9950  -18.3790  -24.4880 C.3       6 GLP5        0.0000 
     26 CA          6.2945  -17.2405  -25.8050 C.3       3 GLC5        0.0000 
     27 CA          7.3070  -18.6600  -25.9220 C.3       6 GLP5        0.0000 
     28 CA          4.0545  -13.1660  -27.5150 C.3       3 GLC5        0.0000 
     29 CA          5.8540  -13.7140  -26.8220 C.3       9 GLL5        0.0000 
     30 CA          4.9170  -14.8895  -28.1820 C.3       3 GLC5        0.0000 
     31 CA          5.2645  -11.9770  -27.3720 C.3       3 GLC5        0.0000 
     32 N           9.1590  -13.3990  -23.6190 N.am      2 SEC2        0.0000 
     33 N           8.4150  -12.4420  -24.1910 N.am      8 SEL2        0.0000 
     34 N           9.9030  -14.3560  -23.0470 N.am      5 SEP2        0.0000 
     35 CA          3.1980  -12.4605  -21.9070 C.3       3 GLC5        0.0000 
     36 CA          1.7870  -12.1800  -23.5610 C.3       9 GLL5        0.0000 
     37 CA          4.6090  -12.7410  -20.2530 C.3       6 GLP5        0.0000 
     38 O          -3.8515  -12.0790  -24.2735 O.2       1 ALC1        0.0000 
     39 O          -2.4600  -11.8730  -24.2310 O.2       7 ALL1        0.0000 
     40 O          -5.2430  -12.2850  -24.3160 O.2       4 ALP1        0.0000 
     41 CA         -1.3930   -8.3005  -26.5440 C.3       3 GLC5        0.0000 
     42 CA          0.7150   -8.4240  -26.9150 C.3       9 GLL5        0.0000 
     43 CA         -3.5010   -8.1770  -26.1730 C.3       6 GLP5        0.0000 
     44 N           1.4305   -5.0750  -30.4800 N.am      2 SEC2        0.0000 
     45 N           1.2980   -6.4450  -30.0300 N.am      8 SEL2        0.0000 
     46 N           1.5630   -3.7050  -30.9300 N.am      5 SEP2        0.0000 
     47 CA          0.7115   -5.3575  -31.1305 C.3       3 GLC5        0.0000 
     48 CA          1.2820   -7.4250  -31.0770 C.3       9 GLL5        0.0000 
     49 CA          0.1410   -3.2900  -31.1840 C.3       6 GLP5        0.0000 
     50 CA         -0.6370   -7.3430  -30.4480 C.3       3 GLC5        0.0000 
     51 CA         -2.5560   -7.2610  -29.8190 C.3       6 GLP5        0.0000 
     52 N           1.7845   -4.1385  -29.5245 N.am      2 SEC2        0.0000 
     53 N           2.0060   -4.5720  -28.1190 N.am      8 SEL2        0.0000 
     54 CA          4.3730   -6.1355  -27.6630 C.3       3 GLC5        0.0000 
     55 CA          3.4120   -4.3280  -28.1840 C.3       9 GLL5        0.0000 
     56 CA          5.3340   -7.9430  -27.1420 C.3       6 GLP5        0.0000 
     57 CA          0.2700   -5.0075  -23.4065 C.3       3 GLC5        0.0000 
     58 CA          2.0230   -5.4930  -23.9770 C.3       9 GLL5        0.0000 
     59 CA         -1.4830   -4.5220  -22.8360 C.3       6 GLP5        0.0000 
     60 CA          6.5907  -10.4620  -25.6017 C.3       3 GLC5        0.0000 
     61 CA          6.1350  -11.8340  -24.0260 C.3       9 GLL5        0.0000 
     62 CA          7.0810   -9.7610  -27.3720 C.3       6 GLP5        0.0000 
     63 CA          4.9190   -8.7110  -25.3113 C.3       3 GLC5        0.0000 
     64 CA          4.6970  -10.1820  -23.6710 C.3       9 GLL5        0.0000 
     65 CA          3.5337  -10.5720  -26.3250 C.3       3 GLC5        0.0000 
     66 CA          2.1150  -10.4980  -25.2310 C.3       9 GLL5        0.0000 
     67 CA          0.5262  -12.7640  -26.0307 C.3       3 GLC5        0.0000 
     68 CA          0.4120  -12.2310  -23.8540 C.3       9 GLL5        0.0000 
     69 CA          0.9130  -13.7040  -27.7140 C.3       6 GLP5        0.0000 
     70 CA          0.0911  -10.9236  -22.6431 C.3       3 GLC5        0.0000 
     71 CA         -0.1330  -11.4170  -24.8410 C.3       9 GLL5        0.0000 
     72 CA         -0.3010  -10.0360  -21.0120 C.3       6 GLP5        0.0000 
     73 CA          1.9154  -11.6567  -26.6797 C.3       3 GLC5        0.0000 
     74 CA          0.7590  -10.4870  -25.5750 C.3       9 GLL5        0.0000 
     75 CA          1.1298  -10.0047  -28.5995 C.3       3 GLC5        0.0000 
     76 CA          1.5100  -11.7540  -29.6010 C.3       6 GLP5        0.0000 
     77 CA          2.7123   -9.2477  -27.7600 C.3       3 GLC5        0.0000 
     78 CA          0.7840   -8.0870  -28.2810 C.3       9 GLL5        0.0000 
     79 CA          0.3115   -4.9345  -29.1107 C.3       3 GLC5        0.0000 
     80 CA          1.5850   -5.8080  -27.7140 C.3       9 GLL5        0.0000 
     81 CA         -0.7720   -3.5560  -30.0060 C.3       6 GLP5        0.0000 
     82 CA          3.3861   -7.1307  -27.0276 C.3       3 GLC5        0.0000 
     83 CA         -0.7808   -7.3567  -29.1590 C.3       3 GLC5        0.0000 
     84 CA          1.2050   -6.8180  -28.7170 C.3       9 GLL5        0.0000 
     85 CA          5.0125  -11.9734  -22.0802 C.3       3 GLC5        0.0000 
@<TRIPOS>BOND
@<TRIPOS>SUBSTRUCTURE
     1 ALC1       38 GROUP        1 X    ALC  0     ROOT ALC X 1
     2 SEC2       32 GROUP        1 X    SEC  0     **** SEC X 2
     3 GLC5        1 GROUP        1 X    GLC  0     **** GLC X 6
     4 ALP1       40 GROUP        1 Y    ALP  0     ROOT ALP Y 8
     5 SEP2       34 GROUP        1 Y    SEP  0     **** SEP Y 9
     6 GLP5        3 GROUP        1 Y    GLP  0     **** GLP Y 13
     7 ALL1       39 GROUP        1 Z    ALL  0     ROOT ALL Z 15
     8 SEL2       33 GROUP        1 Z    SEL  0     **** SEL Z 16
     9 GLL5        2 GROUP        1 Z    GLL  0     **** GLL Z 20
@<TRIPOS>SET

