#    Name: 3mnr_SD1_1_ligand
#    Modification time : Mon Mar 24 23:28:33 2014

@<TRIPOS>MOLECULE
3mnr_SD1_1_ligand
   66    69     1     0     0
SMALL
NO_CHARGES


@<TRIPOS>ATOM
      1 C1          4.4130  -13.7040  -24.7650 C.3       1 SD1233      0.0000 
      2 C2          4.7660  -12.3150  -24.2960 C.2       1 SD1233      0.0000 
      3 C3          6.1350  -11.8340  -24.0260 C.2       1 SD1233      0.0000 
      4 C4          7.2540  -12.8030  -24.2430 C.2       1 SD1233      0.0000 
      5 C5          6.8960  -14.2450  -24.5850 C.3       1 SD1233      0.0000 
      6 C6          5.6250  -14.3560  -25.4480 C.3       1 SD1233      0.0000 
      7 C7          5.2820  -15.8210  -25.6880 C.3       1 SD1233      0.0000 
      8 C8          5.8540  -13.7140  -26.8220 C.3       1 SD1233      0.0000 
      9 O9          8.4150  -12.4420  -24.1910 O.2       1 SD1233      0.0000 
     10 C10         6.0660  -10.4920  -23.6370 C.2       1 SD1233      0.0000 
     11 C11         4.6970  -10.1820  -23.6710 C.2       1 SD1233      0.0000 
     12 N12         3.9960  -11.2610  -24.0190 N.pl3     1 SD1233      0.0000 
     13 C13         4.3110   -8.7760  -23.2900 C.3       1 SD1233      0.0000 
     14 C14         2.6700  -11.3100  -24.2250 C.ar      1 SD1233      0.0000 
     15 C15         1.7870  -12.1800  -23.5610 C.ar      1 SD1233      0.0000 
     16 C16         0.4120  -12.2310  -23.8540 C.ar      1 SD1233      0.0000 
     17 C17        -0.1330  -11.4170  -24.8410 C.ar      1 SD1233      0.0000 
     18 C18         0.7590  -10.4870  -25.5750 C.ar      1 SD1233      0.0000 
     19 C19         2.1150  -10.4980  -25.2310 C.ar      1 SD1233      0.0000 
     20 C20        -1.6060  -11.4630  -25.1610 C.2       1 SD1233      0.0000 
     21 O21        -1.9940  -11.1230  -26.2680 O.2       1 SD1233      0.0000 
     22 N22        -2.4600  -11.8730  -24.2310 N.am      1 SD1233      0.0000 
     23 N23         0.2670   -9.6800  -26.5670 N.pl3     1 SD1233      0.0000 
     24 C24         0.7150   -8.4240  -26.9150 C.ar      1 SD1233      0.0000 
     25 C25         1.0740   -7.4750  -25.9390 C.ar      1 SD1233      0.0000 
     26 C26         1.5090   -6.1830  -26.2860 C.ar      1 SD1233      0.0000 
     27 C27         1.5850   -5.8080  -27.7140 C.ar      1 SD1233      0.0000 
     28 C28         1.2050   -6.8180  -28.7170 C.ar      1 SD1233      0.0000 
     29 C29         0.7840   -8.0870  -28.2810 C.ar      1 SD1233      0.0000 
     30 O30         1.2980   -6.4450  -30.0300 O.3       1 SD1233      0.0000 
     31 C31         1.2820   -7.4250  -31.0770 C.3       1 SD1233      0.0000 
     32 O32         2.0060   -4.5720  -28.1190 O.3       1 SD1233      0.0000 
     33 C33         3.4120   -4.3280  -28.1840 C.3       1 SD1233      0.0000 
     34 O34         1.8590   -5.2220  -25.3710 O.3       1 SD1233      0.0000 
     35 C35         2.0230   -5.4930  -23.9770 C.3       1 SD1233      0.0000 
     36 H           3.5925  -13.6578  -25.4768 H         1 SD1233      0.0000 
     37 H           4.1163  -14.3173  -23.9178 H         1 SD1233      0.0000 
     38 H           6.7423  -14.8103  -23.6584 H         1 SD1233      0.0000 
     39 H           7.7298  -14.7074  -25.1261 H         1 SD1233      0.0000 
     40 H           6.7617   -9.9335  -23.4088 H         1 SD1233      0.0000 
     41 H           2.1651  -12.8107  -22.8242 H         1 SD1233      0.0000 
     42 H          -0.1910  -12.8800  -23.3283 H         1 SD1233      0.0000 
     43 H           2.7659   -9.8573  -25.7580 H         1 SD1233      0.0000 
     44 H          -2.0666  -12.0917  -23.3380 H         1 SD1233      0.0000 
     45 H          -3.4196  -11.9261  -24.5074 H         1 SD1233      0.0000 
     46 H          -0.5649  -10.0689  -27.1422 H         1 SD1233      0.0000 
     47 H           1.0161   -7.7356  -24.9385 H         1 SD1233      0.0000 
     48 H           0.5155   -8.7982  -28.9871 H         1 SD1233      0.0000 
     49 H           6.0313  -16.3095  -26.1351 H         1 SD1233      0.0000 
     50 H           5.0876  -16.3018  -24.8330 H         1 SD1233      0.0000 
     51 H           4.4763  -15.9230  -26.2714 H         1 SD1233      0.0000 
     52 H           6.0285  -12.7321  -26.7487 H         1 SD1233      0.0000 
     53 H           6.6383  -14.1166  -27.2940 H         1 SD1233      0.0000 
     54 H           5.0616  -13.8270  -27.4214 H         1 SD1233      0.0000 
     55 H           4.5900   -8.5545  -22.3556 H         1 SD1233      0.0000 
     56 H           4.7353   -8.0986  -23.8909 H         1 SD1233      0.0000 
     57 H           3.3223   -8.6353  -23.3418 H         1 SD1233      0.0000 
     58 H           1.3613   -7.0043  -31.9807 H         1 SD1233      0.0000 
     59 H           2.0369   -8.0749  -30.9890 H         1 SD1233      0.0000 
     60 H           0.4354   -7.9572  -31.0747 H         1 SD1233      0.0000 
     61 H           3.8504   -4.4424  -27.2925 H         1 SD1233      0.0000 
     62 H           3.8685   -4.9528  -28.8175 H         1 SD1233      0.0000 
     63 H           3.6138   -3.3985  -28.4927 H         1 SD1233      0.0000 
     64 H           2.7337   -6.1771  -23.8127 H         1 SD1233      0.0000 
     65 H           2.2823   -4.6727  -23.4672 H         1 SD1233      0.0000 
     66 H           1.1808   -5.8404  -23.5646 H         1 SD1233      0.0000 
@<TRIPOS>BOND
     1    2    1 1    
     2    6    1 1    
     3   36    1 1    
     4   37    1 1    
     5    3    2 2    
     6   12    2 1    
     7    4    3 1    
     8   10    3 1    
     9    5    4 1    
    10    9    4 2    
    11    6    5 1    
    12   38    5 1    
    13   39    5 1    
    14    7    6 1    
    15    8    6 1    
    16   49    7 1    
    17   50    7 1    
    18   51    7 1    
    19   52    8 1    
    20   53    8 1    
    21   54    8 1    
    22   11   10 2    
    23   40   10 1    
    24   12   11 1    
    25   13   11 1    
    26   14   12 1    
    27   55   13 1    
    28   56   13 1    
    29   57   13 1    
    30   15   14 ar   
    31   19   14 ar   
    32   16   15 ar   
    33   41   15 1    
    34   17   16 ar   
    35   42   16 1    
    36   18   17 ar   
    37   20   17 1    
    38   19   18 ar   
    39   23   18 1    
    40   43   19 1    
    41   21   20 2    
    42   22   20 am   
    43   44   22 1    
    44   45   22 1    
    45   24   23 1    
    46   46   23 1    
    47   25   24 ar   
    48   29   24 ar   
    49   26   25 ar   
    50   47   25 1    
    51   27   26 ar   
    52   34   26 1    
    53   28   27 ar   
    54   32   27 1    
    55   29   28 ar   
    56   30   28 1    
    57   48   29 1    
    58   31   30 1    
    59   58   31 1    
    60   59   31 1    
    61   60   31 1    
    62   33   32 1    
    63   61   33 1    
    64   62   33 1    
    65   63   33 1    
    66   35   34 1    
    67   64   35 1    
    68   65   35 1    
    69   66   35 1    
@<TRIPOS>SUBSTRUCTURE
     1 SD1233      1 GROUP   
@<TRIPOS>SET

