#    Name: 3erd_DES_1_INTS_M
#    Modification time : Tue Mar 25 02:23:38 2014

@<TRIPOS>MOLECULE
3erd_DES_1_INTS_M
   63     0     9     0     0
SMALL
NO_CHARGES


@<TRIPOS>ATOM
      1 CA          6.5820   -4.5405   -5.0665 C.3       3 GLC5        0.0000 
      2 CA          5.3970   -3.0840   -6.1700 C.3       9 GLL5        0.0000 
      3 CA          7.7670   -5.9970   -3.9630 C.3       6 GLP5        0.0000 
      4 CA          4.1145   -4.4175   -5.2805 C.3       3 GLC5        0.0000 
      5 CA          2.8320   -5.7510   -4.3910 C.3       6 GLP5        0.0000 
      6 CA          5.7475   -5.2130   -6.4940 C.3       3 GLC5        0.0000 
      7 CA          6.0980   -7.3420   -6.8180 C.3       6 GLP5        0.0000 
      8 CA          0.0510   -1.1445   -2.0140 C.3       3 GLC5        0.0000 
      9 CA          1.5760   -1.1710   -3.6570 C.3       9 GLL5        0.0000 
     10 CA         -1.4740   -1.1180   -0.3710 C.3       6 GLP5        0.0000 
     11 CA          1.2180   -3.0975   -3.3655 C.3       3 GLC5        0.0000 
     12 CA          0.8600   -5.0240   -3.0740 C.3       6 GLP5        0.0000 
     13 N          -1.2965   -0.8900   -3.7175 N.am      2 SEC2        0.0000 
     14 N          -0.5870   -1.4440   -4.7290 N.am      8 SEL2        0.0000 
     15 N          -2.0060   -0.3360   -2.7060 N.am      5 SEP2        0.0000 
     16 CA          3.2305    0.0445   -7.9755 C.3       3 GLC5        0.0000 
     17 CA          2.7290   -0.9730   -6.1850 C.3       9 GLL5        0.0000 
     18 CA          3.7320    1.0620   -9.7660 C.3       6 GLP5        0.0000 
     19 CA          9.3035    1.2340   -9.4385 C.3       3 GLC5        0.0000 
     20 CA          8.8860    0.4380   -7.4820 C.3       9 GLL5        0.0000 
     21 CA          9.7210    2.0300  -11.3950 C.3       6 GLP5        0.0000 
     22 N          11.9665    2.2465   -7.3760 N.am      2 SEC2        0.0000 
     23 N          11.1610    0.9440   -6.8290 N.am      8 SEL2        0.0000 
     24 N          12.7720    3.5490   -7.9230 N.am      5 SEP2        0.0000 
     25 O          11.3815    0.2010   -7.8745 O.2       1 ALC1        0.0000 
     26 O          11.1610    0.9440   -6.8290 O.2       7 ALL1        0.0000 
     27 O          11.6020   -0.5420   -8.9200 O.2       4 ALP1        0.0000 
     28 CA          7.7730   -0.7805   -3.4460 C.3       3 GLC5        0.0000 
     29 CA          8.0630    0.9280   -4.8680 C.3       9 GLL5        0.0000 
     30 CA          7.4830   -2.4890   -2.0240 C.3       6 GLP5        0.0000 
     31 CA          3.7665    2.3165   -6.9275 C.3       3 GLC5        0.0000 
     32 CA          4.8990    1.7680   -5.4010 C.3       9 GLL5        0.0000 
     33 CA          2.6340    2.8650   -8.4540 C.3       6 GLP5        0.0000 
     34 CA          5.6355    3.8570   -2.7865 C.3       3 GLC5        0.0000 
     35 CA          4.9700    2.4780   -4.0720 C.3       9 GLL5        0.0000 
     36 CA          6.3010    5.2360   -1.5010 C.3       6 GLP5        0.0000 
     37 CA          6.7882   -3.0055   -7.1283 C.3       3 GLC5        0.0000 
     38 CA          5.8180   -2.0660   -5.1530 C.3       9 GLL5        0.0000 
     39 CA          7.9690   -3.4360   -8.5950 C.3       6 GLP5        0.0000 
     40 CA          6.4607   -1.9472   -3.6080 C.3       3 GLC5        0.0000 
     41 CA          2.0617    0.6717   -4.7180 C.3       3 GLC5        0.0000 
     42 CA          3.5590   -0.8980   -5.0640 C.3       9 GLL5        0.0000 
     43 CA          0.8580    2.2910   -5.0080 C.3       6 GLP5        0.0000 
     44 CA          1.0183    0.5417   -4.6182 C.3       3 GLC5        0.0000 
     45 CA         -0.2030   -1.7480   -6.6593 C.3       3 GLC5        0.0000 
     46 CA          0.7810   -1.2440   -4.8000 C.3       9 GLL5        0.0000 
     47 CA         -1.4720   -2.3020   -7.8830 C.3       6 GLP5        0.0000 
     48 CA          0.9050   -3.1200   -5.5113 C.3       3 GLC5        0.0000 
     49 CA          1.3510   -1.1440   -6.0710 C.3       9 GLL5        0.0000 
     50 CA          0.7440   -5.0460   -5.5870 C.3       6 GLP5        0.0000 
     51 CA          2.1665   -2.3667   -7.7880 C.3       3 GLC5        0.0000 
     52 CA          2.2930   -3.6750   -9.4480 C.3       6 GLP5        0.0000 
     53 CA          1.4490    0.6162   -5.5680 C.3       3 GLC5        0.0000 
     54 CA          8.0900   -1.5325   -7.9493 C.3       3 GLC5        0.0000 
     55 CA          7.5360    0.3040   -7.1250 C.3       9 GLL5        0.0000 
     56 CA          8.9322    2.9287   -4.5945 C.3       3 GLC5        0.0000 
     57 CA          9.4220    1.0690   -5.2040 C.3       9 GLL5        0.0000 
     58 CA          9.1220    4.8590   -4.1530 C.3       6 GLP5        0.0000 
     59 CA         10.0954   -0.4417   -4.6292 C.3       3 GLC5        0.0000 
     60 CA         11.3490   -1.8190   -3.8930 C.3       6 GLP5        0.0000 
     61 CA          2.8962    2.2070   -4.8722 C.3       3 GLC5        0.0000 
     62 CA          5.9885    3.1378   -5.8075 C.3       3 GLC5        0.0000 
     63 CA          6.8590    4.4880   -6.8680 C.3       6 GLP5        0.0000 
@<TRIPOS>BOND
@<TRIPOS>SUBSTRUCTURE
     1 ALC1       25 GROUP        1 X    ALC  0     ROOT ALC X 1
     2 SEC2       13 GROUP        1 X    SEC  0     **** SEC X 2
     3 GLC5        1 GROUP        1 X    GLC  0     **** GLC X 6
     4 ALP1       27 GROUP        1 Y    ALP  0     ROOT ALP Y 8
     5 SEP2       15 GROUP        1 Y    SEP  0     **** SEP Y 9
     6 GLP5        3 GROUP        1 Y    GLP  0     **** GLP Y 13
     7 ALL1       26 GROUP        1 Z    ALL  0     ROOT ALL Z 15
     8 SEL2       14 GROUP        1 Z    SEL  0     **** SEL Z 16
     9 GLL5        2 GROUP        1 Z    GLL  0     **** GLL Z 20
@<TRIPOS>SET

