#    Name: 3erd_DES_1_ligand
#    Modification time : Tue Mar 25 02:23:38 2014

@<TRIPOS>MOLECULE
3erd_DES_1_ligand
   40    41     1     0     0
SMALL
NO_CHARGES


@<TRIPOS>ATOM
      1 CP9         5.3970   -3.0840   -6.1700 C.3       1 DES600      0.0000 
      2 CP8         5.8180   -2.0660   -5.1530 C.3       1 DES600      0.0000 
      3 CP7         5.0590   -0.7450   -5.2310 C.2       1 DES600      0.0000 
      4 CP6         3.5590   -0.8980   -5.0640 C.ar      1 DES600      0.0000 
      5 CP1         2.9720   -0.9970   -3.7920 C.ar      1 DES600      0.0000 
      6 CP2         1.5760   -1.1710   -3.6570 C.ar      1 DES600      0.0000 
      7 CP3         0.7810   -1.2440   -4.8000 C.ar      1 DES600      0.0000 
      8 OP3        -0.5870   -1.4440   -4.7290 O.3       1 DES600      0.0000 
      9 CP4         1.3510   -1.1440   -6.0710 C.ar      1 DES600      0.0000 
     10 CP5         2.7290   -0.9730   -6.1850 C.ar      1 DES600      0.0000 
     11 C7          5.6330    0.4260   -5.4430 C.2       1 DES600      0.0000 
     12 C6          7.1080    0.5490   -5.8150 C.ar      1 DES600      0.0000 
     13 C5          7.5360    0.3040   -7.1250 C.ar      1 DES600      0.0000 
     14 C4          8.8860    0.4380   -7.4820 C.ar      1 DES600      0.0000 
     15 C3          9.8190    0.8170   -6.5220 C.ar      1 DES600      0.0000 
     16 O3         11.1610    0.9440   -6.8290 O.3       1 DES600      0.0000 
     17 C2          9.4220    1.0690   -5.2040 C.ar      1 DES600      0.0000 
     18 C1          8.0630    0.9280   -4.8680 C.ar      1 DES600      0.0000 
     19 C8          4.8990    1.7680   -5.4010 C.3       1 DES600      0.0000 
     20 C9          4.9700    2.4780   -4.0720 C.3       1 DES600      0.0000 
     21 H           6.8998   -1.8560   -5.2663 H         1 DES600      0.0000 
     22 H           5.6891   -2.4849   -4.1356 H         1 DES600      0.0000 
     23 H           3.5580   -0.9430   -2.9515 H         1 DES600      0.0000 
     24 H           1.1619   -1.2416   -2.7276 H         1 DES600      0.0000 
     25 H           0.7643   -1.1957   -6.9048 H         1 DES600      0.0000 
     26 H           3.1536   -0.8989   -7.1318 H         1 DES600      0.0000 
     27 H           6.8485    0.0202   -7.8406 H         1 DES600      0.0000 
     28 H           9.1784    0.2564   -8.4466 H         1 DES600      0.0000 
     29 H          10.0990    1.3484   -4.5010 H         1 DES600      0.0000 
     30 H           7.7668    1.1109   -3.8917 H         1 DES600      0.0000 
     31 H           3.8391    1.5967   -5.6688 H         1 DES600      0.0000 
     32 H           5.3184    2.4221   -6.1888 H         1 DES600      0.0000 
     33 H           5.5304   -2.7529   -7.1041 H         1 DES600      0.0000 
     34 H           5.9176   -3.9333   -6.0829 H         1 DES600      0.0000 
     35 H           4.4301   -3.3223   -6.0788 H         1 DES600      0.0000 
     36 H           5.9133    2.6807   -3.8092 H         1 DES600      0.0000 
     37 H           4.4770    3.3479   -4.0889 H         1 DES600      0.0000 
     38 H           4.5721    1.9298   -3.3364 H         1 DES600      0.0000 
     39 H          -0.9361   -1.1642   -5.6233 H         1 DES600      0.0000 
     40 H          11.4040    0.0882   -7.2857 H         1 DES600      0.0000 
@<TRIPOS>BOND
     1    2    1 1    
     2   33    1 1    
     3   34    1 1    
     4   35    1 1    
     5    3    2 1    
     6   21    2 1    
     7   22    2 1    
     8    4    3 1    
     9   11    3 2    
    10    5    4 ar   
    11   10    4 ar   
    12    6    5 ar   
    13   23    5 1    
    14    7    6 ar   
    15   24    6 1    
    16    8    7 1    
    17    9    7 ar   
    18   39    8 1    
    19   10    9 ar   
    20   25    9 1    
    21   26   10 1    
    22   12   11 1    
    23   19   11 1    
    24   13   12 ar   
    25   18   12 ar   
    26   14   13 ar   
    27   27   13 1    
    28   15   14 ar   
    29   28   14 1    
    30   16   15 1    
    31   17   15 ar   
    32   40   16 1    
    33   18   17 ar   
    34   29   17 1    
    35   30   18 1    
    36   20   19 1    
    37   31   19 1    
    38   32   19 1    
    39   36   20 1    
    40   37   20 1    
    41   38   20 1    
@<TRIPOS>SUBSTRUCTURE
     1 DES600      1 GROUP   
@<TRIPOS>SET

