#    Name: 1E5D_1_CAVITY_N1_6.mol2
#    Modification time : Mon Mar 10 19:43:15 2014

@<TRIPOS>MOLECULE
1E5D_1_CAVITY_N1_6.mol2
   63     0     6     0     0
SMALL
NO_CHARGES


@<TRIPOS>ATOM
      1 CA         36.1831   42.3133   63.1089 C.3       5 GLY6        0.0000 
      2 CA         36.7972   40.9675   63.3569 C.3       5 GLY6        0.0000 
      3 CA         37.4114   39.6216   63.6049 C.3       5 GLY6        0.0000 
      4 CA         34.3596   42.9982   62.2688 C.3       5 GLY6        0.0000 
      5 CA         34.9737   41.6524   62.5168 C.3       5 GLY6        0.0000 
      6 DU         35.5879   40.3065   62.7648 H         6 CUB7        0.0000 
      7 CA         36.2020   38.9607   63.0129 C.3       5 GLY6        0.0000 
      8 O          31.9219   45.0289   61.1806 O.2       2 ALA2        0.0000 
      9 CZ         32.5361   43.6831   61.4287 C.ar      4 PHE5        0.0000 
     10 CZ         33.1502   42.3372   61.6767 C.ar      4 PHE5        0.0000 
     11 CA         33.7644   40.9914   61.9247 C.3       5 GLY6        0.0000 
     12 CA         34.3785   39.6455   62.1728 C.3       5 GLY6        0.0000 
     13 N          34.9926   38.2997   62.4208 N.2       2 ALA2        0.0000 
     14 O          30.7126   44.3680   60.5886 O.2       2 ALA2        0.0000 
     15 O          31.3267   43.0221   60.8366 O.2       2 ALA2        0.0000 
     16 N          31.9409   41.6763   61.0846 N.2       2 ALA2        0.0000 
     17 N          32.5550   40.3304   61.3326 N.2       2 ALA2        0.0000 
     18 N          33.1691   38.9846   61.5807 N.2       2 ALA2        0.0000 
     19 O          29.5032   43.7070   59.9965 O.2       2 ALA2        0.0000 
     20 O          30.1174   42.3611   60.2445 O.2       2 ALA2        0.0000 
     21 N          30.7315   41.0153   60.4925 N.2       2 ALA2        0.0000 
     22 CZ         28.2939   43.0460   59.4044 C.ar      4 PHE5        0.0000 
     23 CZ         28.9080   41.7002   59.6524 C.ar      4 PHE5        0.0000 
     24 CZ         29.5221   40.3543   59.9005 C.ar      4 PHE5        0.0000 
     25 O          37.4378   41.0099   62.0012 O.2       2 ALA2        0.0000 
     26 NZ         33.7718   45.7324   60.4170 N.2       3 LYS4        0.0000 
     27 CA         34.3860   44.3865   60.6650 C.3       5 GLY6        0.0000 
     28 CA         36.2284   40.3490   61.4091 C.3       5 GLY6        0.0000 
     29 CA         31.9483   46.4172   59.5769 C.3       5 GLY6        0.0000 
     30 CA         32.5625   45.0714   59.8249 C.3       5 GLY6        0.0000 
     31 CA         33.1766   43.7255   60.0730 C.3       5 GLY6        0.0000 
     32 CA         35.0190   39.6880   60.8171 C.3       5 GLY6        0.0000 
     33 CA         30.7390   45.7563   58.9848 C.3       5 GLY6        0.0000 
     34 DU         31.3531   44.4104   59.2328 H         6 CUB7        0.0000 
     35 CA         31.9672   43.0646   59.4809 C.3       5 GLY6        0.0000 
     36 CA         32.5814   41.7187   59.7289 C.3       5 GLY6        0.0000 
     37 CA         29.5296   45.0953   58.3927 C.3       5 GLY6        0.0000 
     38 N          30.1437   43.7494   58.6408 N.2       2 ALA2        0.0000 
     39 CA         30.7579   42.4036   58.8888 C.3       5 GLY6        0.0000 
     40 N          31.3720   41.0577   59.1368 N.2       2 ALA2        0.0000 
     41 N          28.3202   44.4343   57.8007 N.2       2 ALA2        0.0000 
     42 N          28.9344   43.0885   58.0487 N.2       2 ALA2        0.0000 
     43 O          29.5485   41.7426   58.2967 O.2       2 ALA2        0.0000 
     44 CA         33.2030   45.1138   58.4692 C.3       5 GLY6        0.0000 
     45 CA         31.3795   45.7987   57.6291 C.3       5 GLY6        0.0000 
     46 CA         31.9936   44.4528   57.8771 C.3       5 GLY6        0.0000 
     47 N          30.1701   45.1377   57.0370 N.2       2 ALA2        0.0000 
     48 CA         30.7843   43.7919   57.2851 C.3       5 GLY6        0.0000 
     49 CZ         32.4833   40.9065   64.6361 C.ar      4 PHE5        0.0000 
     50 CA         35.5426   42.2709   64.4646 C.3       5 GLY6        0.0000 
     51 CA         36.1567   40.9250   64.7126 C.3       5 GLY6        0.0000 
     52 OG         36.7708   39.5792   64.9606 O.2       1 SER1        0.0000 
     53 CZ         34.3332   41.6099   63.8725 C.ar      4 PHE5        0.0000 
     54 O          34.9473   40.2641   64.1205 O.2       2 ALA2        0.0000 
     55 OG         35.5615   38.9182   64.3686 O.2       1 SER1        0.0000 
     56 CZ         33.1238   40.9490   63.2804 C.ar      4 PHE5        0.0000 
     57 O          33.7380   39.6031   63.5285 O.2       2 ALA2        0.0000 
     58 O          34.3521   38.2573   63.7765 O.2       2 ALA2        0.0000 
     59 CZ         31.3003   41.6338   62.4403 C.ar      4 PHE5        0.0000 
     60 O          31.9145   40.2880   62.6883 O.2       2 ALA2        0.0000 
     61 O          32.5286   38.9421   62.9364 O.2       2 ALA2        0.0000 
     62 CZ         30.0910   40.9729   61.8482 C.ar      4 PHE5        0.0000 
     63 CZ         30.7051   39.6270   62.0963 C.ar      4 PHE5        0.0000 
@<TRIPOS>BOND
@<TRIPOS>SUBSTRUCTURE
     1 SER1       52 GROUP   
     2 ALA2        8 GROUP   
     3 LYS4       26 GROUP   
     4 PHE5        9 GROUP   
     5 GLY6        1 GROUP   
     6 CUB7        6 GROUP   
@<TRIPOS>SET

