#    Name: 1e5d_FMN_1_INTS_M
#    Modification time : Mon Mar 24 22:53:53 2014

@<TRIPOS>MOLECULE
1e5d_FMN_1_INTS_M
   89     0     9     0     0
SMALL
NO_CHARGES


@<TRIPOS>ATOM
      1 N          30.5140   37.6125   63.0205 N.am      2 SEC2        0.0000 
      2 N          30.0090   38.2970   61.7760 N.am      8 SEL2        0.0000 
      3 N          31.0190   36.9280   64.2650 N.am      5 SEP2        0.0000 
      4 N          29.9220   36.7050   63.2565 N.am      2 SEC2        0.0000 
      5 N          28.8250   36.4820   62.2480 N.am      8 SEL2        0.0000 
      6 N          28.5805   36.4355   63.4715 N.am      2 SEC2        0.0000 
      7 N          28.3360   36.3890   64.6950 N.am      5 SEP2        0.0000 
      8 N          27.7495   35.6945   62.4825 N.am      2 SEC2        0.0000 
      9 N          26.6740   34.9070   62.7170 N.am      5 SEP2        0.0000 
     10 N          28.7455   34.8775   61.8755 N.am      2 SEC2        0.0000 
     11 N          28.6660   33.2730   61.5030 N.am      5 SEP2        0.0000 
     12 O          27.5770   36.4475   60.1305 O.2       1 ALC1        0.0000 
     13 O          28.3450   37.4200   60.2890 O.2       7 ALL1        0.0000 
     14 O          26.8090   35.4750   59.9720 O.2       4 ALP1        0.0000 
     15 N          27.7475   37.9125   57.2780 N.am      2 SEC2        0.0000 
     16 N          27.6600   38.5500   58.4990 N.am      8 SEL2        0.0000 
     17 N          27.8350   37.2750   56.0570 N.am      5 SEP2        0.0000 
     18 N          29.5260   40.1450   57.5695 N.am      2 SEC2        0.0000 
     19 N          29.5330   40.6010   58.9880 N.am      8 SEL2        0.0000 
     20 N          29.5190   39.6890   56.1510 N.am      5 SEP2        0.0000 
     21 CA         31.0490   40.4635   57.9475 C.3       3 GLC5        0.0000 
     22 CA         30.2140   41.6840   59.4910 C.3       9 GLL5        0.0000 
     23 CA         31.8840   39.2430   56.4040 C.3       6 GLP5        0.0000 
     24 CA         33.1150   46.0075   57.2730 C.3       3 GLC5        0.0000 
     25 CA         31.6710   44.8090   57.9020 C.3       9 GLL5        0.0000 
     26 CA         34.5590   47.2060   56.6440 C.3       6 GLP5        0.0000 
     27 CA         30.6920   46.5065   58.2880 C.3       3 GLC5        0.0000 
     28 CA         29.7130   48.2040   58.6740 C.3       6 GLP5        0.0000 
     29 CA         34.1150   43.9940   59.3680 C.3       3 GLC5        0.0000 
     30 CA         32.8490   44.9150   60.6460 C.3       9 GLL5        0.0000 
     31 CA         35.3810   43.0730   58.0900 C.3       6 GLP5        0.0000 
     32 CA         34.7790   44.9865   61.7515 C.3       3 GLC5        0.0000 
     33 CA         36.7090   45.0580   62.8570 C.3       6 GLP5        0.0000 
     34 CA         32.2695   44.3480   62.4415 C.3       3 GLC5        0.0000 
     35 CA         31.6900   43.7810   64.2370 C.3       6 GLP5        0.0000 
     36 CA         30.9880   39.0150   63.9865 C.3       3 GLC5        0.0000 
     37 CA         31.6690   40.3400   62.6930 C.3       9 GLL5        0.0000 
     38 CA         30.3070   37.6900   65.2800 C.3       6 GLP5        0.0000 
     39 CA         29.7940   40.5890   63.1750 C.3       3 GLC5        0.0000 
     40 CA         27.9190   40.8380   63.6570 C.3       6 GLP5        0.0000 
     41 CA         34.1390   40.7365   60.7105 C.3       3 GLC5        0.0000 
     42 CA         33.1480   39.9460   62.4480 C.3       9 GLL5        0.0000 
     43 CA         35.1300   41.5270   58.9730 C.3       6 GLP5        0.0000 
     44 O          32.7095   38.5960   60.4160 O.2       1 ALC1        0.0000 
     45 O          33.2180   38.6600   61.8440 O.2       7 ALL1        0.0000 
     46 O          32.2010   38.5320   58.9880 O.2       4 ALP1        0.0000 
     47 CA         32.0485   38.8040   64.5530 C.3       3 GLC5        0.0000 
     48 CA         33.7900   39.9180   63.8260 C.3       9 GLL5        0.0000 
     49 CA         35.2350   38.4245   65.9140 C.3       3 GLC5        0.0000 
     50 CA         35.1190   39.1580   63.8030 C.3       9 GLL5        0.0000 
     51 CA         35.3510   37.6910   68.0250 C.3       6 GLP5        0.0000 
     52 N          34.4800   39.2900   66.2185 N.am      2 SEC2        0.0000 
     53 N          35.7130   39.1780   65.1110 N.am      8 SEL2        0.0000 
     54 N          33.2470   39.4020   67.3260 N.am      5 SEP2        0.0000 
     55 O          36.2330   37.7995   65.2565 O.2       1 ALC1        0.0000 
     56 O          35.7130   39.1780   65.1110 O.2       7 ALL1        0.0000 
     57 O          36.7530   36.4210   65.4020 O.2       4 ALP1        0.0000 
     58 CA         35.5690   40.6835   60.8795 C.3       3 GLC5        0.0000 
     59 CA         36.0080   39.8400   62.7860 C.3       9 GLL5        0.0000 
     60 N          40.6005   39.4990   61.3135 N.am      2 SEC2        0.0000 
     61 N          39.6520   38.7520   61.8950 N.am      8 SEL2        0.0000 
     62 N          41.5490   40.2460   60.7320 N.am      5 SEP2        0.0000 
     63 N          40.5085   38.0820   62.5095 N.am      2 SEC2        0.0000 
     64 N          41.3650   37.4120   63.1240 N.am      5 SEP2        0.0000 
     65 N          39.6380   37.5230   61.5250 N.am      2 SEC2        0.0000 
     66 N          39.6240   36.2940   61.1550 N.am      5 SEP2        0.0000 
     67 N          39.9810   40.5380   61.0565 N.am      2 SEC2        0.0000 
     68 N          38.4130   40.8300   61.3810 N.am      8 SEL2        0.0000 
     69 N          39.0160   41.4685   60.3260 N.am      2 SEC2        0.0000 
     70 N          39.6190   42.1070   59.2710 N.am      5 SEP2        0.0000 
     71 N          38.9995   42.0790   61.5980 N.am      2 SEC2        0.0000 
     72 N          39.5860   43.3280   61.8150 N.am      5 SEP2        0.0000 
     73 N          39.4050   41.9295   62.6480 N.am      2 SEC2        0.0000 
     74 N          39.2240   40.5310   63.4810 N.am      8 SEL2        0.0000 
     75 N          40.3670   40.1655   63.9810 N.am      2 SEC2        0.0000 
     76 N          41.5100   39.8000   64.4810 N.am      5 SEP2        0.0000 
     77 CA         33.4270   43.6902   58.2585 C.3       3 GLC5        0.0000 
     78 CA         31.2750   43.8060   58.9520 C.3       9 GLL5        0.0000 
     79 CA         31.8795   43.2476   57.0554 C.3       3 GLC5        0.0000 
     80 CA         32.5050   42.4400   55.7640 C.3       6 GLP5        0.0000 
     81 CA         33.2840   41.9766   59.8180 C.3       3 GLC5        0.0000 
     82 CA         32.0570   43.7190   60.1700 C.3       9 GLL5        0.0000 
     83 CA         32.3946   41.9057   63.7176 C.3       3 GLC5        0.0000 
     84 CA         36.1402   38.6820   61.5472 C.3       3 GLC5        0.0000 
     85 CA         36.7170   37.8650   59.8000 C.3       6 GLP5        0.0000 
     86 CA         36.4543   37.7305   63.7522 C.3       3 GLC5        0.0000 
     87 CA         37.3450   35.9620   64.2100 C.3       6 GLP5        0.0000 
     88 CA         33.5685   37.5535   63.4390 C.3       3 GLC5        0.0000 
     89 CA         32.8430   35.5620   63.4080 C.3       6 GLP5        0.0000 
@<TRIPOS>BOND
@<TRIPOS>SUBSTRUCTURE
     1 ALC1       12 GROUP        1 X    ALC  0     ROOT ALC X 1
     2 SEC2        1 GROUP        1 X    SEC  0     **** SEC X 2
     3 GLC5       21 GROUP        1 X    GLC  0     **** GLC X 6
     4 ALP1       14 GROUP        1 Y    ALP  0     ROOT ALP Y 8
     5 SEP2        3 GROUP        1 Y    SEP  0     **** SEP Y 9
     6 GLP5       23 GROUP        1 Y    GLP  0     **** GLP Y 13
     7 ALL1       13 GROUP        1 Z    ALL  0     ROOT ALL Z 15
     8 SEL2        2 GROUP        1 Z    SEL  0     **** SEL Z 16
     9 GLL5       22 GROUP        1 Z    GLL  0     **** GLL Z 20
@<TRIPOS>SET

