#    Name: 1e5d_FMN_1_ligand
#    Modification time : Mon Mar 24 22:53:53 2014

@<TRIPOS>MOLECULE
1e5d_FMN_1_ligand
   50    52     1     0     0
SMALL
NO_CHARGES


@<TRIPOS>ATOM
      1 N1         30.0090   38.2970   61.7760 N.2       1 FMN403      0.0000 
      2 C2         29.0850   37.3870   61.5010 C.2       1 FMN403      0.0000 
      3 O2         28.8250   36.4820   62.2480 O.2       1 FMN403      0.0000 
      4 N3         28.3450   37.4200   60.2890 N.am      1 FMN403      0.0000 
      5 C4         28.2840   38.5830   59.5430 C.2       1 FMN403      0.0000 
      6 O4         27.6600   38.5500   58.4990 O.2       1 FMN403      0.0000 
      7 C4A        29.2630   39.6100   59.8680 C.2       1 FMN403      0.0000 
      8 N5         29.5330   40.6010   58.9880 N.2       1 FMN403      0.0000 
      9 C5A        30.2140   41.6840   59.4910 C.ar      1 FMN403      0.0000 
     10 C6         30.3990   42.7970   58.6310 C.ar      1 FMN403      0.0000 
     11 C7         31.2750   43.8060   58.9520 C.ar      1 FMN403      0.0000 
     12 C7M        31.6710   44.8090   57.9020 C.3       1 FMN403      0.0000 
     13 C8         32.0570   43.7190   60.1700 C.ar      1 FMN403      0.0000 
     14 C8M        32.8490   44.9150   60.6460 C.3       1 FMN403      0.0000 
     15 C9         31.7290   42.7300   61.1100 C.ar      1 FMN403      0.0000 
     16 C9A        30.9830   41.6280   60.6860 C.ar      1 FMN403      0.0000 
     17 N10        30.9190   40.4010   61.4160 N.pl3     1 FMN403      0.0000 
     18 C10        30.0510   39.4530   61.0810 C.2       1 FMN403      0.0000 
     19 C1'        31.6690   40.3400   62.6930 C.3       1 FMN403      0.0000 
     20 C2'        33.1480   39.9460   62.4480 C.3       1 FMN403      0.0000 
     21 O2'        33.2180   38.6600   61.8440 O.3       1 FMN403      0.0000 
     22 C3'        33.7900   39.9180   63.8260 C.3       1 FMN403      0.0000 
     23 O3'        34.0420   41.2770   64.1740 O.3       1 FMN403      0.0000 
     24 C4'        35.1190   39.1580   63.8030 C.3       1 FMN403      0.0000 
     25 O4'        35.7130   39.1780   65.1110 O.3       1 FMN403      0.0000 
     26 C5'        36.0080   39.8400   62.7860 C.3       1 FMN403      0.0000 
     27 O5'        37.3950   39.1040   62.7470 O.3       1 FMN403      0.0000 
     28 P          38.6630   39.8370   62.3260 P.3       1 FMN403      0.0000 
     29 O1P        39.6520   38.7520   61.8950 O.co2     1 FMN403      0.0000 
     30 O2P        38.4130   40.8300   61.3810 O.co2     1 FMN403      0.0000 
     31 O3P        39.2240   40.5310   63.4810 O.co2     1 FMN403      0.0000 
     32 H          27.8602   36.5701   59.9803 H         1 FMN403      0.0000 
     33 H          29.8558   42.8318   57.7510 H         1 FMN403      0.0000 
     34 H          32.0286   42.8164   62.0757 H         1 FMN403      0.0000 
     35 H          31.2293   39.5989   63.3639 H         1 FMN403      0.0000 
     36 H          31.6571   41.3101   63.1944 H         1 FMN403      0.0000 
     37 H          33.5991   40.7120   61.8740 H         1 FMN403      0.0000 
     38 H          33.1263   39.4540   64.5112 H         1 FMN403      0.0000 
     39 H          34.9182   38.1581   63.4687 H         1 FMN403      0.0000 
     40 H          36.1803   40.8670   63.0643 H         1 FMN403      0.0000 
     41 H          35.5694   39.7826   61.8031 H         1 FMN403      0.0000 
     42 H          32.3108   45.4889   58.2604 H         1 FMN403      0.0000 
     43 H          32.1152   44.3721   57.1198 H         1 FMN403      0.0000 
     44 H          30.8801   45.3085   57.5485 H         1 FMN403      0.0000 
     45 H          33.3443   44.7195   61.4925 H         1 FMN403      0.0000 
     46 H          33.5267   45.2046   59.9701 H         1 FMN403      0.0000 
     47 H          32.2599   45.7027   60.8264 H         1 FMN403      0.0000 
     48 H          32.8700   38.7909   60.9157 H         1 FMN403      0.0000 
     49 H          34.6246   41.2325   64.9856 H         1 FMN403      0.0000 
     50 H          36.0447   38.2463   65.2588 H         1 FMN403      0.0000 
@<TRIPOS>BOND
     1    2    1 1    
     2   18    1 2    
     3    3    2 2    
     4    4    2 am   
     5    5    4 am   
     6   32    4 1    
     7    6    5 2    
     8    7    5 1    
     9    8    7 2    
    10   18    7 1    
    11    9    8 1    
    12   10    9 ar   
    13   16    9 ar   
    14   11   10 ar   
    15   33   10 1    
    16   12   11 1    
    17   13   11 ar   
    18   42   12 1    
    19   43   12 1    
    20   44   12 1    
    21   14   13 1    
    22   15   13 ar   
    23   45   14 1    
    24   46   14 1    
    25   47   14 1    
    26   16   15 ar   
    27   34   15 1    
    28   17   16 1    
    29   18   17 1    
    30   19   17 1    
    31   20   19 1    
    32   35   19 1    
    33   36   19 1    
    34   21   20 1    
    35   22   20 1    
    36   37   20 1    
    37   48   21 1    
    38   23   22 1    
    39   24   22 1    
    40   38   22 1    
    41   49   23 1    
    42   25   24 1    
    43   26   24 1    
    44   39   24 1    
    45   50   25 1    
    46   27   26 1    
    47   40   26 1    
    48   41   26 1    
    49   28   27 1    
    50   29   28 ar   
    51   30   28 ar   
    52   31   28 ar   
@<TRIPOS>SUBSTRUCTURE
     1 FMN403      1 GROUP   
@<TRIPOS>SET

