#    Name: 3cyl_VIT_2_INTS_M
#    Modification time : Mon Mar 24 22:30:42 2014

@<TRIPOS>MOLECULE
3cyl_VIT_2_INTS_M
   90     0     3     0     0
SMALL
NO_CHARGES


@<TRIPOS>ATOM
      1 CA          8.2775   15.3645    0.4810 C.3       1 GLC5        0.0000 
      2 CA          7.3670   14.1650   -0.3050 C.3       3 GLL5        0.0000 
      3 CA          9.1880   16.5640    1.2670 C.3       2 GLP5        0.0000 
      4 CA          8.8275    2.8900   -3.2025 C.3       1 GLC5        0.0000 
      5 CA         10.2490    4.3360   -2.9150 C.3       3 GLL5        0.0000 
      6 CA          7.4060    1.4440   -3.4900 C.3       2 GLP5        0.0000 
      7 CA         12.0920    5.7445   -1.2820 C.3       1 GLC5        0.0000 
      8 CA         12.3380    3.7540   -1.4380 C.3       3 GLL5        0.0000 
      9 CA         11.8460    7.7350   -1.1260 C.3       2 GLP5        0.0000 
     10 CA         13.7105    4.7720   -7.1450 C.3       1 GLC5        0.0000 
     11 CA         13.4530    3.8640   -5.2980 C.3       3 GLL5        0.0000 
     12 CA         13.9680    5.6800   -8.9920 C.3       2 GLP5        0.0000 
     13 CA         13.9395    2.2815   -6.0115 C.3       1 GLC5        0.0000 
     14 CA         14.4260    0.6990   -6.7250 C.3       2 GLP5        0.0000 
     15 CA         14.8270    4.9605   -4.8080 C.3       1 GLC5        0.0000 
     16 CA         16.2010    6.0570   -4.3180 C.3       2 GLP5        0.0000 
     17 CA          9.1865    4.9470    1.0025 C.3       1 GLC5        0.0000 
     18 CA          9.8670    4.2510   -0.3780 C.3       3 GLL5        0.0000 
     19 CA          8.5060    5.6430    2.3830 C.3       2 GLP5        0.0000 
     20 CA         10.8010    5.7190    0.4510 C.3       1 GLC5        0.0000 
     21 CA         11.7350    7.1870    1.2800 C.3       2 GLP5        0.0000 
     22 CA         13.9310    1.8335    0.7550 C.3       1 GLC5        0.0000 
     23 CA         13.0300    3.4840   -0.1140 C.3       3 GLL5        0.0000 
     24 CA         14.8320    0.1830    1.6240 C.3       2 GLP5        0.0000 
     25 CA         12.3825    5.3355    0.5830 C.3       1 GLC5        0.0000 
     26 CA          5.2385    4.2165   -3.1540 C.3       1 GLC5        0.0000 
     27 CA          6.8230    4.7380   -3.1990 C.3       3 GLL5        0.0000 
     28 CA          3.6540    3.6950   -3.1090 C.3       2 GLP5        0.0000 
     29 CA          7.1145    3.0910   -3.3445 C.3       1 GLC5        0.0000 
     30 CA          5.6270    5.9965   -5.9635 C.3       1 GLC5        0.0000 
     31 CA          7.0810    6.3830   -4.5420 C.3       3 GLL5        0.0000 
     32 CA          4.1730    5.6100   -7.3850 C.3       2 GLP5        0.0000 
     33 CA          9.1520    9.2595   -4.3590 C.3       1 GLC5        0.0000 
     34 CA          7.2930    8.6820   -3.3600 C.3       3 GLL5        0.0000 
     35 CA         11.0110    9.8370   -5.3580 C.3       2 GLP5        0.0000 
     36 CA          7.4715    8.5170    0.2000 C.3       1 GLC5        0.0000 
     37 CA          7.5300    9.2270   -1.9030 C.3       3 GLL5        0.0000 
     38 CA          7.4130    7.8070    2.3030 C.3       2 GLP5        0.0000 
     39 CA         10.2345    9.6205   -0.6580 C.3       1 GLC5        0.0000 
     40 CA          8.9170    9.6750   -1.7930 C.3       3 GLL5        0.0000 
     41 CA         11.5520    9.5660    0.4770 C.3       2 GLP5        0.0000 
     42 CA          9.9640    9.7560   -3.5755 C.3       1 GLC5        0.0000 
     43 CA          7.2550   11.9610    1.2290 C.3       1 GLC5        0.0000 
     44 CA          6.4510   11.2920   -0.4610 C.3       3 GLL5        0.0000 
     45 CA          8.0590   12.6300    2.9190 C.3       2 GLP5        0.0000 
     46 CA          6.5710   13.8085   -2.6855 C.3       1 GLC5        0.0000 
     47 CA          5.3930   15.1700   -1.5760 C.3       3 GLL5        0.0000 
     48 CA          7.7490   12.4470   -3.7950 C.3       2 GLP5        0.0000 
     49 CA          6.4395   15.6575   -3.1245 C.3       1 GLC5        0.0000 
     50 CA          7.4860   16.1450   -4.6730 C.3       2 GLP5        0.0000 
     51 CA          4.6200   17.1635   -0.0935 C.3       1 GLC5        0.0000 
     52 CA          3.8820   17.5070   -1.8960 C.3       3 GLL5        0.0000 
     53 CA          5.3580   16.8200    1.7090 C.3       2 GLP5        0.0000 
     54 CA          3.7350   18.3060    0.3900 C.3       1 GLC5        0.0000 
     55 CA          2.6310   18.4810   -1.4670 C.3       3 GLL5        0.0000 
     56 CA          4.8390   18.1310    2.2470 C.3       2 GLP5        0.0000 
     57 CA          0.1205   18.9010   -0.1270 C.3       1 GLC5        0.0000 
     58 CA          1.2800   17.8970   -1.6470 C.3       3 GLL5        0.0000 
     59 CA         -1.0390   19.9050    1.3930 C.3       2 GLP5        0.0000 
     60 CA          7.3405   13.3530    1.2428 C.3       1 GLC5        0.0000 
     61 CA          5.8770   13.9870   -0.5620 C.3       3 GLL5        0.0000 
     62 CA          5.6005   13.4165    1.0388 C.3       1 GLC5        0.0000 
     63 CA          4.5790   12.7570    2.5110 C.3       2 GLP5        0.0000 
     64 CA          5.9900   15.4480    0.6378 C.3       1 GLC5        0.0000 
     65 CA         12.6152    2.0168   -4.4357 C.3       1 GLC5        0.0000 
     66 CA         12.5470    3.9530   -4.0750 C.3       3 GLL5        0.0000 
     67 CA         12.3670    0.2240   -5.4710 C.3       2 GLP5        0.0000 
     68 CA         11.0885    6.4977   -4.9068 C.3       1 GLC5        0.0000 
     69 CA         11.0330    4.3300   -4.1790 C.3       3 GLL5        0.0000 
     70 CA         11.5500    8.4900   -4.9350 C.3       2 GLP5        0.0000 
     71 CA         11.1883    5.9828   -1.6823 C.3       1 GLC5        0.0000 
     72 CA          7.8368    3.2740   -4.1478 C.3       1 GLC5        0.0000 
     73 CA          7.9640    5.1150   -4.0590 C.3       3 GLL5        0.0000 
     74 CA          5.4713    9.1992   -4.0877 C.3       1 GLC5        0.0000 
     75 CA          6.4780    7.3870   -3.4670 C.3       3 GLL5        0.0000 
     76 CA          4.0570   10.3640   -4.7620 C.3       2 GLP5        0.0000 
     77 CA          7.9566   10.8809   -3.0036 C.3       1 GLC5        0.0000 
     78 CA          7.1275   11.6292   -2.4238 C.3       1 GLC5        0.0000 
     79 CA          4.7237   11.2821    0.0439 C.3       1 GLC5        0.0000 
     80 CA          6.5610   10.3310   -1.6440 C.3       3 GLL5        0.0000 
     81 CA          3.3100   10.8710    1.1950 C.3       2 GLP5        0.0000 
     82 CA          6.9722   12.8862   -2.2964 C.3       1 GLC5        0.0000 
     83 CA          5.7690   12.5750   -1.1620 C.3       3 GLL5        0.0000 
     84 CA          4.9597   11.5136   -2.4216 C.3       1 GLC5        0.0000 
     85 CA          3.7820   11.3340   -3.7360 C.3       2 GLP5        0.0000 
     86 CA          5.0685   16.2332    0.1685 C.3       1 GLC5        0.0000 
     87 CA          0.8112   16.8865   -0.7580 C.3       1 GLC5        0.0000 
     88 CA         -0.3330   15.5840    0.0410 C.3       2 GLP5        0.0000 
     89 CA          2.3093   18.1166   -3.5458 C.3       1 GLC5        0.0000 
     90 CA          2.2230   17.3810   -5.1080 C.3       2 GLP5        0.0000 
@<TRIPOS>BOND
@<TRIPOS>SUBSTRUCTURE
     1 GLC5        1 GROUP        1 X    GLC  0     ROOT GLC X 6
     2 GLP5        3 GROUP        1 Y    GLP  0     ROOT GLP Y 13
     3 GLL5        2 GROUP        1 Z    GLL  0     ROOT GLL Z 20
@<TRIPOS>SET

