#    Name: 3cyl_VIT_2_ligand
#    Modification time : Mon Mar 24 22:30:42 2014

@<TRIPOS>MOLECULE
3cyl_VIT_2_ligand
   81    82     1     0     0
SMALL
NO_CHARGES


@<TRIPOS>ATOM
      1 C1          7.3670   14.1650   -0.3050 C.3       1 VIT310      0.0000 
      2 C2         12.5470    3.9530   -4.0750 C.ar      1 VIT310      0.0000 
      3 C3         11.0330    4.3300   -4.1790 C.ar      1 VIT310      0.0000 
      4 C4         10.2490    4.3360   -2.9150 C.ar      1 VIT310      0.0000 
      5 C5         10.8120    4.1250   -1.5620 C.ar      1 VIT310      0.0000 
      6 C6         12.3380    3.7540   -1.4380 C.ar      1 VIT310      0.0000 
      7 C7         13.1800    3.6660   -2.7260 C.ar      1 VIT310      0.0000 
      8 C8         13.4530    3.8640   -5.2980 C.3       1 VIT310      0.0000 
      9 O1          9.1550    5.3980   -3.1230 O.3       1 VIT310      0.0000 
     10 C9          7.9640    5.1150   -4.0590 C.3       1 VIT310      0.0000 
     11 C10        10.2210    4.6810   -5.5780 C.3       1 VIT310      0.0000 
     12 C11         8.5710    5.0930   -5.5520 C.3       1 VIT310      0.0000 
     13 C12         9.8670    4.2510   -0.3780 C.3       1 VIT310      0.0000 
     14 C13        13.0300    3.4840   -0.1140 C.3       1 VIT310      0.0000 
     15 O2         14.5170    3.3420   -2.6640 O.3       1 VIT310      0.0000 
     16 C14         6.8230    4.7380   -3.1990 C.3       1 VIT310      0.0000 
     17 C15         7.0810    6.3830   -4.5420 C.3       1 VIT310      0.0000 
     18 C16         6.4780    7.3870   -3.4670 C.3       1 VIT310      0.0000 
     19 C17         7.2930    8.6820   -3.3600 C.3       1 VIT310      0.0000 
     20 C18         7.5300    9.2270   -1.9030 C.3       1 VIT310      0.0000 
     21 C19         8.9170    9.6750   -1.7930 C.3       1 VIT310      0.0000 
     22 C20         6.5610   10.3310   -1.6440 C.3       1 VIT310      0.0000 
     23 C21         6.4510   11.2920   -0.4610 C.3       1 VIT310      0.0000 
     24 C22         5.7690   12.5750   -1.1620 C.3       1 VIT310      0.0000 
     25 C23         5.8770   13.9870   -0.5620 C.3       1 VIT310      0.0000 
     26 C24         5.3930   15.1700   -1.5760 C.3       1 VIT310      0.0000 
     27 C25         4.1650   16.1230   -1.1680 C.3       1 VIT310      0.0000 
     28 C26         3.8820   17.5070   -1.8960 C.3       1 VIT310      0.0000 
     29 C27         2.6310   18.4810   -1.4670 C.3       1 VIT310      0.0000 
     30 C28         2.5230   19.7590   -2.3030 C.3       1 VIT310      0.0000 
     31 C29         1.2800   17.8970   -1.6470 C.3       1 VIT310      0.0000 
     32 H          10.3117    3.8107   -6.2524 H         1 VIT310      0.0000 
     33 H          10.7415    5.5204   -6.0729 H         1 VIT310      0.0000 
     34 H           8.4971    6.0664   -5.9882 H         1 VIT310      0.0000 
     35 H           8.0671    4.3539   -6.1378 H         1 VIT310      0.0000 
     36 H           6.2405    5.9828   -5.1548 H         1 VIT310      0.0000 
     37 H           7.7096    6.9689   -5.2518 H         1 VIT310      0.0000 
     38 H           6.4650    6.8761   -2.5068 H         1 VIT310      0.0000 
     39 H           5.4562    7.6147   -3.7625 H         1 VIT310      0.0000 
     40 H           6.7908    9.4784   -3.9398 H         1 VIT310      0.0000 
     41 H           8.2833    8.5298   -3.8278 H         1 VIT310      0.0000 
     42 H           7.3374    8.4054   -1.2351 H         1 VIT310      0.0000 
     43 H           5.4753    9.8764   -1.7867 H         1 VIT310      0.0000 
     44 H           6.5527   11.0157   -2.6120 H         1 VIT310      0.0000 
     45 H           7.3924   11.5799   -0.1210 H         1 VIT310      0.0000 
     46 H           5.7866   10.9322    0.2559 H         1 VIT310      0.0000 
     47 H           4.6763   12.3156   -1.2949 H         1 VIT310      0.0000 
     48 H           6.1592   12.5966   -2.2232 H         1 VIT310      0.0000 
     49 H           5.3491   14.0601    0.3311 H         1 VIT310      0.0000 
     50 H           5.1472   14.6884   -2.5468 H         1 VIT310      0.0000 
     51 H           6.2772   15.8134   -1.7736 H         1 VIT310      0.0000 
     52 H           4.2614   16.3305   -0.0636 H         1 VIT310      0.0000 
     53 H           3.2270   15.5008   -1.2389 H         1 VIT310      0.0000 
     54 H           3.7645   17.3093   -2.9954 H         1 VIT310      0.0000 
     55 H           4.8093   18.1371   -1.8279 H         1 VIT310      0.0000 
     56 H           2.7667   18.7700   -0.4398 H         1 VIT310      0.0000 
     57 H           7.9005   14.0921   -1.1476 H         1 VIT310      0.0000 
     58 H           7.5708   15.0588    0.0945 H         1 VIT310      0.0000 
     59 H           7.7201   13.4744    0.3262 H         1 VIT310      0.0000 
     60 H          14.3873    3.6076   -5.0502 H         1 VIT310      0.0000 
     61 H          13.1263    3.1831   -5.9535 H         1 VIT310      0.0000 
     62 H          13.5075    4.7362   -5.7841 H         1 VIT310      0.0000 
     63 H          10.3369    4.0937    0.4906 H         1 VIT310      0.0000 
     64 H           9.4542    5.1604   -0.3274 H         1 VIT310      0.0000 
     65 H           9.1173    3.5913   -0.4294 H         1 VIT310      0.0000 
     66 H          13.9978    3.2651   -0.2386 H         1 VIT310      0.0000 
     67 H          12.9846    4.2745    0.4968 H         1 VIT310      0.0000 
     68 H          12.6155    2.7143    0.3715 H         1 VIT310      0.0000 
     69 H           7.0229    3.9251   -2.6520 H         1 VIT310      0.0000 
     70 H           6.5817    5.4689   -2.5606 H         1 VIT310      0.0000 
     71 H           6.0041    4.5358   -3.7360 H         1 VIT310      0.0000 
     72 H           9.5624    8.9309   -1.9654 H         1 VIT310      0.0000 
     73 H           9.1256   10.4015   -2.4477 H         1 VIT310      0.0000 
     74 H           9.1202   10.0341   -0.8821 H         1 VIT310      0.0000 
     75 H           3.3459   20.3223   -2.2284 H         1 VIT310      0.0000 
     76 H           2.3925   19.5578   -3.2738 H         1 VIT310      0.0000 
     77 H           1.7519   20.3270   -2.0152 H         1 VIT310      0.0000 
     78 H           1.1046   17.6538   -2.6010 H         1 VIT310      0.0000 
     79 H           1.1600   17.0649   -1.1056 H         1 VIT310      0.0000 
     80 H           0.5603   18.5335   -1.3697 H         1 VIT310      0.0000 
     81 H          15.0944    3.9194   -2.0866 H         1 VIT310      0.0000 
@<TRIPOS>BOND
     1   25    1 1    
     2   57    1 1    
     3   58    1 1    
     4   59    1 1    
     5    3    2 ar   
     6    7    2 ar   
     7    8    2 1    
     8    4    3 ar   
     9   11    3 1    
    10    5    4 ar   
    11    9    4 1    
    12    6    5 ar   
    13   13    5 1    
    14    7    6 ar   
    15   14    6 1    
    16   15    7 1    
    17   60    8 1    
    18   61    8 1    
    19   62    8 1    
    20   10    9 1    
    21   12   10 1    
    22   16   10 1    
    23   17   10 1    
    24   12   11 1    
    25   32   11 1    
    26   33   11 1    
    27   34   12 1    
    28   35   12 1    
    29   63   13 1    
    30   64   13 1    
    31   65   13 1    
    32   66   14 1    
    33   67   14 1    
    34   68   14 1    
    35   81   15 1    
    36   69   16 1    
    37   70   16 1    
    38   71   16 1    
    39   18   17 1    
    40   36   17 1    
    41   37   17 1    
    42   19   18 1    
    43   38   18 1    
    44   39   18 1    
    45   20   19 1    
    46   40   19 1    
    47   41   19 1    
    48   21   20 1    
    49   22   20 1    
    50   42   20 1    
    51   72   21 1    
    52   73   21 1    
    53   74   21 1    
    54   23   22 1    
    55   43   22 1    
    56   44   22 1    
    57   24   23 1    
    58   45   23 1    
    59   46   23 1    
    60   25   24 1    
    61   47   24 1    
    62   48   24 1    
    63   26   25 1    
    64   49   25 1    
    65   27   26 1    
    66   50   26 1    
    67   51   26 1    
    68   28   27 1    
    69   52   27 1    
    70   53   27 1    
    71   29   28 1    
    72   54   28 1    
    73   55   28 1    
    74   30   29 1    
    75   31   29 1    
    76   56   29 1    
    77   75   30 1    
    78   76   30 1    
    79   77   30 1    
    80   78   31 1    
    81   79   31 1    
    82   80   31 1    
@<TRIPOS>SUBSTRUCTURE
     1 VIT310      1 GROUP   
@<TRIPOS>SET

