#    Name: 3sc1_3S1_1_INTS_M
#    Modification time : Tue Mar 25 12:24:59 2014

@<TRIPOS>MOLECULE
3sc1_3S1_1_INTS_M
   53     0     9     0     0
SMALL
NO_CHARGES


@<TRIPOS>ATOM
      1 CA         37.8155   28.7975   30.4180 C.3       3 GLC5        0.0000 
      2 CA         38.4790   27.2030   29.7150 C.3       9 GLL5        0.0000 
      3 CA         37.1520   30.3920   31.1210 C.3       6 GLP5        0.0000 
      4 CA         32.3800   29.2470   29.5770 C.3       3 GLC5        0.0000 
      5 CA         33.5050   27.8000   28.4080 C.3       9 GLL5        0.0000 
      6 CA         31.2550   30.6940   30.7460 C.3       6 GLP5        0.0000 
      7 CA         34.5135   31.9080   27.5440 C.3       3 GLC5        0.0000 
      8 CA         34.3590   29.8630   27.2010 C.3       9 GLL5        0.0000 
      9 CA         34.6680   33.9530   27.8870 C.3       6 GLP5        0.0000 
     10 CA         34.8955   29.6940   25.2005 C.3       3 GLC5        0.0000 
     11 CA         35.4320   29.5250   23.2000 C.3       6 GLP5        0.0000 
     12 CA         32.1695   30.4905   28.9020 C.3       3 GLC5        0.0000 
     13 CA         33.0840   30.2870   27.0580 C.3       9 GLL5        0.0000 
     14 CA         32.4640   31.4850   25.7545 C.3       3 GLC5        0.0000 
     15 CA         31.8440   32.6830   24.4510 C.3       6 GLP5        0.0000 
     16 CA         32.6380   32.2020   27.5010 C.3       3 GLC5        0.0000 
     17 CA         32.1920   34.1170   27.9440 C.3       6 GLP5        0.0000 
     18 CA         36.5875   22.6140   26.5185 C.3       3 GLC5        0.0000 
     19 CA         37.3580   24.1790   27.4690 C.3       9 GLL5        0.0000 
     20 CA         35.8170   21.0490   25.5680 C.3       6 GLP5        0.0000 
     21 CA         35.7890   24.2850   25.8690 C.3       3 GLC5        0.0000 
     22 CA         34.2200   24.3910   24.2690 C.3       6 GLP5        0.0000 
     23 O          30.8815   30.1850   27.4500 O.2       1 ALC1        0.0000 
     24 O          32.0130   29.5530   27.5420 O.2       7 ALL1        0.0000 
     25 O          29.7500   30.8170   27.3580 O.2       4 ALP1        0.0000 
     26 N          29.8460   27.6185   28.0335 N.am      2 SEC2        0.0000 
     27 N          31.1420   27.7020   28.6310 N.am      8 SEL2        0.0000 
     28 N          28.5500   27.5350   27.4360 N.am      5 SEP2        0.0000 
     29 O          37.0450   22.2285   27.7065 O.2       1 ALC1        0.0000 
     30 O          36.4770   23.4170   28.2790 O.2       7 ALL1        0.0000 
     31 O          37.6130   21.0400   27.1340 O.2       4 ALP1        0.0000 
     32 CA         39.0377   25.7878   31.1570 C.3       3 GLC5        0.0000 
     33 CA         40.3460   25.6580   29.3700 C.3       9 GLL5        0.0000 
     34 CA         37.9860   25.3230   32.6610 C.3       6 GLP5        0.0000 
     35 CA         40.8192   26.3293   31.5155 C.3       3 GLC5        0.0000 
     36 CA         39.8330   26.8470   29.9360 C.3       9 GLL5        0.0000 
     37 CA         41.5490   26.4060   33.3780 C.3       6 GLP5        0.0000 
     38 CA         41.9337   27.1803   30.2455 C.3       3 GLC5        0.0000 
     39 CA         43.7780   28.1080   30.8380 C.3       6 GLP5        0.0000 
     40 CA         38.0108   26.0570   30.9888 C.3       3 GLC5        0.0000 
     41 CA         33.9735   26.2548   31.0478 C.3       3 GLC5        0.0000 
     42 CA         35.0630   26.1050   29.2490 C.3       9 GLL5        0.0000 
     43 CA         33.5470   26.1730   32.9300 C.3       6 GLP5        0.0000 
     44 CA         38.4057   25.1552   30.5598 C.3       3 GLC5        0.0000 
     45 CA         38.1380   25.1530   28.3350 C.3       9 GLL5        0.0000 
     46 CA         36.6047   28.9318   29.7670 C.3       3 GLC5        0.0000 
     47 CA         36.1850   26.8530   28.7500 C.3       9 GLL5        0.0000 
     48 CA         34.4325   29.0625   30.0105 C.3       3 GLC5        0.0000 
     49 CA         34.6070   28.5760   27.9000 C.3       9 GLL5        0.0000 
     50 CA         34.8090   29.9370   31.8670 C.3       6 GLP5        0.0000 
     51 CA         33.4503   28.2630   26.1638 C.3       3 GLC5        0.0000 
     52 CA         33.1790   26.4510   25.1980 C.3       6 GLP5        0.0000 
     53 CA         33.8948   27.0758   26.7927 C.3       3 GLC5        0.0000 
@<TRIPOS>BOND
@<TRIPOS>SUBSTRUCTURE
     1 ALC1       23 GROUP        1 X    ALC  0     ROOT ALC X 1
     2 SEC2       26 GROUP        1 X    SEC  0     **** SEC X 2
     3 GLC5        1 GROUP        1 X    GLC  0     **** GLC X 6
     4 ALP1       25 GROUP        1 Y    ALP  0     ROOT ALP Y 8
     5 SEP2       28 GROUP        1 Y    SEP  0     **** SEP Y 9
     6 GLP5        3 GROUP        1 Y    GLP  0     **** GLP Y 13
     7 ALL1       24 GROUP        1 Z    ALL  0     ROOT ALL Z 15
     8 SEL2       27 GROUP        1 Z    SEL  0     **** SEL Z 16
     9 GLL5        2 GROUP        1 Z    GLL  0     **** GLL Z 20
@<TRIPOS>SET

