#    Name: 3sc1_3S1_1_ligand
#    Modification time : Tue Mar 25 12:25:00 2014

@<TRIPOS>MOLECULE
3sc1_3S1_1_ligand
   32    34     1     0     0
SMALL
NO_CHARGES


@<TRIPOS>ATOM
      1 C5         39.8330   26.8470   29.9360 C.ar      1 3S1900      0.0000 
      2 C4         40.3460   25.6580   29.3700 C.ar      1 3S1900      0.0000 
      3 C6         38.4790   27.2030   29.7150 C.ar      1 3S1900      0.0000 
      4 C9         35.0630   26.1050   29.2490 C.ar      1 3S1900      0.0000 
      5 C10        33.7370   26.5680   29.0820 C.ar      1 3S1900      0.0000 
      6 C3         39.5130   24.8220   28.5820 C.ar      1 3S1900      0.0000 
      7 C16        35.9300   28.0900   28.0760 C.ar      1 3S1900      0.0000 
      8 C8         36.1850   26.8530   28.7500 C.ar      1 3S1900      0.0000 
      9 C7         37.5920   26.3790   28.9180 C.ar      1 3S1900      0.0000 
     10 C11        33.5050   27.8000   28.4080 C.ar      1 3S1900      0.0000 
     11 C15        34.6070   28.5760   27.9000 C.ar      1 3S1900      0.0000 
     12 C2         38.1380   25.1530   28.3350 C.ar      1 3S1900      0.0000 
     13 C14        34.3590   29.8630   27.2010 C.2       1 3S1900      0.0000 
     14 C13        33.0840   30.2870   27.0580 C.2       1 3S1900      0.0000 
     15 C12        32.1120   28.3240   28.2170 C.2       1 3S1900      0.0000 
     16 C1         37.3580   24.1790   27.4690 C.3       1 3S1900      0.0000 
     17 N1         32.0130   29.5530   27.5420 N.am      1 3S1900      0.0000 
     18 O2         31.1420   27.7020   28.6310 O.2       1 3S1900      0.0000 
     19 O1         36.4770   23.4170   28.2790 O.3       1 3S1900      0.0000 
     20 H          40.4318   27.4464   30.5003 H         1 3S1900      0.0000 
     21 H          41.3215   25.3967   29.5275 H         1 3S1900      0.0000 
     22 H          38.1028   28.0666   30.1253 H         1 3S1900      0.0000 
     23 H          35.2384   25.2183   29.7348 H         1 3S1900      0.0000 
     24 H          32.9543   26.0289   29.4385 H         1 3S1900      0.0000 
     25 H          39.8953   23.9599   28.1764 H         1 3S1900      0.0000 
     26 H          36.7221   28.6329   27.7145 H         1 3S1900      0.0000 
     27 H          35.1681   30.3656   26.8618 H         1 3S1900      0.0000 
     28 H          32.8844   31.1928   26.5705 H         1 3S1900      0.0000 
     29 H          38.0822   23.5432   26.9423 H         1 3S1900      0.0000 
     30 H          36.8164   24.7617   26.7119 H         1 3S1900      0.0000 
     31 H          31.0348   29.9440   27.3950 H         1 3S1900      0.0000 
     32 H          36.6794   22.4636   28.0553 H         1 3S1900      0.0000 
@<TRIPOS>BOND
     1    2    1 ar   
     2    3    1 ar   
     3   20    1 1    
     4    6    2 ar   
     5   21    2 1    
     6    9    3 ar   
     7   22    3 1    
     8    5    4 ar   
     9    8    4 ar   
    10   23    4 1    
    11   10    5 ar   
    12   24    5 1    
    13   12    6 ar   
    14   25    6 1    
    15    8    7 ar   
    16   11    7 ar   
    17   26    7 1    
    18    9    8 1    
    19   12    9 ar   
    20   11   10 ar   
    21   15   10 1    
    22   13   11 1    
    23   16   12 1    
    24   14   13 2    
    25   27   13 1    
    26   17   14 1    
    27   28   14 1    
    28   17   15 am   
    29   18   15 2    
    30   19   16 1    
    31   29   16 1    
    32   30   16 1    
    33   31   17 1    
    34   32   19 1    
@<TRIPOS>SUBSTRUCTURE
     1 3S1900      1 GROUP   
@<TRIPOS>SET

