#    Name: 2x0q_ATP_1_INTS_M
#    Modification time : Tue Mar 25 04:56:53 2014

@<TRIPOS>MOLECULE
2x0q_ATP_1_INTS_M
   88     0    12     0     0
SMALL
NO_CHARGES


@<TRIPOS>ATOM
      1 Zn         31.3125   17.0645   11.4365 Zn        3 ZIC7        0.0000 
      2 Zn         31.7390   17.2410   12.3940 Zn       11 ZIL7        0.0000 
      3 Zn         30.8860   16.8880   10.4790 Zn        7 ZIP7        0.0000 
      4 N          33.2535   15.9840   14.8995 N.am      1 SEC2        0.0000 
      5 N          33.2650   17.3220   14.3960 N.am      9 SEL2        0.0000 
      6 N          33.2420   14.6460   15.4030 N.am      5 SEP2        0.0000 
      7 N          34.3910   17.2250   15.1990 N.am      1 SEC2        0.0000 
      8 N          35.5170   17.1280   16.0020 N.am      5 SEP2        0.0000 
      9 N          33.1195   18.8760   14.7065 N.am      1 SEC2        0.0000 
     10 N          32.9740   20.4300   15.0170 N.am      5 SEP2        0.0000 
     11 NZ         35.0340   18.6475   11.7790 N.4       2 LYC4        0.0000 
     12 NZ         33.8050   18.6780   12.3770 N.4      10 LYL4        0.0000 
     13 NZ         36.2630   18.6170   11.1810 N.4       6 LYP4        0.0000 
     14 NZ         33.3895   19.5540   13.6970 N.4       2 LYC4        0.0000 
     15 NZ         33.2070   21.5020   14.2660 N.4       6 LYP4        0.0000 
     16 N          35.0340   18.6475   11.7790 N.am      1 SEC2        0.0000 
     17 N          33.8050   18.6780   12.3770 N.am      9 SEL2        0.0000 
     18 N          36.2630   18.6170   11.1810 N.am      5 SEP2        0.0000 
     19 N          33.3895   19.5540   13.6970 N.am      1 SEC2        0.0000 
     20 N          33.7975   20.0180   12.7280 N.am      1 SEC2        0.0000 
     21 N          33.7900   21.3580   13.0790 N.am      5 SEP2        0.0000 
     22 NZ         36.1615   14.6745   10.5475 N.4       2 LYC4        0.0000 
     23 NZ         35.0170   14.2410   11.1380 N.4      10 LYL4        0.0000 
     24 NZ         38.1280   14.8770   10.9570 N.4       6 LYP4        0.0000 
     25 N          36.3370   14.4260   11.6510 N.am      1 SEC2        0.0000 
     26 N          35.0170   14.2410   11.1380 N.am      9 SEL2        0.0000 
     27 N          37.6570   14.6110   12.1640 N.am      5 SEP2        0.0000 
     28 N          36.1615   14.6745   10.5475 N.am      1 SEC2        0.0000 
     29 N          37.3060   15.1080    9.9570 N.am      5 SEP2        0.0000 
     30 NZ         36.1280   15.8415   10.0020 N.4       2 LYC4        0.0000 
     31 NZ         34.9500   16.5750   10.0470 N.4      10 LYL4        0.0000 
     32 NZ         35.6065   17.5960   10.6140 N.4       2 LYC4        0.0000 
     33 Zn         34.6405   16.9540    9.0105 Zn        3 ZIC7        0.0000 
     34 Zn         34.9500   16.5750   10.0470 Zn       11 ZIL7        0.0000 
     35 Zn         34.3310   17.3330    7.9740 Zn        7 ZIP7        0.0000 
     36 N          36.1280   15.8415   10.0020 N.am      1 SEC2        0.0000 
     37 N          34.9500   16.5750   10.0470 N.am      9 SEL2        0.0000 
     38 N          35.6065   17.5960   10.6140 N.am      1 SEC2        0.0000 
     39 N          33.6415   15.4120   13.9000 N.am      1 SEC2        0.0000 
     40 N          34.0410   16.1780   12.3970 N.am      9 SEL2        0.0000 
     41 Zn         30.9305   16.1390    9.5660 Zn        3 ZIC7        0.0000 
     42 Zn         30.9750   15.3900    8.6530 Zn       11 ZIL7        0.0000 
     43 N          29.5340   15.0990    8.2825 N.am      1 SEC2        0.0000 
     44 N          30.9750   15.3900    8.6530 N.am      9 SEL2        0.0000 
     45 N          28.0930   14.8080    7.9120 N.am      5 SEP2        0.0000 
     46 Zn         33.8820   16.1240    7.9345 Zn        3 ZIC7        0.0000 
     47 Zn         33.4330   14.9150    7.8950 Zn       11 ZIL7        0.0000 
     48 N          34.1905   13.4625    8.1380 N.am      1 SEC2        0.0000 
     49 N          33.4330   14.9150    7.8950 N.am      9 SEL2        0.0000 
     50 N          34.9480   12.0100    8.3810 N.am      5 SEP2        0.0000 
     51 Zn         31.8370   16.0840   10.4305 Zn        3 ZIC7        0.0000 
     52 Zn         32.7880   15.2800   10.3820 Zn       11 ZIL7        0.0000 
     53 N          33.4945   12.6030    8.7275 N.am      1 SEC2        0.0000 
     54 N          32.0410   13.1960    9.0740 N.am      9 SEL2        0.0000 
     55 CA         32.1310   12.0985   12.9140 C.3       4 GLC5        0.0000 
     56 CA         31.6490   11.8080   10.9910 C.3      12 GLL5        0.0000 
     57 CA         32.6130   12.3890   14.8370 C.3       8 GLP5        0.0000 
     58 CA         31.2190    9.9375    8.5175 C.3       4 GLC5        0.0000 
     59 CA         31.9880   10.4620   10.3700 C.3      12 GLL5        0.0000 
     60 CA         30.4500    9.4130    6.6650 C.3       8 GLP5        0.0000 
     61 N          33.1765    8.4245   11.2210 N.am      1 SEC2        0.0000 
     62 N          33.0320    9.8570   11.1570 N.am      9 SEL2        0.0000 
     63 N          33.3210    6.9920   11.2850 N.am      5 SEP2        0.0000 
     64 CA         30.2450    8.7995    8.9895 C.3       4 GLC5        0.0000 
     65 CA         30.7080    9.6720   10.5710 C.3      12 GLL5        0.0000 
     66 CA         29.7820    7.9270    7.4080 C.3       8 GLP5        0.0000 
     67 N          29.7100    7.5575   10.7805 N.am      1 SEC2        0.0000 
     68 N          30.9030    8.2620   10.5420 N.am      9 SEL2        0.0000 
     69 N          28.5170    6.8530   11.0190 N.am      5 SEP2        0.0000 
     70 CA         31.4525   11.2690   13.3960 C.3       4 GLC5        0.0000 
     71 CA         30.2920   10.1490   11.9550 C.3      12 GLL5        0.0000 
     72 CA         26.5225   10.8255    8.0045 C.3       4 GLC5        0.0000 
     73 CA         26.7160   11.6160    9.6020 C.3      12 GLL5        0.0000 
     74 CA         26.3290   10.0350    6.4070 C.3       8 GLP5        0.0000 
     75 CA         26.3230   13.2190    8.5660 C.3       4 GLC5        0.0000 
     76 CA         25.9300   14.8220    7.5300 C.3       8 GLP5        0.0000 
     77 CA         26.8780   12.8240   10.9925 C.3       4 GLC5        0.0000 
     78 CA         27.0400   14.0320   12.3830 C.3       8 GLP5        0.0000 
     79 CA         27.1255    9.3220    9.7255 C.3       4 GLC5        0.0000 
     80 CA         27.8880   10.5870   11.3660 C.3      12 GLL5        0.0000 
     81 CA         26.3630    8.0570    8.0850 C.3       8 GLP5        0.0000 
     82 CA         25.7590    8.5257   12.1530 C.3       4 GLC5        0.0000 
     83 CA         26.6080   10.2820   12.0300 C.3      12 GLL5        0.0000 
     84 CA         25.5240    6.5430   12.6180 C.3       8 GLP5        0.0000 
     85 CA         25.6145    9.1887   10.3905 C.3       4 GLC5        0.0000 
     86 CA         25.2350    7.8690    9.0930 C.3       8 GLP5        0.0000 
     87 CA         26.9905   12.2899   11.9550 C.3       4 GLC5        0.0000 
     88 CA         25.3800   10.7350   11.3460 C.3      12 GLL5        0.0000 
@<TRIPOS>BOND
@<TRIPOS>SUBSTRUCTURE
     1 SEC2        4 GROUP        1 X    SEC  0     ROOT SEC X 2
     2 LYC4       11 GROUP        1 X    LYC  0     **** LYC X 4
     3 ZIC7        1 GROUP        1 X    ZIC  0     **** ZIC X 5
     4 GLC5       55 GROUP        1 X    GLC  0     **** GLC X 6
     5 SEP2        6 GROUP        1 Y    SEP  0     ROOT SEP Y 9
     6 LYP4       13 GROUP        1 Y    LYP  0     **** LYP Y 11
     7 ZIP7        3 GROUP        1 Y    ZIP  0     **** ZIP Y 12
     8 GLP5       57 GROUP        1 Y    GLP  0     **** GLP Y 13
     9 SEL2        5 GROUP        1 Z    SEL  0     ROOT SEL Z 16
    10 LYL4       12 GROUP        1 Z    LYL  0     **** LYL Z 18
    11 ZIL7        2 GROUP        1 Z    ZIL  0     **** ZIL Z 19
    12 GLL5       56 GROUP        1 Z    GLL  0     **** GLL Z 20
@<TRIPOS>SET

