#    Name: 2x0q_ATP_1_ligand
#    Modification time : Tue Mar 25 04:56:53 2014

@<TRIPOS>MOLECULE
2x0q_ATP_1_ligand
   43    45     1     0     0
SMALL
NO_CHARGES


@<TRIPOS>ATOM
      1 PG         33.1320   17.4390   12.9000 P.3       1 ATP1607     0.0000 
      2 O1G        31.7390   17.2410   12.3940 O.co2     1 ATP1607     0.0000 
      3 O2G        33.2650   17.3220   14.3960 O.co2     1 ATP1607     0.0000 
      4 O3G        33.8050   18.6780   12.3770 O.co2     1 ATP1607     0.0000 
      5 PB         34.2960   15.5570   10.9220 P.3       1 ATP1607     0.0000 
      6 O1B        35.0170   14.2410   11.1380 O.co2     1 ATP1607     0.0000 
      7 O2B        34.9500   16.5750   10.0470 O.co2     1 ATP1607     0.0000 
      8 O3B        34.0410   16.1780   12.3970 O.3       1 ATP1607     0.0000 
      9 PA         32.3340   14.7590    8.9040 P.3       1 ATP1607     0.0000 
     10 O1A        30.9750   15.3900    8.6530 O.co2     1 ATP1607     0.0000 
     11 O2A        33.4330   14.9150    7.8950 O.co2     1 ATP1607     0.0000 
     12 O3A        32.7880   15.2800   10.3820 O.3       1 ATP1607     0.0000 
     13 O5'        32.0410   13.1960    9.0740 O.3       1 ATP1607     0.0000 
     14 C5'        31.0210   12.7760    9.9890 C.3       1 ATP1607     0.0000 
     15 C4'        31.6490   11.8080   10.9910 C.3       1 ATP1607     0.0000 
     16 O4'        30.7150   11.5190   12.0230 O.3       1 ATP1607     0.0000 
     17 C3'        31.9880   10.4620   10.3700 C.3       1 ATP1607     0.0000 
     18 O3'        33.0320    9.8570   11.1570 O.3       1 ATP1607     0.0000 
     19 C2'        30.7080    9.6720   10.5710 C.3       1 ATP1607     0.0000 
     20 O2'        30.9030    8.2620   10.5420 O.3       1 ATP1607     0.0000 
     21 C1'        30.2920   10.1490   11.9550 C.3       1 ATP1607     0.0000 
     22 N9         28.8310   10.0890   12.1740 N.pl3     1 ATP1607     0.0000 
     23 C8         28.2320    9.5220   13.2460 C.2       1 ATP1607     0.0000 
     24 N7         26.8830    9.6420   13.1810 N.2       1 ATP1607     0.0000 
     25 C5         26.6080   10.2820   12.0300 C.ar      1 ATP1607     0.0000 
     26 C6         25.3800   10.7350   11.3460 C.ar      1 ATP1607     0.0000 
     27 N6         24.1850   10.4850   11.9090 N.pl3     1 ATP1607     0.0000 
     28 N1         25.5030   11.3820   10.1590 N.ar      1 ATP1607     0.0000 
     29 C2         26.7160   11.6160    9.6020 C.ar      1 ATP1607     0.0000 
     30 N3         27.8760   11.2430   10.1700 N.ar      1 ATP1607     0.0000 
     31 C4         27.8880   10.5870   11.3660 C.ar      1 ATP1607     0.0000 
     32 H          30.2107   12.2552    9.4810 H         1 ATP1607     0.0000 
     33 H          30.6065   13.6147   10.5464 H         1 ATP1607     0.0000 
     34 H          32.5428   12.2356   11.3909 H         1 ATP1607     0.0000 
     35 H          32.1961   10.5688    9.3744 H         1 ATP1607     0.0000 
     36 H          29.9859   10.0318    9.8789 H         1 ATP1607     0.0000 
     37 H          30.8124    9.5663   12.6855 H         1 ATP1607     0.0000 
     38 H          28.7124    9.0785   13.9804 H         1 ATP1607     0.0000 
     39 H          24.2043   10.0220   12.7951 H         1 ATP1607     0.0000 
     40 H          23.3835   10.7844   11.3914 H         1 ATP1607     0.0000 
     41 H          26.7473   12.1222    8.6651 H         1 ATP1607     0.0000 
     42 H          33.0192   10.3503   12.0268 H         1 ATP1607     0.0000 
     43 H          31.8493    8.1256   10.8351 H         1 ATP1607     0.0000 
@<TRIPOS>BOND
     1    2    1 ar   
     2    3    1 ar   
     3    4    1 ar   
     4    8    1 1    
     5    6    5 ar   
     6    7    5 ar   
     7    8    5 1    
     8   12    5 1    
     9   10    9 ar   
    10   11    9 ar   
    11   12    9 1    
    12   13    9 1    
    13   14   13 1    
    14   15   14 1    
    15   32   14 1    
    16   33   14 1    
    17   16   15 1    
    18   17   15 1    
    19   34   15 1    
    20   21   16 1    
    21   18   17 1    
    22   19   17 1    
    23   35   17 1    
    24   42   18 1    
    25   20   19 1    
    26   21   19 1    
    27   36   19 1    
    28   43   20 1    
    29   22   21 1    
    30   37   21 1    
    31   23   22 1    
    32   31   22 1    
    33   24   23 2    
    34   38   23 1    
    35   25   24 1    
    36   26   25 ar   
    37   31   25 ar   
    38   27   26 1    
    39   28   26 ar   
    40   39   27 1    
    41   40   27 1    
    42   29   28 ar   
    43   30   29 ar   
    44   41   29 1    
    45   31   30 ar   
@<TRIPOS>SUBSTRUCTURE
     1 ATP1607     1 GROUP   
@<TRIPOS>SET

