#    Name: 4efb_0OW_2_INTS_M
#    Modification time : Tue Mar 25 10:57:58 2014

@<TRIPOS>MOLECULE
4efb_0OW_2_INTS_M
   55     0     9     0     0
SMALL
NO_CHARGES


@<TRIPOS>ATOM
      1 O          19.7630   29.6450   47.8905 O.2       1 ALC1        0.0000 
      2 O          19.8440   30.8730   48.9530 O.2       7 ALL1        0.0000 
      3 O          19.6820   28.4170   46.8280 O.2       4 ALP1        0.0000 
      4 CA         17.7605   34.7950   52.7955 C.3       3 GLC5        0.0000 
      5 CA         18.2510   33.5730   51.0930 C.3       9 GLL5        0.0000 
      6 CA         17.2700   36.0170   54.4980 C.3       6 GLP5        0.0000 
      7 CA         20.6775   36.9390   50.6240 C.3       3 GLC5        0.0000 
      8 CA         21.9440   37.5730   52.1850 C.3       9 GLL5        0.0000 
      9 CA         19.4110   36.3050   49.0630 C.3       6 GLP5        0.0000 
     10 CA         20.8915   38.6000   50.7620 C.3       3 GLC5        0.0000 
     11 CA         19.8390   39.6270   49.3390 C.3       6 GLP5        0.0000 
     12 N          17.5530   29.9300   49.0610 N.am      2 SEC2        0.0000 
     13 N          17.7300   31.1810   49.5360 N.am      8 SEL2        0.0000 
     14 N          17.3760   28.6790   48.5860 N.am      5 SEP2        0.0000 
     15 O          15.8720   34.2575   51.4880 O.2       1 ALC1        0.0000 
     16 O          16.9040   33.3480   50.8680 O.2       7 ALL1        0.0000 
     17 O          14.8400   35.1670   52.1080 O.2       4 ALP1        0.0000 
     18 N          17.8095   35.6395   52.5215 N.am      2 SEC2        0.0000 
     19 N          18.6280   34.6220   51.8590 N.am      8 SEL2        0.0000 
     20 N          16.9910   36.6570   53.1840 N.am      5 SEP2        0.0000 
     21 CA         21.0095   33.2720   53.0545 C.3       3 GLC5        0.0000 
     22 CA         19.9110   34.8840   52.1020 C.3       9 GLL5        0.0000 
     23 CA         22.1080   31.6600   54.0070 C.3       6 GLP5        0.0000 
     24 CA         19.1310   33.8300   53.7560 C.3       3 GLC5        0.0000 
     25 CA         18.3510   32.7760   55.4100 C.3       6 GLP5        0.0000 
     26 CA         18.5905   35.4505   53.3000 C.3       3 GLC5        0.0000 
     27 N          18.6110   36.3060   53.0290 N.am      2 SEC2        0.0000 
     28 N          20.2310   35.9550   52.8740 N.am      8 SEL2        0.0000 
     29 CA         21.3695   32.3505   52.4135 C.3       3 GLC5        0.0000 
     30 CA         20.6310   33.0410   50.8200 C.3       9 GLL5        0.0000 
     31 CA         21.4605   34.4830   48.7960 C.3       3 GLC5        0.0000 
     32 CA         23.4310   33.7420   49.3860 C.3       9 GLL5        0.0000 
     33 CA         19.4900   35.2240   48.2060 C.3       6 GLP5        0.0000 
     34 CA         26.7070   34.4580   48.5785 C.3       3 GLC5        0.0000 
     35 CA         24.9510   33.4790   49.1420 C.3       9 GLL5        0.0000 
     36 CA         28.4630   35.4370   48.0150 C.3       6 GLP5        0.0000 
     37 CA         23.0985   29.9470   51.3750 C.3       3 GLC5        0.0000 
     38 CA         24.0130   31.6300   50.4330 C.3       9 GLL5        0.0000 
     39 CA         22.1840   28.2640   52.3170 C.3       6 GLP5        0.0000 
     40 CA         22.0852   34.9198   54.8127 C.3       3 GLC5        0.0000 
     41 CA         21.6210   36.3030   53.0070 C.3       9 GLL5        0.0000 
     42 CA         22.3870   33.3340   55.8960 C.3       6 GLP5        0.0000 
     43 CA         25.2608   38.2138   53.8658 C.3       3 GLC5        0.0000 
     44 CA         22.9960   37.8280   54.3640 C.3       9 GLL5        0.0000 
     45 CA         27.4080   38.4660   54.1150 C.3       6 GLP5        0.0000 
     46 CA         23.3295   37.3845   56.0120 C.3       3 GLC5        0.0000 
     47 CA         24.1880   37.5010   57.6160 C.3       6 GLP5        0.0000 
     48 CA         21.7165   38.6445   55.5390 C.3       3 GLC5        0.0000 
     49 CA         20.9620   40.0210   56.6700 C.3       6 GLP5        0.0000 
     50 CA         18.9601   31.9887   52.3003 C.3       3 GLC5        0.0000 
     51 CA         18.2270   30.8870   53.7880 C.3       6 GLP5        0.0000 
     52 CA         22.8118   31.9310   52.2415 C.3       3 GLC5        0.0000 
     53 CA         23.0180   32.7740   50.5190 C.3       9 GLL5        0.0000 
     54 CA         24.2940   33.9348   47.4035 C.3       3 GLC5        0.0000 
     55 CA         24.3970   34.2590   45.5430 C.3       6 GLP5        0.0000 
@<TRIPOS>BOND
@<TRIPOS>SUBSTRUCTURE
     1 ALC1        1 GROUP        1 X    ALC  0     ROOT ALC X 1
     2 SEC2       12 GROUP        1 X    SEC  0     **** SEC X 2
     3 GLC5        4 GROUP        1 X    GLC  0     **** GLC X 6
     4 ALP1        3 GROUP        1 Y    ALP  0     ROOT ALP Y 8
     5 SEP2       14 GROUP        1 Y    SEP  0     **** SEP Y 9
     6 GLP5        6 GROUP        1 Y    GLP  0     **** GLP Y 13
     7 ALL1        2 GROUP        1 Z    ALL  0     ROOT ALL Z 15
     8 SEL2       13 GROUP        1 Z    SEL  0     **** SEL Z 16
     9 GLL5        5 GROUP        1 Z    GLL  0     **** GLL Z 20
@<TRIPOS>SET

