#    Name: 4efb_0OW_2_ligand
#    Modification time : Tue Mar 25 10:57:58 2014

@<TRIPOS>MOLECULE
4efb_0OW_2_ligand
   45    47     1     0     0
SMALL
NO_CHARGES


@<TRIPOS>ATOM
      1 N1         19.8440   30.8730   48.9530 N.am      1 0OW404      0.0000 
      2 C2         18.8960   31.5360   49.6480 C.2       1 0OW404      0.0000 
      3 C4         19.2600   32.7070   50.5170 C.ar      1 0OW404      0.0000 
      4 C5         18.2510   33.5730   51.0930 C.ar      1 0OW404      0.0000 
      5 C10        21.6210   36.3030   53.0070 C.3       1 0OW404      0.0000 
      6 C11        21.9440   37.5730   52.1850 C.3       1 0OW404      0.0000 
      7 C12        23.2310   38.0950   52.8690 C.3       1 0OW404      0.0000 
      8 C13        22.9960   37.8280   54.3640 C.3       1 0OW404      0.0000 
      9 C14        21.9460   36.7080   54.4520 C.3       1 0OW404      0.0000 
     10 O3         17.7300   31.1810   49.5360 O.2       1 0OW404      0.0000 
     11 N6         16.9040   33.3480   50.8680 N.pl3     1 0OW404      0.0000 
     12 N7         18.6280   34.6220   51.8590 N.ar      1 0OW404      0.0000 
     13 C8         19.9110   34.8840   52.1020 C.ar      1 0OW404      0.0000 
     14 O9         20.2310   35.9550   52.8740 O.3       1 0OW404      0.0000 
     15 N15        20.8850   34.1130   51.5990 N.ar      1 0OW404      0.0000 
     16 C16        20.6310   33.0410   50.8200 C.ar      1 0OW404      0.0000 
     17 O17        21.6690   32.2950   50.3300 O.3       1 0OW404      0.0000 
     18 C18        23.0180   32.7740   50.5190 C.3       1 0OW404      0.0000 
     19 C20        23.4310   33.7420   49.3860 C.3       1 0OW404      0.0000 
     20 C21        24.9510   33.4790   49.1420 C.3       1 0OW404      0.0000 
     21 C22        25.3380   32.3390   50.1290 C.3       1 0OW404      0.0000 
     22 C23        24.0130   31.6300   50.4330 C.3       1 0OW404      0.0000 
     23 O25        23.6750   30.7430   49.3480 O.3       1 0OW404      0.0000 
     24 H          19.5283   30.0942   48.4109 H         1 0OW404      0.0000 
     25 H          20.7779   31.2194   49.0419 H         1 0OW404      0.0000 
     26 H          22.2849   35.5409   52.7122 H         1 0OW404      0.0000 
     27 H          21.1720   38.2761   52.3015 H         1 0OW404      0.0000 
     28 H          22.1553   37.3071   51.1907 H         1 0OW404      0.0000 
     29 H          23.3223   39.1356   52.6993 H         1 0OW404      0.0000 
     30 H          24.0619   37.5343   52.5296 H         1 0OW404      0.0000 
     31 H          22.6153   38.7120   54.8301 H         1 0OW404      0.0000 
     32 H          23.9075   37.4996   54.8166 H         1 0OW404      0.0000 
     33 H          22.3586   35.8721   54.9745 H         1 0OW404      0.0000 
     34 H          21.0645   37.0816   54.9266 H         1 0OW404      0.0000 
     35 H          16.6789   32.5552   50.3016 H         1 0OW404      0.0000 
     36 H          16.2726   33.9977   51.2914 H         1 0OW404      0.0000 
     37 H          23.1563   33.2765   51.4449 H         1 0OW404      0.0000 
     38 H          23.2984   34.7456   49.7053 H         1 0OW404      0.0000 
     39 H          22.8915   33.5104   48.5017 H         1 0OW404      0.0000 
     40 H          25.5003   34.3537   49.3788 H         1 0OW404      0.0000 
     41 H          25.0937   33.1479   48.1456 H         1 0OW404      0.0000 
     42 H          25.7335   32.7656   51.0139 H         1 0OW404      0.0000 
     43 H          26.0043   31.6728   49.6455 H         1 0OW404      0.0000 
     44 H          24.0874   31.1604   51.3644 H         1 0OW404      0.0000 
     45 H          22.9685   30.1395   49.7177 H         1 0OW404      0.0000 
@<TRIPOS>BOND
     1    2    1 am   
     2   24    1 1    
     3   25    1 1    
     4    3    2 1    
     5   10    2 2    
     6    4    3 ar   
     7   16    3 ar   
     8   11    4 1    
     9   12    4 ar   
    10    6    5 1    
    11    9    5 1    
    12   14    5 1    
    13   26    5 1    
    14    7    6 1    
    15   27    6 1    
    16   28    6 1    
    17    8    7 1    
    18   29    7 1    
    19   30    7 1    
    20    9    8 1    
    21   31    8 1    
    22   32    8 1    
    23   33    9 1    
    24   34    9 1    
    25   35   11 1    
    26   36   11 1    
    27   13   12 ar   
    28   14   13 1    
    29   15   13 ar   
    30   16   15 ar   
    31   17   16 1    
    32   18   17 1    
    33   19   18 1    
    34   22   18 1    
    35   37   18 1    
    36   20   19 1    
    37   38   19 1    
    38   39   19 1    
    39   21   20 1    
    40   40   20 1    
    41   41   20 1    
    42   22   21 1    
    43   42   21 1    
    44   43   21 1    
    45   23   22 1    
    46   44   22 1    
    47   45   23 1    
@<TRIPOS>SUBSTRUCTURE
     1 0OW404      1 GROUP   
@<TRIPOS>SET

