#    Name: 2e0a_ANP_1_INTS_M
#    Modification time : Tue Mar 25 10:26:02 2014

@<TRIPOS>MOLECULE
2e0a_ANP_1_INTS_M
   69     0    12     0     0
SMALL
NO_CHARGES


@<TRIPOS>ATOM
      1 Zn         50.4135    8.8720   15.0070 Zn        3 ZIC7        0.0000 
      2 Zn         51.3480    8.2320   14.8680 Zn       11 ZIL7        0.0000 
      3 Zn         49.4790    9.5120   15.1460 Zn        7 ZIP7        0.0000 
      4 N          51.9835    4.8115   14.5030 N.am      2 SEC2        0.0000 
      5 N          52.5630    6.0710   14.6880 N.am     10 SEL2        0.0000 
      6 N          51.4040    3.5520   14.3180 N.am      6 SEP2        0.0000 
      7 N          51.4530    5.5490   15.5775 N.am      2 SEC2        0.0000 
      8 N          50.3430    5.0270   16.4670 N.am      6 SEP2        0.0000 
      9 N          50.3550    7.4280    9.6445 N.am      2 SEC2        0.0000 
     10 N          49.7570    7.6830   10.8020 N.am     10 SEL2        0.0000 
     11 N          50.9530    7.1730    8.4870 N.am      6 SEP2        0.0000 
     12 Zn         49.5635    9.2705   14.0485 Zn        3 ZIC7        0.0000 
     13 Zn         49.6480    9.0290   12.9510 Zn       11 ZIL7        0.0000 
     14 N          47.5300    5.0955   15.5035 N.am      2 SEC2        0.0000 
     15 N          47.6710    5.1660   14.0820 N.am     10 SEL2        0.0000 
     16 N          47.3890    5.0250   16.9250 N.am      6 SEP2        0.0000 
     17 Zn         48.7980    8.5085   14.9955 Zn        3 ZIC7        0.0000 
     18 Zn         48.1170    7.5050   14.8450 Zn       11 ZIL7        0.0000 
     19 N          47.0845    8.5155   15.1710 N.am      2 SEC2        0.0000 
     20 N          48.1170    7.5050   14.8450 N.am     10 SEL2        0.0000 
     21 N          46.0520    9.5260   15.4970 N.am      6 SEP2        0.0000 
     22 N          47.7530    6.2650   15.8850 N.am      2 SEC2        0.0000 
     23 CA         46.3275    5.0250    9.8555 C.3       4 GLC5        0.0000 
     24 CA         46.9910    6.3790   11.3390 C.3      12 GLL5        0.0000 
     25 CA         45.6640    3.6710    8.3720 C.3       8 GLP5        0.0000 
     26 CA         45.4130    6.1400   12.8890 C.3       4 GLC5        0.0000 
     27 CA         43.8350    5.9010   14.4390 C.3       8 GLP5        0.0000 
     28 CA         44.1690    6.3560    9.7890 C.3       4 GLC5        0.0000 
     29 CA         46.0920    7.1560   10.3400 C.3      12 GLL5        0.0000 
     30 CA         42.2460    5.5560    9.2380 C.3       8 GLP5        0.0000 
     31 CA         45.5320    5.8490    8.9400 C.3       4 GLC5        0.0000 
     32 CA         44.9720    4.5420    7.5400 C.3       8 GLP5        0.0000 
     33 N          48.2885   10.0685    9.0710 N.am      2 SEC2        0.0000 
     34 N          47.8960    8.5830    9.4060 N.am     10 SEL2        0.0000 
     35 N          48.6810   11.5540    8.7360 N.am      6 SEP2        0.0000 
     36 N          49.4245    7.8780    8.9465 N.am      2 SEC2        0.0000 
     37 N          48.3300    8.0105    7.9760 N.am      2 SEC2        0.0000 
     38 N          48.7640    7.4380    6.5460 N.am      6 SEP2        0.0000 
     39 N          47.6965    9.2715    7.9485 N.am      2 SEC2        0.0000 
     40 N          47.4970    9.9600    6.4910 N.am      6 SEP2        0.0000 
     41 CA         45.8220    8.8295    7.3180 C.3       4 GLC5        0.0000 
     42 CA         45.4740    9.2340    9.4520 C.3      12 GLL5        0.0000 
     43 CA         46.1700    8.4250    5.1840 C.3       8 GLP5        0.0000 
     44 O          46.4695    9.4230    7.2750 O.2       1 ALC1        0.0000 
     45 O          45.4420    8.8860    8.0590 O.2       9 ALL1        0.0000 
     46 O          47.4970    9.9600    6.4910 O.2       5 ALP1        0.0000 
     47 CA         43.2570    7.1060    9.7410 C.3       4 GLC5        0.0000 
     48 CA         44.2680    8.6560   10.2440 C.3      12 GLL5        0.0000 
     49 CA         44.2705   11.5250   13.7705 C.3       4 GLC5        0.0000 
     50 CA         42.7860   11.1610   12.4750 C.3      12 GLL5        0.0000 
     51 CA         45.7550   11.8890   15.0660 C.3       8 GLP5        0.0000 
     52 CA         42.6775   13.9750   11.6325 C.3       4 GLC5        0.0000 
     53 CA         41.9830   12.3360   12.5820 C.3      12 GLL5        0.0000 
     54 CA         43.3720   15.6140   10.6830 C.3       8 GLP5        0.0000 
     55 CA         39.9585   12.5445   13.1260 C.3       4 GLC5        0.0000 
     56 CA         37.9340   12.7530   13.6700 C.3       8 GLP5        0.0000 
     57 O          41.0670   14.1175   14.2270 O.2       1 ALC1        0.0000 
     58 O          41.7220   12.9130   13.8110 O.2       9 ALL1        0.0000 
     59 O          40.4120   15.3220   14.6430 O.2       5 ALP1        0.0000 
     60 CA         42.5420   13.9805   10.4610 C.3       4 GLC5        0.0000 
     61 CA         41.7120   12.3470   10.2390 C.3      12 GLL5        0.0000 
     62 CA         40.8575   10.9850    9.1755 C.3       4 GLC5        0.0000 
     63 CA         40.0030    9.6230    8.1120 C.3       8 GLP5        0.0000 
     64 CA         41.5050   10.1310    9.6395 C.3       4 GLC5        0.0000 
     65 CA         43.0070   10.6390   11.1670 C.3      12 GLL5        0.0000 
     66 CA         42.0385    8.6660   11.1520 C.3       4 GLC5        0.0000 
     67 CA         41.0700    6.6930   11.1370 C.3       8 GLP5        0.0000 
     68 CA         47.9267    6.1333    9.3718 C.3       4 GLC5        0.0000 
     69 CA         49.3120    5.4990    7.9040 C.3       8 GLP5        0.0000 
@<TRIPOS>BOND
@<TRIPOS>SUBSTRUCTURE
     1 ALC1       44 GROUP        1 X    ALC  0     ROOT ALC X 1
     2 SEC2        4 GROUP        1 X    SEC  0     **** SEC X 2
     3 ZIC7        1 GROUP        1 X    ZIC  0     **** ZIC X 5
     4 GLC5       23 GROUP        1 X    GLC  0     **** GLC X 6
     5 ALP1       46 GROUP        1 Y    ALP  0     ROOT ALP Y 8
     6 SEP2        6 GROUP        1 Y    SEP  0     **** SEP Y 9
     7 ZIP7        3 GROUP        1 Y    ZIP  0     **** ZIP Y 12
     8 GLP5       25 GROUP        1 Y    GLP  0     **** GLP Y 13
     9 ALL1       45 GROUP        1 Z    ALL  0     ROOT ALL Z 15
    10 SEL2        5 GROUP        1 Z    SEL  0     **** SEL Z 16
    11 ZIL7        2 GROUP        1 Z    ZIL  0     **** ZIL Z 19
    12 GLL5       24 GROUP        1 Z    GLL  0     **** GLL Z 20
@<TRIPOS>SET

