#    Name: 2e0a_ANP_1_ligand
#    Modification time : Tue Mar 25 10:26:02 2014

@<TRIPOS>MOLECULE
2e0a_ANP_1_ligand
   43    45     1     0     0
SMALL
NO_CHARGES


@<TRIPOS>ATOM
      1 PG         52.3040    7.5190   14.0780 P.3       1 ANP501      0.0000 
      2 O1G        51.3480    8.2320   14.8680 O.co2     1 ANP501      0.0000 
      3 O2G        52.5630    6.0710   14.6880 O.co2     1 ANP501      0.0000 
      4 O3G        53.6660    8.3120   14.0300 O.co2     1 ANP501      0.0000 
      5 PB         50.2080    7.7320   12.2090 P.3       1 ANP501      0.0000 
      6 O1B        49.7570    7.6830   10.8020 O.co2     1 ANP501      0.0000 
      7 O2B        49.6480    9.0290   12.9510 O.co2     1 ANP501      0.0000 
      8 N3B        51.7950    7.2910   12.4430 N.4       1 ANP501      0.0000 
      9 PA         48.0620    6.5270   13.6170 P.3       1 ANP501      0.0000 
     10 O1A        47.6710    5.1660   14.0820 O.co2     1 ANP501      0.0000 
     11 O2A        48.1170    7.5050   14.8450 O.co2     1 ANP501      0.0000 
     12 O3A        49.5320    6.4020   12.9200 O.3       1 ANP501      0.0000 
     13 O5'        47.0070    7.1480   12.5540 O.3       1 ANP501      0.0000 
     14 C5'        46.9910    6.3790   11.3390 C.3       1 ANP501      0.0000 
     15 C4'        46.0920    7.1560   10.3400 C.3       1 ANP501      0.0000 
     16 O4'        44.7330    7.3750   10.8120 O.3       1 ANP501      0.0000 
     17 C3'        46.6480    8.5520   10.1460 C.3       1 ANP501      0.0000 
     18 O3'        47.8960    8.5830    9.4060 O.3       1 ANP501      0.0000 
     19 C2'        45.4740    9.2340    9.4520 C.3       1 ANP501      0.0000 
     20 O2'        45.4420    8.8860    8.0590 O.3       1 ANP501      0.0000 
     21 C1'        44.2680    8.6560   10.2440 C.3       1 ANP501      0.0000 
     22 N9         43.7900    9.5370   11.3340 N.pl3     1 ANP501      0.0000 
     23 C8         44.0330    9.4010   12.6900 C.2       1 ANP501      0.0000 
     24 N7         43.4450   10.3500   13.3520 N.2       1 ANP501      0.0000 
     25 C5         42.7860   11.1610   12.4750 C.ar      1 ANP501      0.0000 
     26 C6         41.9830   12.3360   12.5820 C.ar      1 ANP501      0.0000 
     27 N6         41.7220   12.9130   13.8110 N.pl3     1 ANP501      0.0000 
     28 N1         41.4770   12.8800   11.4520 N.ar      1 ANP501      0.0000 
     29 C2         41.7120   12.3470   10.2390 C.ar      1 ANP501      0.0000 
     30 N3         42.4620   11.2510   10.0900 N.ar      1 ANP501      0.0000 
     31 C4         43.0070   10.6390   11.1670 C.ar      1 ANP501      0.0000 
     32 H          46.5546    5.4022   11.4791 H         1 ANP501      0.0000 
     33 H          47.9715    6.2928   10.8968 H         1 ANP501      0.0000 
     34 H          46.0995    6.6626    9.3952 H         1 ANP501      0.0000 
     35 H          46.7306    8.9952   11.1298 H         1 ANP501      0.0000 
     36 H          45.5275   10.2663    9.6488 H         1 ANP501      0.0000 
     37 H          43.4804    8.4567    9.5366 H         1 ANP501      0.0000 
     38 H          44.5808    8.6708   13.0528 H         1 ANP501      0.0000 
     39 H          41.1349   13.7225   13.8013 H         1 ANP501      0.0000 
     40 H          42.1430   12.4708   14.6030 H         1 ANP501      0.0000 
     41 H          41.2923   12.8084    9.3876 H         1 ANP501      0.0000 
     42 H          48.4428    7.8388    9.7896 H         1 ANP501      0.0000 
     43 H          46.0089    9.5748    7.6072 H         1 ANP501      0.0000 
@<TRIPOS>BOND
     1    2    1 ar   
     2    3    1 ar   
     3    4    1 ar   
     4    8    1 1    
     5    6    5 ar   
     6    7    5 ar   
     7    8    5 1    
     8   12    5 1    
     9   10    9 ar   
    10   11    9 ar   
    11   12    9 1    
    12   13    9 1    
    13   14   13 1    
    14   15   14 1    
    15   32   14 1    
    16   33   14 1    
    17   16   15 1    
    18   17   15 1    
    19   34   15 1    
    20   21   16 1    
    21   18   17 1    
    22   19   17 1    
    23   35   17 1    
    24   42   18 1    
    25   20   19 1    
    26   21   19 1    
    27   36   19 1    
    28   43   20 1    
    29   22   21 1    
    30   37   21 1    
    31   23   22 1    
    32   31   22 1    
    33   24   23 2    
    34   38   23 1    
    35   25   24 1    
    36   26   25 ar   
    37   31   25 ar   
    38   27   26 1    
    39   28   26 ar   
    40   39   27 1    
    41   40   27 1    
    42   29   28 ar   
    43   30   29 ar   
    44   41   29 1    
    45   31   30 ar   
@<TRIPOS>SUBSTRUCTURE
     1 ANP501      1 GROUP   
@<TRIPOS>SET

