#    Name: 1ua4_AMP_1_INTS_M
#    Modification time : Tue Mar 25 06:25:37 2014

@<TRIPOS>MOLECULE
1ua4_AMP_1_INTS_M
   58     0     9     0     0
SMALL
NO_CHARGES


@<TRIPOS>ATOM
      1 N          21.6690   19.5645    9.0030 N.am      2 SEC2        0.0000 
      2 N          20.5460   19.0390    8.9920 N.am      8 SEL2        0.0000 
      3 N          22.7920   20.0900    9.0140 N.am      5 SEP2        0.0000 
      4 N          20.1755   18.1550   10.2720 N.am      2 SEC2        0.0000 
      5 N          19.8050   17.2710   11.5520 N.am      5 SEP2        0.0000 
      6 N          20.2900   20.1855    9.8650 N.am      2 SEC2        0.0000 
      7 N          20.0340   21.3320   10.7380 N.am      5 SEP2        0.0000 
      8 N          18.9445   18.1790   10.3350 N.am      2 SEC2        0.0000 
      9 N          18.0840   19.0870    9.1180 N.am      8 SEL2        0.0000 
     10 CA         16.2125   16.1370    7.2730 C.3       3 GLC5        0.0000 
     11 CA         18.2480   16.5440    7.2100 C.3       9 GLL5        0.0000 
     12 CA         14.1770   15.7300    7.3360 C.3       6 GLP5        0.0000 
     13 CA         16.2865   14.7340    7.8935 C.3       3 GLC5        0.0000 
     14 CA         18.2510   15.1230    7.8030 C.3       9 GLL5        0.0000 
     15 CA         14.3220   14.3450    7.9840 C.3       6 GLP5        0.0000 
     16 CA         17.4385   14.2315    9.4055 C.3       3 GLC5        0.0000 
     17 CA         16.6260   13.3400   11.0080 C.3       6 GLP5        0.0000 
     18 CA         21.4980   13.5200    8.5090 C.3       3 GLC5        0.0000 
     19 CA         19.6810   14.2410    7.5470 C.3       9 GLL5        0.0000 
     20 CA         23.3150   12.7990    9.4710 C.3       6 GLP5        0.0000 
     21 N          21.5590   15.2475    7.9680 N.am      2 SEC2        0.0000 
     22 N          20.6300   14.5090    8.6710 N.am      8 SEL2        0.0000 
     23 N          22.4880   15.9860    7.2650 N.am      5 SEP2        0.0000 
     24 CA         20.8240   11.7450    6.9195 C.3       3 GLC5        0.0000 
     25 CA         19.0940   12.7580    7.4710 C.3       9 GLL5        0.0000 
     26 CA         22.5540   10.7320    6.3680 C.3       6 GLP5        0.0000 
     27 CA         15.9400   13.6330    7.5130 C.3       3 GLC5        0.0000 
     28 CA         17.5580   12.9210    7.0420 C.3       9 GLL5        0.0000 
     29 CA         14.0190   10.8420    3.5285 C.3       3 GLC5        0.0000 
     30 CA         15.9440   10.3760    3.1840 C.3       9 GLL5        0.0000 
     31 CA         12.0940   11.3080    3.8730 C.3       6 GLP5        0.0000 
     32 CA         16.9635    8.5980    2.8490 C.3       3 GLC5        0.0000 
     33 CA         17.9830    6.8200    2.5140 C.3       6 GLP5        0.0000 
     34 CA         14.2830    9.0530    2.6135 C.3       3 GLC5        0.0000 
     35 CA         12.6220    7.7300    2.0430 C.3       6 GLP5        0.0000 
     36 CA         14.6480   11.1615    1.6055 C.3       3 GLC5        0.0000 
     37 CA         13.3520   11.9470    0.0270 C.3       6 GLP5        0.0000 
     38 O          16.9090   10.6485    0.8785 O.2       1 ALC1        0.0000 
     39 O          15.9110   10.3180    1.8050 O.2       7 ALL1        0.0000 
     40 O          17.9070   10.9790   -0.0480 O.2       4 ALP1        0.0000 
     41 O          15.5235    9.1035    1.0780 O.2       1 ALC1        0.0000 
     42 O          15.1360    7.8890    0.3510 O.2       4 ALP1        0.0000 
     43 N          15.0390    8.0915    3.4875 N.am      2 SEC2        0.0000 
     44 N          15.3610    9.4360    4.0430 N.am      8 SEL2        0.0000 
     45 N          14.7170    6.7470    2.9320 N.am      5 SEP2        0.0000 
     46 CA         13.7550   10.4165    4.6315 C.3       3 GLC5        0.0000 
     47 CA         15.4160    9.5250    5.3900 C.3       9 GLL5        0.0000 
     48 CA         17.1200    8.7170    5.2890 C.3       3 GLC5        0.0000 
     49 CA         18.8240    7.9090    5.1880 C.3       6 GLP5        0.0000 
     50 CA         17.2237   16.7908    9.1358 C.3       3 GLC5        0.0000 
     51 CA         16.1980   17.7480   10.7650 C.3       6 GLP5        0.0000 
     52 CA         19.5325   15.3180    9.4830 C.3       3 GLC5        0.0000 
     53 CA         20.0990   15.9540   11.2910 C.3       6 GLP5        0.0000 
     54 CA         17.4760   13.0897    9.1322 C.3       3 GLC5        0.0000 
     55 CA         17.7193    9.6790    4.8567 C.3       3 GLC5        0.0000 
     56 CA         16.6080   11.4370    5.2350 C.3       9 GLL5        0.0000 
     57 CA         15.2438   13.0400    4.7873 C.3       3 GLC5        0.0000 
     58 CA         13.8730   14.6310    5.0490 C.3       6 GLP5        0.0000 
@<TRIPOS>BOND
@<TRIPOS>SUBSTRUCTURE
     1 ALC1       38 GROUP        1 X    ALC  0     ROOT ALC X 1
     2 SEC2        1 GROUP        1 X    SEC  0     **** SEC X 2
     3 GLC5       10 GROUP        1 X    GLC  0     **** GLC X 6
     4 ALP1       40 GROUP        1 Y    ALP  0     ROOT ALP Y 8
     5 SEP2        3 GROUP        1 Y    SEP  0     **** SEP Y 9
     6 GLP5       12 GROUP        1 Y    GLP  0     **** GLP Y 13
     7 ALL1       39 GROUP        1 Z    ALL  0     ROOT ALL Z 15
     8 SEL2        2 GROUP        1 Z    SEL  0     **** SEL Z 16
     9 GLL5       11 GROUP        1 Z    GLL  0     **** GLL Z 20
@<TRIPOS>SET

