#    Name: 1ua4_AMP_1_ligand
#    Modification time : Tue Mar 25 06:25:37 2014

@<TRIPOS>MOLECULE
1ua4_AMP_1_ligand
   35    37     1     0     0
SMALL
NO_CHARGES


@<TRIPOS>ATOM
      1 P          19.3020   18.8000    8.2670 P.3       1 AMP1456     0.0000 
      2 O1P        20.5460   19.0390    8.9920 O.co2     1 AMP1456     0.0000 
      3 O2P        19.2500   19.5300    6.9750 O.co2     1 AMP1456     0.0000 
      4 O3P        18.0840   19.0870    9.1180 O.co2     1 AMP1456     0.0000 
      5 O5'        19.3570   17.1880    7.9180 O.3       1 AMP1456     0.0000 
      6 C5'        18.2480   16.5440    7.2100 C.3       1 AMP1456     0.0000 
      7 C4'        18.2510   15.1230    7.8030 C.3       1 AMP1456     0.0000 
      8 O4'        17.1430   14.2550    7.3520 O.3       1 AMP1456     0.0000 
      9 C3'        19.6810   14.2410    7.5470 C.3       1 AMP1456     0.0000 
     10 O3'        20.6300   14.5090    8.6710 O.3       1 AMP1456     0.0000 
     11 C2'        19.0940   12.7580    7.4710 C.3       1 AMP1456     0.0000 
     12 O2'        19.1060   12.1380    8.7400 O.3       1 AMP1456     0.0000 
     13 C1'        17.5580   12.9210    7.0420 C.3       1 AMP1456     0.0000 
     14 N9         17.3040   12.5400    5.6290 N.pl3     1 AMP1456     0.0000 
     15 C8         17.6880   13.1670    4.4320 C.2       1 AMP1456     0.0000 
     16 N7         17.3030   12.5620    3.2790 N.2       1 AMP1456     0.0000 
     17 C5         16.6210   11.4610    3.8160 C.ar      1 AMP1456     0.0000 
     18 C6         15.9440   10.3760    3.1840 C.ar      1 AMP1456     0.0000 
     19 N6         15.9110   10.3180    1.8050 N.pl3     1 AMP1456     0.0000 
     20 N1         15.3610    9.4360    4.0430 N.ar      1 AMP1456     0.0000 
     21 C2         15.4160    9.5250    5.3900 C.ar      1 AMP1456     0.0000 
     22 N3         16.0350   10.5120    6.0700 N.ar      1 AMP1456     0.0000 
     23 C4         16.6080   11.4370    5.2350 C.ar      1 AMP1456     0.0000 
     24 H          18.4352   16.4761    6.1668 H         1 AMP1456     0.0000 
     25 H          17.3179   17.0037    7.4369 H         1 AMP1456     0.0000 
     26 H          18.2109   15.1916    8.9115 H         1 AMP1456     0.0000 
     27 H          19.9980   14.5327    6.6040 H         1 AMP1456     0.0000 
     28 H          19.5789   12.2434    6.7099 H         1 AMP1456     0.0000 
     29 H          17.0162   12.2104    7.7053 H         1 AMP1456     0.0000 
     30 H          18.2218   14.0217    4.4521 H         1 AMP1456     0.0000 
     31 H          15.3874    9.5638    1.4087 H         1 AMP1456     0.0000 
     32 H          16.4136   11.0352    1.3223 H         1 AMP1456     0.0000 
     33 H          14.9317    8.7538    5.9598 H         1 AMP1456     0.0000 
     34 H          20.2968   15.3507    9.0957 H         1 AMP1456     0.0000 
     35 H          19.7973   12.6352    9.2643 H         1 AMP1456     0.0000 
@<TRIPOS>BOND
     1    2    1 ar   
     2    3    1 ar   
     3    4    1 ar   
     4    5    1 1    
     5    6    5 1    
     6    7    6 1    
     7   24    6 1    
     8   25    6 1    
     9    8    7 1    
    10    9    7 1    
    11   26    7 1    
    12   13    8 1    
    13   10    9 1    
    14   11    9 1    
    15   27    9 1    
    16   34   10 1    
    17   12   11 1    
    18   13   11 1    
    19   28   11 1    
    20   35   12 1    
    21   14   13 1    
    22   29   13 1    
    23   15   14 1    
    24   23   14 1    
    25   16   15 2    
    26   30   15 1    
    27   17   16 1    
    28   18   17 ar   
    29   23   17 ar   
    30   19   18 1    
    31   20   18 ar   
    32   31   19 1    
    33   32   19 1    
    34   21   20 ar   
    35   22   21 ar   
    36   33   21 1    
    37   23   22 ar   
@<TRIPOS>SUBSTRUCTURE
     1 AMP1456     1 GROUP   
@<TRIPOS>SET

