#    Name: 1akc_PPE_1_INTS_M
#    Modification time : Mon Mar 24 18:29:28 2014

@<TRIPOS>MOLECULE
1akc_PPE_1_INTS_M
   83     0    12     0     0
SMALL
NO_CHARGES


@<TRIPOS>ATOM
      1 N          43.1445   16.7755   45.6490 N.am      2 SEC2        0.0000 
      2 N          43.6900   15.7800   44.9460 N.am     10 SEL2        0.0000 
      3 N          42.5990   17.7710   46.3520 N.am      6 SEP2        0.0000 
      4 CA         45.3150   17.2850   44.7565 C.3       4 GLC5        0.0000 
      5 CA         45.3850   16.2080   46.5150 C.3      12 GLL5        0.0000 
      6 CA         45.2450   18.3620   42.9980 C.3       8 GLP5        0.0000 
      7 CA         47.2130   16.0260   47.1790 C.3       4 GLC5        0.0000 
      8 CA         49.0410   15.8440   47.8430 C.3       8 GLP5        0.0000 
      9 CA         45.8630   14.3035   47.1610 C.3       4 GLC5        0.0000 
     10 CA         46.3410   12.3990   47.8070 C.3       8 GLP5        0.0000 
     11 N          48.0930   14.6925   45.2225 N.am      2 SEC2        0.0000 
     12 N          46.9510   14.3020   44.8570 N.am     10 SEL2        0.0000 
     13 N          49.2350   15.0830   45.5880 N.am      6 SEP2        0.0000 
     14 O          47.2385   13.2140   45.3115 O.2       1 ALC1        0.0000 
     15 O          46.9510   14.3020   44.8570 O.2       9 ALL1        0.0000 
     16 O          47.5260   12.1260   45.7660 O.2       5 ALP1        0.0000 
     17 CA         45.8200   14.7410   41.6675 C.3       4 GLC5        0.0000 
     18 CA         45.9100   12.9910   42.3880 C.3      12 GLL5        0.0000 
     19 CA         45.7300   16.4910   40.9470 C.3       8 GLP5        0.0000 
     20 CA         41.8555   16.8590   43.5455 C.3       4 GLC5        0.0000 
     21 CA         43.0780   15.2630   43.8630 C.3      12 GLL5        0.0000 
     22 CA         40.6330   18.4550   43.2280 C.3       8 GLP5        0.0000 
     23 CA         40.9585   13.9065   41.9315 C.3       4 GLC5        0.0000 
     24 CA         42.9440   13.9280   41.8700 C.3      12 GLL5        0.0000 
     25 CA         38.9730   13.8850   41.9930 C.3       8 GLP5        0.0000 
     26 CA         43.7035   15.4715   41.5220 C.3       4 GLC5        0.0000 
     27 CA         44.4630   17.0150   41.1740 C.3       8 GLP5        0.0000 
     28 N          40.3670   10.7200   40.2375 N.am      2 SEC2        0.0000 
     29 N          41.2150   11.3920   40.7830 N.am     10 SEL2        0.0000 
     30 N          39.5190   10.0480   39.6920 N.am      6 SEP2        0.0000 
     31 N          39.9715   12.0805   40.9275 N.am      2 SEC2        0.0000 
     32 N          38.7280   12.7690   41.0720 N.am      6 SEP2        0.0000 
     33 N          40.9330   10.5395   42.0375 N.am      2 SEC2        0.0000 
     34 N          40.6510    9.6870   43.2920 N.am      6 SEP2        0.0000 
     35 NZ         42.5205   10.5775   38.2490 N.4       3 LYC4        0.0000 
     36 NZ         43.3120   11.2350   39.2880 N.4      11 LYL4        0.0000 
     37 NZ         41.1580   10.8120   36.3840 N.4       7 LYP4        0.0000 
     38 N          42.5205   10.5775   38.2490 N.am      2 SEC2        0.0000 
     39 N          43.3120   11.2350   39.2880 N.am     10 SEL2        0.0000 
     40 N          41.7290    9.9200   37.2100 N.am      6 SEP2        0.0000 
     41 N          42.3235   11.6725   37.9900 N.am      2 SEC2        0.0000 
     42 N          41.3350   12.1100   36.6920 N.am      6 SEP2        0.0000 
     43 NZ         41.5400   12.6370   38.0420 N.4       3 LYC4        0.0000 
     44 NZ         41.7450   13.1640   39.3920 N.4      11 LYL4        0.0000 
     45 N          40.8170   14.1555   39.7985 N.am      2 SEC2        0.0000 
     46 N          41.7450   13.1640   39.3920 N.am     10 SEL2        0.0000 
     47 N          39.8890   15.1470   40.2050 N.am      6 SEP2        0.0000 
     48 N          41.9770   14.4030   39.0980 N.am      2 SEC2        0.0000 
     49 N          42.2090   15.6420   38.8040 N.am      6 SEP2        0.0000 
     50 N          41.5400   12.6370   38.0420 N.am      2 SEC2        0.0000 
     51 CA         50.4390   13.2250   39.5610 C.3       4 GLC5        0.0000 
     52 CA         48.6200   12.1200   39.8730 C.3      12 GLL5        0.0000 
     53 CA         52.2580   14.3300   39.2490 C.3       8 GLP5        0.0000 
     54 CA         49.1015   12.4185   37.9205 C.3       4 GLC5        0.0000 
     55 CA         49.5830   12.7170   35.9680 C.3       8 GLP5        0.0000 
     56 N          48.2650   15.5250   40.8445 N.am      2 SEC2        0.0000 
     57 N          48.4320   14.4280   39.9100 N.am     10 SEL2        0.0000 
     58 N          48.0980   16.6220   41.7790 N.am      6 SEP2        0.0000 
     59 NZ         51.3715   13.8405   42.8855 N.4       3 LYC4        0.0000 
     60 NZ         49.8220   14.0840   43.1160 N.4      11 LYL4        0.0000 
     61 NZ         53.1050   14.2150   43.8270 N.4       7 LYP4        0.0000 
     62 N          49.5285   14.5835   44.3520 N.am      2 SEC2        0.0000 
     63 N          49.8220   14.0840   43.1160 N.am     10 SEL2        0.0000 
     64 N          50.9435   14.4415   43.7825 N.am      2 SEC2        0.0000 
     65 N          52.0650   14.7990   44.4490 N.am      6 SEP2        0.0000 
     66 N          51.3715   13.8405   42.8855 N.am      2 SEC2        0.0000 
     67 N          52.9210   13.5970   42.6550 N.am      6 SEP2        0.0000 
     68 NZ         51.8570   12.9435   42.2755 N.4       3 LYC4        0.0000 
     69 NZ         50.7930   12.2900   41.8960 N.4      11 LYL4        0.0000 
     70 N          51.1470   10.9515   41.9965 N.am      2 SEC2        0.0000 
     71 N          50.7930   12.2900   41.8960 N.am     10 SEL2        0.0000 
     72 N          51.5010    9.6130   42.0970 N.am      6 SEP2        0.0000 
     73 N          51.8570   12.9435   42.2755 N.am      2 SEC2        0.0000 
     74 CA         44.0767   14.2750   46.2918 C.3       4 GLC5        0.0000 
     75 CA         44.9820   15.4560   45.2620 C.3      12 GLL5        0.0000 
     76 CA         42.9700   12.7180   46.6950 C.3       8 GLP5        0.0000 
     77 CA         44.1878   13.4772   45.2688 C.3       4 GLC5        0.0000 
     78 CA         45.6840   14.5200   44.4140 C.3      12 GLL5        0.0000 
     79 CA         43.2002   13.7705   45.0805 C.3       4 GLC5        0.0000 
     80 CA         43.7830   14.3830   43.0690 C.3      12 GLL5        0.0000 
     81 CA         49.5132   10.4742   39.8100 C.3       4 GLC5        0.0000 
     82 CA         48.0490   11.5410   41.1570 C.3      12 GLL5        0.0000 
     83 CA         50.6920    9.1180   39.1050 C.3       8 GLP5        0.0000 
@<TRIPOS>BOND
@<TRIPOS>SUBSTRUCTURE
     1 ALC1       14 GROUP        1 X    ALC  0     ROOT ALC X 1
     2 SEC2        1 GROUP        1 X    SEC  0     **** SEC X 2
     3 LYC4       35 GROUP        1 X    LYC  0     **** LYC X 4
     4 GLC5        4 GROUP        1 X    GLC  0     **** GLC X 6
     5 ALP1       16 GROUP        1 Y    ALP  0     ROOT ALP Y 8
     6 SEP2        3 GROUP        1 Y    SEP  0     **** SEP Y 9
     7 LYP4       37 GROUP        1 Y    LYP  0     **** LYP Y 11
     8 GLP5        6 GROUP        1 Y    GLP  0     **** GLP Y 13
     9 ALL1       15 GROUP        1 Z    ALL  0     ROOT ALL Z 15
    10 SEL2        2 GROUP        1 Z    SEL  0     **** SEL Z 16
    11 LYL4       36 GROUP        1 Z    LYL  0     **** LYL Z 18
    12 GLL5        5 GROUP        1 Z    GLL  0     **** GLL Z 20
@<TRIPOS>SET

