#    Name: 1akc_PPE_1_ligand
#    Modification time : Mon Mar 24 18:29:28 2014

@<TRIPOS>MOLECULE
1akc_PPE_1_ligand
   39    39     1     0     0
SMALL
NO_CHARGES


@<TRIPOS>ATOM
      1 N1         43.6900   15.7800   44.9460 N.ar      1 PPE411      0.0000 
      2 C2         44.9820   15.4560   45.2620 C.ar      1 PPE411      0.0000 
      3 C2A        45.3850   16.2080   46.5150 C.3       1 PPE411      0.0000 
      4 C3         45.6840   14.5200   44.4140 C.ar      1 PPE411      0.0000 
      5 O3         46.9510   14.3020   44.8570 O.3       1 PPE411      0.0000 
      6 C4         45.1270   13.9530   43.2710 C.ar      1 PPE411      0.0000 
      7 C4A        45.9100   12.9910   42.3880 C.3       1 PPE411      0.0000 
      8 C5         43.7830   14.3830   43.0690 C.ar      1 PPE411      0.0000 
      9 C6         43.0780   15.2630   43.8630 C.ar      1 PPE411      0.0000 
     10 C5A        42.9440   13.9280   41.8700 C.3       1 PPE411      0.0000 
     11 OP4        43.3040   12.7640   41.2240 O.3       1 PPE411      0.0000 
     12 P          42.3560   12.0190   40.1660 P.3       1 PPE411      0.0000 
     13 OP1        41.2150   11.3920   40.7830 O.co2     1 PPE411      0.0000 
     14 OP2        43.3120   11.2350   39.2880 O.co2     1 PPE411      0.0000 
     15 OP3        41.7450   13.1640   39.3920 O.co2     1 PPE411      0.0000 
     16 NA         47.3350   13.5140   42.5080 N.4       1 PPE411      0.0000 
     17 CAA        48.3140   12.3790   42.4000 C.3       1 PPE411      0.0000 
     18 CBA        48.0490   11.5410   41.1570 C.3       1 PPE411      0.0000 
     19 CGA        48.6200   12.1200   39.8730 C.3       1 PPE411      0.0000 
     20 CDA        47.9090   13.4110   39.5120 C.2       1 PPE411      0.0000 
     21 OE1        48.4320   14.4280   39.9100 O.co2     1 PPE411      0.0000 
     22 OE2        46.8930   13.2480   38.8120 O.co2     1 PPE411      0.0000 
     23 CA         49.7570   12.9090   42.4280 C.2       1 PPE411      0.0000 
     24 OA         49.8220   14.0840   43.1160 O.co2     1 PPE411      0.0000 
     25 OXT        50.7930   12.2900   41.8960 O.co2     1 PPE411      0.0000 
     26 H          45.5800   13.0709   41.3870 H         1 PPE411      0.0000 
     27 H          45.8513   12.0117   42.7815 H         1 PPE411      0.0000 
     28 H          42.1109   15.5087   43.6219 H         1 PPE411      0.0000 
     29 H          42.9172   14.8153   41.1561 H         1 PPE411      0.0000 
     30 H          41.8680   13.8881   42.2421 H         1 PPE411      0.0000 
     31 H          48.1871   11.7318   43.2772 H         1 PPE411      0.0000 
     32 H          46.9567   11.4128   41.0386 H         1 PPE411      0.0000 
     33 H          48.4680   10.5290   41.3122 H         1 PPE411      0.0000 
     34 H          48.4948   11.3996   39.0658 H         1 PPE411      0.0000 
     35 H          49.6826   12.3172   40.0078 H         1 PPE411      0.0000 
     36 H          46.3243   15.9994   46.7874 H         1 PPE411      0.0000 
     37 H          45.3298   17.1983   46.3877 H         1 PPE411      0.0000 
     38 H          44.7971   15.9790   47.2908 H         1 PPE411      0.0000 
     39 H          47.0649   13.3088   44.8363 H         1 PPE411      0.0000 
@<TRIPOS>BOND
     1    2    1 ar   
     2    9    1 ar   
     3    3    2 1    
     4    4    2 ar   
     5   36    3 1    
     6   37    3 1    
     7   38    3 1    
     8    5    4 1    
     9    6    4 ar   
    10   39    5 1    
    11    7    6 1    
    12    8    6 ar   
    13   16    7 1    
    14   26    7 1    
    15   27    7 1    
    16    9    8 ar   
    17   10    8 1    
    18   28    9 1    
    19   11   10 1    
    20   29   10 1    
    21   30   10 1    
    22   12   11 1    
    23   13   12 ar   
    24   14   12 ar   
    25   15   12 ar   
    26   17   16 1    
    27   18   17 1    
    28   23   17 1    
    29   31   17 1    
    30   19   18 1    
    31   32   18 1    
    32   33   18 1    
    33   20   19 1    
    34   34   19 1    
    35   35   19 1    
    36   21   20 ar   
    37   22   20 ar   
    38   24   23 ar   
    39   25   23 ar   
@<TRIPOS>SUBSTRUCTURE
     1 PPE411      1 GROUP   
@<TRIPOS>SET

