#    Name: 4dt9_GMP_1_INTS_M
#    Modification time : Tue Mar 25 10:11:22 2014

@<TRIPOS>MOLECULE
4dt9_GMP_1_INTS_M
   34     0     9     0     0
SMALL
NO_CHARGES


@<TRIPOS>ATOM
      1 O           4.2835   12.5050   28.2960 O.2       1 ALC1        0.0000 
      2 O           2.9820   12.2810   27.8560 O.2       7 ALL1        0.0000 
      3 O           5.5850   12.7290   28.7360 O.2       4 ALP1        0.0000 
      4 CA         -0.0085   13.8345   28.5000 C.3       3 GLC5        0.0000 
      5 CA          1.7970   12.7380   28.5120 C.3       9 GLL5        0.0000 
      6 CA         -1.8140   14.9310   28.4880 C.3       6 GLP5        0.0000 
      7 O           4.0365   12.4615   31.1145 O.2       1 ALC1        0.0000 
      8 O           2.7590   12.0820   31.3580 O.2       7 ALL1        0.0000 
      9 O           5.3140   12.8410   30.8710 O.2       4 ALP1        0.0000 
     10 CA         -0.3835    8.3495   28.3800 C.3       3 GLC5        0.0000 
     11 CA          1.1200    9.2190   29.6660 C.3       9 GLL5        0.0000 
     12 CA         -1.8870    7.4800   27.0940 C.3       6 GLP5        0.0000 
     13 CA         -0.6235   10.2370   29.4755 C.3       3 GLC5        0.0000 
     14 CA         -2.3670   11.2550   29.2850 C.3       6 GLP5        0.0000 
     15 N           5.3105    3.7615   27.7840 N.am      2 SEC2        0.0000 
     16 N           4.9760    5.1800   27.8490 N.am      8 SEL2        0.0000 
     17 N           5.6450    2.3430   27.7190 N.am      5 SEP2        0.0000 
     18 O           3.9160    3.6040   29.9240 O.2       1 ALC1        0.0000 
     19 O           3.5190    4.8230   29.4970 O.2       7 ALL1        0.0000 
     20 O           4.3130    2.3850   30.3510 O.2       4 ALP1        0.0000 
     21 O           3.1605    3.4465   30.8035 O.2       1 ALC1        0.0000 
     22 O           2.0080    4.5080   31.2560 O.2       7 ALL1        0.0000 
     23 CA         -0.4050   11.7085   29.1307 C.3       3 GLC5        0.0000 
     24 CA          1.3170   11.5860   29.4410 C.3       9 GLL5        0.0000 
     25 CA          0.7485   11.4700   27.2227 C.3       3 GLC5        0.0000 
     26 CA         -0.0600   10.7780   25.4690 C.3       6 GLP5        0.0000 
     27 CA          3.7758    9.8018   30.9102 C.3       3 GLC5        0.0000 
     28 CA          2.4380   11.0770   30.3640 C.3       9 GLL5        0.0000 
     29 CA          5.4360    9.1510   31.1730 C.3       6 GLP5        0.0000 
     30 CA          2.0940    6.1967   27.3242 C.3       3 GLC5        0.0000 
     31 CA          2.5300    7.2950   29.2110 C.3       9 GLL5        0.0000 
     32 CA          1.1570    5.3020   25.8510 C.3       6 GLP5        0.0000 
     33 CA          4.2335    8.1212   29.9853 C.3       3 GLC5        0.0000 
     34 CA          3.5320    6.8880   28.3840 C.3       9 GLL5        0.0000 
@<TRIPOS>BOND
@<TRIPOS>SUBSTRUCTURE
     1 ALC1        1 GROUP        1 X    ALC  0     ROOT ALC X 1
     2 SEC2       15 GROUP        1 X    SEC  0     **** SEC X 2
     3 GLC5        4 GROUP        1 X    GLC  0     **** GLC X 6
     4 ALP1        3 GROUP        1 Y    ALP  0     ROOT ALP Y 8
     5 SEP2       17 GROUP        1 Y    SEP  0     **** SEP Y 9
     6 GLP5        6 GROUP        1 Y    GLP  0     **** GLP Y 13
     7 ALL1        2 GROUP        1 Z    ALL  0     ROOT ALL Z 15
     8 SEL2       16 GROUP        1 Z    SEL  0     **** SEL Z 16
     9 GLL5        5 GROUP        1 Z    GLL  0     **** GLL Z 20
@<TRIPOS>SET

