#    Name: 4dt9_GMP_1_ligand
#    Modification time : Tue Mar 25 10:11:22 2014

@<TRIPOS>MOLECULE
4dt9_GMP_1_ligand
   33    35     1     0     0
SMALL
NO_CHARGES


@<TRIPOS>ATOM
      1 O5'         2.9820   12.2810   27.8560 O.3       1 GMP401      0.0000 
      2 C5'         1.7970   12.7380   28.5120 C.3       1 GMP401      0.0000 
      3 C4'         1.3170   11.5860   29.4410 C.3       1 GMP401      0.0000 
      4 O4'         0.7880   10.3100   28.7980 O.3       1 GMP401      0.0000 
      5 C3'         2.4380   11.0770   30.3640 C.3       1 GMP401      0.0000 
      6 O3'         2.7590   12.0820   31.3580 O.3       1 GMP401      0.0000 
      7 C2'         1.7930    9.8280   30.9310 C.3       1 GMP401      0.0000 
      8 O2'         0.7610   10.1620   31.9000 O.3       1 GMP401      0.0000 
      9 C1'         1.1200    9.2190   29.6660 C.3       1 GMP401      0.0000 
     10 N9          2.2170    8.5270   28.8750 N.pl3     1 GMP401      0.0000 
     11 C8          2.9910    8.9100   27.8570 C.2       1 GMP401      0.0000 
     12 N7          3.8210    7.9310   27.5760 N.2       1 GMP401      0.0000 
     13 C5          3.5320    6.8880   28.3840 C.2       1 GMP401      0.0000 
     14 C6          4.0560    5.6440   28.5280 C.2       1 GMP401      0.0000 
     15 O6          4.9760    5.1800   27.8490 O.2       1 GMP401      0.0000 
     16 N1          3.5190    4.8230   29.4970 N.am      1 GMP401      0.0000 
     17 C2          2.4830    5.3000   30.3370 C.2       1 GMP401      0.0000 
     18 N2          2.0080    4.5080   31.2560 N.pl3     1 GMP401      0.0000 
     19 N3          1.9760    6.5240   30.1790 N.2       1 GMP401      0.0000 
     20 C4          2.5300    7.2950   29.2110 C.2       1 GMP401      0.0000 
     21 H           0.9941   12.9476   27.8171 H         1 GMP401      0.0000 
     22 H           1.9777   13.6026   29.1375 H         1 GMP401      0.0000 
     23 H           0.5338   11.9678   30.1127 H         1 GMP401      0.0000 
     24 H           3.2493   10.7987   29.7499 H         1 GMP401      0.0000 
     25 H           2.5140    9.1695   31.2687 H         1 GMP401      0.0000 
     26 H           0.3694    8.6021   29.8911 H         1 GMP401      0.0000 
     27 H           2.9394    9.7734   27.4063 H         1 GMP401      0.0000 
     28 H           3.8588    3.8626   29.6230 H         1 GMP401      0.0000 
     29 H           2.4176    3.5971   31.3065 H         1 GMP401      0.0000 
     30 H           1.2776    4.8839   31.8263 H         1 GMP401      0.0000 
     31 H           3.7365   12.6327   28.4102 H         1 GMP401      0.0000 
     32 H           3.7077   12.3370   31.1710 H         1 GMP401      0.0000 
     33 H           0.9848   11.0867   32.2079 H         1 GMP401      0.0000 
@<TRIPOS>BOND
     1    2    1 1    
     2   31    1 1    
     3    3    2 1    
     4   21    2 1    
     5   22    2 1    
     6    4    3 1    
     7    5    3 1    
     8   23    3 1    
     9    9    4 1    
    10    6    5 1    
    11    7    5 1    
    12   24    5 1    
    13   32    6 1    
    14    8    7 1    
    15    9    7 1    
    16   25    7 1    
    17   33    8 1    
    18   10    9 1    
    19   26    9 1    
    20   11   10 1    
    21   20   10 1    
    22   12   11 2    
    23   27   11 1    
    24   13   12 1    
    25   14   13 1    
    26   20   13 2    
    27   15   14 2    
    28   16   14 am   
    29   17   16 1    
    30   28   16 1    
    31   18   17 1    
    32   19   17 2    
    33   29   18 1    
    34   30   18 1    
    35   20   19 1    
@<TRIPOS>SUBSTRUCTURE
     1 GMP401      1 GROUP   
@<TRIPOS>SET

