#    Name: 1lvl_FAD_1_INTS_M
#    Modification time : Tue Mar 25 11:17:43 2014

@<TRIPOS>MOLECULE
1lvl_FAD_1_INTS_M
  108     0     9     0     0
SMALL
NO_CHARGES


@<TRIPOS>ATOM
      1 N          -2.9110  -36.9505  -56.4655 N.am      2 SEC2        0.0000 
      2 N          -4.2400  -37.1460  -56.2630 N.am      8 SEL2        0.0000 
      3 N          -1.5820  -36.7550  -56.6680 N.am      5 SEP2        0.0000 
      4 N          -3.3390  -37.9040  -54.0905 N.am      2 SEC2        0.0000 
      5 N          -4.6450  -37.6910  -53.8060 N.am      8 SEL2        0.0000 
      6 N          -2.0330  -38.1170  -54.3750 N.am      5 SEP2        0.0000 
      7 CA         -6.7905  -34.2625  -52.2020 C.3       3 GLC5        0.0000 
      8 CA         -5.5180  -34.6030  -53.9430 C.3       9 GLL5        0.0000 
      9 CA         -8.0630  -33.9220  -50.4610 C.3       6 GLP5        0.0000 
     10 CA         -6.2440  -36.0065  -52.7070 C.3       3 GLC5        0.0000 
     11 CA         -6.9700  -37.4100  -51.4710 C.3       6 GLP5        0.0000 
     12 CA         -6.2780  -31.8575  -53.9420 C.3       3 GLC5        0.0000 
     13 CA         -4.8550  -33.2430  -53.8560 C.3       9 GLL5        0.0000 
     14 CA         -7.7010  -30.4720  -54.0280 C.3       6 GLP5        0.0000 
     15 CA         -2.8305  -34.0385  -55.5335 C.3       3 GLC5        0.0000 
     16 CA         -3.3930  -33.3700  -53.5010 C.3       9 GLL5        0.0000 
     17 CA         -2.2680  -34.7070  -57.5660 C.3       6 GLP5        0.0000 
     18 N          -1.8615  -32.5285  -50.8560 N.am      2 SEC2        0.0000 
     19 N          -2.0110  -31.6550  -52.3270 N.am      8 SEL2        0.0000 
     20 N          -1.7120  -33.4020  -49.3850 N.am      5 SEP2        0.0000 
     21 CA         -6.0685  -31.0515  -53.1495 C.3       3 GLC5        0.0000 
     22 CA         -4.4360  -31.6310  -52.2710 C.3       9 GLL5        0.0000 
     23 CA         -7.1325  -26.8165  -48.5060 C.3       3 GLC5        0.0000 
     24 CA         -6.1200  -28.6670  -48.8420 C.3       9 GLL5        0.0000 
     25 CA         -8.1450  -24.9660  -48.1700 C.3       6 GLP5        0.0000 
     26 O          -7.1125  -27.5525  -46.7675 O.2       1 ALC1        0.0000 
     27 O          -6.8530  -28.7320  -47.7360 O.2       7 ALL1        0.0000 
     28 O          -7.3720  -26.3730  -45.7990 O.2       4 ALP1        0.0000 
     29 N          -5.8400  -26.3115  -48.5480 N.am      2 SEC2        0.0000 
     30 N          -5.8930  -27.5270  -49.4960 N.am      8 SEL2        0.0000 
     31 N          -5.7870  -25.0960  -47.6000 N.am      5 SEP2        0.0000 
     32 CA         -6.1090  -25.8695  -51.1870 C.3       3 GLC5        0.0000 
     33 CA         -5.2100  -27.5210  -50.6330 C.3       9 GLL5        0.0000 
     34 CA         -7.0080  -24.2180  -51.7410 C.3       6 GLP5        0.0000 
     35 CA         -4.8120  -27.0805  -52.5130 C.3       3 GLC5        0.0000 
     36 CA         -4.4140  -26.6400  -54.3930 C.3       6 GLP5        0.0000 
     37 CA         -3.4500  -27.1185  -51.2585 C.3       3 GLC5        0.0000 
     38 CA         -1.6900  -26.7160  -51.8840 C.3       6 GLP5        0.0000 
     39 CA         -4.3420  -26.2595  -49.4160 C.3       3 GLC5        0.0000 
     40 CA         -3.4740  -24.9980  -48.1990 C.3       6 GLP5        0.0000 
     41 N          -3.7875  -27.7860  -51.9445 N.am      2 SEC2        0.0000 
     42 N          -4.7150  -28.6080  -51.2110 N.am      8 SEL2        0.0000 
     43 N          -2.8600  -26.9640  -52.6780 N.am      5 SEP2        0.0000 
     44 CA         -6.3175  -30.1360  -52.3310 C.3       3 GLC5        0.0000 
     45 CA         -4.9340  -29.8000  -50.6340 C.3       9 GLL5        0.0000 
     46 N          -6.1225  -44.5405  -59.3335 N.am      2 SEC2        0.0000 
     47 N          -4.6400  -45.4630  -59.2960 N.am      8 SEL2        0.0000 
     48 N          -7.6050  -43.6180  -59.3710 N.am      5 SEP2        0.0000 
     49 N          -0.3480  -47.0335  -61.7455 N.am      2 SEC2        0.0000 
     50 N          -1.8260  -46.6900  -61.8350 N.am      8 SEL2        0.0000 
     51 N           1.1300  -47.3770  -61.6560 N.am      5 SEP2        0.0000 
     52 N           0.0410  -46.6275  -60.5630 N.am      2 SEC2        0.0000 
     53 N          -1.0480  -45.8780  -59.4700 N.am      8 SEL2        0.0000 
     54 CA         -0.2575  -44.1815  -60.0665 C.3       3 GLC5        0.0000 
     55 CA         -0.6710  -45.3020  -58.3140 C.3       9 GLL5        0.0000 
     56 CA          0.1560  -43.0610  -61.8190 C.3       6 GLP5        0.0000 
     57 CA          3.7310  -44.7855  -54.8605 C.3       3 GLC5        0.0000 
     58 CA          2.5640  -45.0140  -56.4380 C.3       9 GLL5        0.0000 
     59 CA          4.8980  -44.5570  -53.2830 C.3       6 GLP5        0.0000 
     60 CA          4.2950  -43.8630  -57.1005 C.3       3 GLC5        0.0000 
     61 CA          6.0260  -42.7120  -57.7630 C.3       6 GLP5        0.0000 
     62 CA         -0.5725  -44.1250  -53.0150 C.3       3 GLC5        0.0000 
     63 CA          0.7210  -43.5930  -54.6530 C.3       9 GLL5        0.0000 
     64 CA         -1.8660  -44.6570  -51.3770 C.3       6 GLP5        0.0000 
     65 CA         -1.9100  -43.5540  -59.3045 C.3       3 GLC5        0.0000 
     66 CA         -1.5620  -44.6770  -57.4710 C.3       9 GLL5        0.0000 
     67 CA         -2.2580  -42.4310  -61.1380 C.3       6 GLP5        0.0000 
     68 CA         -6.0930  -44.7910  -57.5160 C.3       3 GLC5        0.0000 
     69 CA         -4.0540  -44.1220  -57.1870 C.3       9 GLL5        0.0000 
     70 CA         -8.1320  -45.4600  -57.8450 C.3       6 GLP5        0.0000 
     71 CA         -6.7675  -43.7935  -57.2260 C.3       3 GLC5        0.0000 
     72 CA         -5.4030  -42.1270  -56.6070 C.3       9 GLL5        0.0000 
     73 CA         -5.8220  -39.3360  -58.8260 C.3       3 GLC5        0.0000 
     74 CA         -5.5290  -40.7410  -57.1240 C.3       9 GLL5        0.0000 
     75 CA         -6.1150  -37.9310  -60.5280 C.3       6 GLP5        0.0000 
     76 N          -2.9790  -39.5670  -57.7410 N.am      2 SEC2        0.0000 
     77 N          -4.2860  -40.0720  -56.9340 N.am      8 SEL2        0.0000 
     78 N          -1.6720  -39.0620  -58.5480 N.am      5 SEP2        0.0000 
     79 CA         -7.3520  -40.5895  -54.2565 C.3       3 GLC5        0.0000 
     80 CA         -6.7080  -40.1440  -56.3590 C.3       9 GLL5        0.0000 
     81 CA         -7.9960  -41.0350  -52.1540 C.3       6 GLP5        0.0000 
     82 CA         -8.7010  -39.9395  -57.3410 C.3       3 GLC5        0.0000 
     83 CA        -10.6940  -39.7350  -58.3230 C.3       6 GLP5        0.0000 
     84 N          -9.3500  -36.7045  -57.7300 N.am      2 SEC2        0.0000 
     85 N          -8.8870  -37.2840  -56.2010 N.am      8 SEL2        0.0000 
     86 N          -9.8130  -36.1250  -59.2590 N.am      5 SEP2        0.0000 
     87 N          -9.1420  -39.6380  -53.7850 N.am      2 SEC2        0.0000 
     88 N          -8.1790  -38.7140  -54.3320 N.am      8 SEL2        0.0000 
     89 N         -10.1050  -40.5620  -53.2380 N.am      5 SEP2        0.0000 
     90 CA         -7.7145  -29.0485  -49.5018 C.3       3 GLC5        0.0000 
     91 CA         -5.6160  -29.7990  -49.4470 C.3       9 GLL5        0.0000 
     92 CA         -9.5610  -28.8640  -49.8590 C.3       6 GLP5        0.0000 
     93 CA         -7.2200  -30.7400  -48.9492 C.3       3 GLC5        0.0000 
     94 CA         -8.5720  -32.2470  -48.7540 C.3       6 GLP5        0.0000 
     95 CA          0.8353  -43.7230  -58.2880 C.3       3 GLC5        0.0000 
     96 CA          1.6820  -42.0750  -58.4430 C.3       6 GLP5        0.0000 
     97 CA          1.7523  -43.5245  -57.5187 C.3       3 GLC5        0.0000 
     98 CA          1.0810  -44.9340  -56.7510 C.3       9 GLL5        0.0000 
     99 CA          1.0713  -43.0093  -56.8612 C.3       3 GLC5        0.0000 
    100 CA          1.1331  -46.4415  -55.3376 C.3       3 GLC5        0.0000 
    101 CA          0.2000  -44.2940  -55.9060 C.3       9 GLL5        0.0000 
    102 CA          1.2550  -48.2490  -54.4250 C.3       6 GLP5        0.0000 
    103 CA         -0.4251  -42.0079  -55.4124 C.3       3 GLC5        0.0000 
    104 CA         -0.5110  -39.9580  -55.0570 C.3       6 GLP5        0.0000 
    105 CA          0.1657  -43.2498  -57.6532 C.3       3 GLC5        0.0000 
    106 CA         -1.1390  -44.1720  -56.2560 C.3       9 GLL5        0.0000 
    107 CA         -6.6285  -41.9410  -58.5482 C.3       3 GLC5        0.0000 
    108 CA         -7.7910  -42.4480  -60.2310 C.3       6 GLP5        0.0000 
@<TRIPOS>BOND
@<TRIPOS>SUBSTRUCTURE
     1 ALC1       26 GROUP        1 X    ALC  0     ROOT ALC X 1
     2 SEC2        1 GROUP        1 X    SEC  0     **** SEC X 2
     3 GLC5        7 GROUP        1 X    GLC  0     **** GLC X 6
     4 ALP1       28 GROUP        1 Y    ALP  0     ROOT ALP Y 8
     5 SEP2        3 GROUP        1 Y    SEP  0     **** SEP Y 9
     6 GLP5        9 GROUP        1 Y    GLP  0     **** GLP Y 13
     7 ALL1       27 GROUP        1 Z    ALL  0     ROOT ALL Z 15
     8 SEL2        2 GROUP        1 Z    SEL  0     **** SEL Z 16
     9 GLL5        8 GROUP        1 Z    GLL  0     **** GLL Z 20
@<TRIPOS>SET

