#    Name: 1lvl_FAD_1_ligand
#    Modification time : Tue Mar 25 11:17:43 2014

@<TRIPOS>MOLECULE
1lvl_FAD_1_ligand
   84    89     1     0     0
SMALL
NO_CHARGES


@<TRIPOS>ATOM
      1 PA         -5.0030  -36.9450  -55.0230 P.3       1 FAD459      0.0000 
      2 O1A        -4.2400  -37.1460  -56.2630 O.co2     1 FAD459      0.0000 
      3 O2A        -4.6450  -37.6910  -53.8060 O.co2     1 FAD459      0.0000 
      4 O5B        -4.6940  -35.4020  -54.7890 O.3       1 FAD459      0.0000 
      5 C5B        -5.5180  -34.6030  -53.9430 C.3       1 FAD459      0.0000 
      6 C4B        -4.8550  -33.2430  -53.8560 C.3       1 FAD459      0.0000 
      7 O4B        -5.4650  -32.4990  -52.7790 O.3       1 FAD459      0.0000 
      8 C3B        -3.3930  -33.3700  -53.5010 C.3       1 FAD459      0.0000 
      9 O3B        -2.5680  -33.0240  -54.6330 O.3       1 FAD459      0.0000 
     10 C2B        -3.1930  -32.4770  -52.2650 C.3       1 FAD459      0.0000 
     11 O2B        -2.0110  -31.6550  -52.3270 O.3       1 FAD459      0.0000 
     12 C1B        -4.4360  -31.6310  -52.2710 C.3       1 FAD459      0.0000 
     13 N9A        -4.8030  -31.0920  -50.9430 N.pl3     1 FAD459      0.0000 
     14 C8A        -5.3650  -31.8100  -49.9590 C.2       1 FAD459      0.0000 
     15 N7A        -5.8870  -31.0200  -49.0190 N.2       1 FAD459      0.0000 
     16 C5A        -5.6160  -29.7990  -49.4470 C.ar      1 FAD459      0.0000 
     17 C6A        -6.1200  -28.6670  -48.8420 C.ar      1 FAD459      0.0000 
     18 N6A        -6.8530  -28.7320  -47.7360 N.pl3     1 FAD459      0.0000 
     19 N1A        -5.8930  -27.5270  -49.4960 N.ar      1 FAD459      0.0000 
     20 C2A        -5.2100  -27.5210  -50.6330 C.ar      1 FAD459      0.0000 
     21 N3A        -4.7150  -28.6080  -51.2110 N.ar      1 FAD459      0.0000 
     22 C4A        -4.9340  -29.8000  -50.6340 C.ar      1 FAD459      0.0000 
     23 N1         -4.6400  -45.4630  -59.2960 N.2       1 FAD459      0.0000 
     24 C2         -5.0180  -45.8590  -60.4910 C.2       1 FAD459      0.0000 
     25 O2         -6.1910  -45.7420  -60.8360 O.2       1 FAD459      0.0000 
     26 N3         -4.0680  -46.2700  -61.4040 N.am      1 FAD459      0.0000 
     27 C4         -2.7030  -46.3040  -61.0860 C.2       1 FAD459      0.0000 
     28 O4         -1.8260  -46.6900  -61.8350 O.2       1 FAD459      0.0000 
     29 C4X        -2.3410  -45.9270  -59.8130 C.2       1 FAD459      0.0000 
     30 N5         -1.0480  -45.8780  -59.4700 N.2       1 FAD459      0.0000 
     31 C5X        -0.6710  -45.3020  -58.3140 C.ar      1 FAD459      0.0000 
     32 C6          0.6480  -45.4400  -57.9520 C.ar      1 FAD459      0.0000 
     33 C7          1.0810  -44.9340  -56.7510 C.ar      1 FAD459      0.0000 
     34 C7M         2.5640  -45.0140  -56.4380 C.3       1 FAD459      0.0000 
     35 C8          0.2000  -44.2940  -55.9060 C.ar      1 FAD459      0.0000 
     36 C8M         0.7210  -43.5930  -54.6530 C.3       1 FAD459      0.0000 
     37 C9         -1.1390  -44.1720  -56.2560 C.ar      1 FAD459      0.0000 
     38 C9A        -1.5620  -44.6770  -57.4710 C.ar      1 FAD459      0.0000 
     39 N10        -2.9070  -44.7370  -57.8330 N.pl3     1 FAD459      0.0000 
     40 C10        -3.3320  -45.4430  -58.9690 C.2       1 FAD459      0.0000 
     41 C1'        -4.0540  -44.1220  -57.1870 C.3       1 FAD459      0.0000 
     42 C2'        -4.0280  -42.7620  -56.6250 C.3       1 FAD459      0.0000 
     43 O2'        -3.0850  -42.0310  -57.4080 O.3       1 FAD459      0.0000 
     44 C3'        -5.4030  -42.1270  -56.6070 C.3       1 FAD459      0.0000 
     45 O3'        -6.2930  -42.9570  -57.3050 O.3       1 FAD459      0.0000 
     46 C4'        -5.5290  -40.7410  -57.1240 C.3       1 FAD459      0.0000 
     47 O4'        -4.2860  -40.0720  -56.9340 O.3       1 FAD459      0.0000 
     48 C5'        -6.7080  -40.1440  -56.3590 C.3       1 FAD459      0.0000 
     49 O5'        -6.9900  -38.8690  -56.6600 O.3       1 FAD459      0.0000 
     50 P          -7.7730  -37.9850  -55.5460 P.3       1 FAD459      0.0000 
     51 O1P        -8.8870  -37.2840  -56.2010 O.co2     1 FAD459      0.0000 
     52 O2P        -8.1790  -38.7140  -54.3320 O.co2     1 FAD459      0.0000 
     53 O3P        -6.5880  -36.9840  -55.2210 O.3       1 FAD459      0.0000 
     54 H          -5.5889  -35.0124  -52.9412 H         1 FAD459      0.0000 
     55 H          -6.5135  -34.4714  -54.3527 H         1 FAD459      0.0000 
     56 H          -4.9538  -32.7295  -54.7775 H         1 FAD459      0.0000 
     57 H          -3.2311  -34.3978  -53.1849 H         1 FAD459      0.0000 
     58 H          -3.2268  -33.1062  -51.4020 H         1 FAD459      0.0000 
     59 H          -4.2799  -30.8185  -52.9758 H         1 FAD459      0.0000 
     60 H          -5.3874  -32.7982  -49.9368 H         1 FAD459      0.0000 
     61 H          -7.3979  -29.5621  -47.6174 H         1 FAD459      0.0000 
     62 H          -6.7937  -27.9450  -47.1219 H         1 FAD459      0.0000 
     63 H          -5.0465  -26.5728  -51.1186 H         1 FAD459      0.0000 
     64 H          -4.3638  -46.5647  -62.3576 H         1 FAD459      0.0000 
     65 H           1.3095  -45.9219  -58.5805 H         1 FAD459      0.0000 
     66 H          -1.7988  -43.7150  -55.6221 H         1 FAD459      0.0000 
     67 H          -4.4269  -44.8363  -56.3542 H         1 FAD459      0.0000 
     68 H          -4.9544  -44.1817  -57.9140 H         1 FAD459      0.0000 
     69 H          -3.6679  -42.8327  -55.5923 H         1 FAD459      0.0000 
     70 H          -5.7307  -42.1129  -55.5308 H         1 FAD459      0.0000 
     71 H          -5.8067  -40.8052  -58.1649 H         1 FAD459      0.0000 
     72 H          -6.4730  -40.2994  -55.2646 H         1 FAD459      0.0000 
     73 H          -7.5762  -40.8445  -56.5396 H         1 FAD459      0.0000 
     74 H           3.1132  -44.5224  -57.1138 H         1 FAD459      0.0000 
     75 H           2.7767  -44.6192  -55.5442 H         1 FAD459      0.0000 
     76 H           2.8906  -45.9591  -56.4263 H         1 FAD459      0.0000 
     77 H           1.1876  -44.2291  -54.0384 H         1 FAD459      0.0000 
     78 H           1.3739  -42.8694  -54.8766 H         1 FAD459      0.0000 
     79 H          -0.0184  -43.1692  -54.1299 H         1 FAD459      0.0000 
     80 H          -1.9198  -33.7803  -54.7215 H         1 FAD459      0.0000 
     81 H          -1.5482  -31.9306  -53.1695 H         1 FAD459      0.0000 
     82 H          -3.5916  -41.2401  -57.7512 H         1 FAD459      0.0000 
     83 H          -6.3517  -43.7917  -56.7575 H         1 FAD459      0.0000 
     84 H          -4.5319  -39.1364  -56.6807 H         1 FAD459      0.0000 
@<TRIPOS>BOND
     1    2    1 ar   
     2    3    1 ar   
     3    4    1 1    
     4   53    1 1    
     5    5    4 1    
     6    6    5 1    
     7   54    5 1    
     8   55    5 1    
     9    7    6 1    
    10    8    6 1    
    11   56    6 1    
    12   12    7 1    
    13    9    8 1    
    14   10    8 1    
    15   57    8 1    
    16   80    9 1    
    17   11   10 1    
    18   12   10 1    
    19   58   10 1    
    20   81   11 1    
    21   13   12 1    
    22   59   12 1    
    23   14   13 1    
    24   22   13 1    
    25   15   14 2    
    26   60   14 1    
    27   16   15 1    
    28   17   16 ar   
    29   22   16 ar   
    30   18   17 1    
    31   19   17 ar   
    32   61   18 1    
    33   62   18 1    
    34   20   19 ar   
    35   21   20 ar   
    36   63   20 1    
    37   22   21 ar   
    38   24   23 1    
    39   40   23 2    
    40   25   24 2    
    41   26   24 am   
    42   27   26 am   
    43   64   26 1    
    44   28   27 2    
    45   29   27 1    
    46   30   29 2    
    47   40   29 1    
    48   31   30 1    
    49   32   31 ar   
    50   38   31 ar   
    51   33   32 ar   
    52   65   32 1    
    53   34   33 1    
    54   35   33 ar   
    55   74   34 1    
    56   75   34 1    
    57   76   34 1    
    58   36   35 1    
    59   37   35 ar   
    60   77   36 1    
    61   78   36 1    
    62   79   36 1    
    63   38   37 ar   
    64   66   37 1    
    65   39   38 1    
    66   40   39 1    
    67   41   39 1    
    68   42   41 1    
    69   67   41 1    
    70   68   41 1    
    71   43   42 1    
    72   44   42 1    
    73   69   42 1    
    74   82   43 1    
    75   45   44 1    
    76   46   44 1    
    77   70   44 1    
    78   83   45 1    
    79   47   46 1    
    80   48   46 1    
    81   71   46 1    
    82   84   47 1    
    83   49   48 1    
    84   72   48 1    
    85   73   48 1    
    86   50   49 1    
    87   51   50 ar   
    88   52   50 ar   
    89   53   50 1    
@<TRIPOS>SUBSTRUCTURE
     1 FAD459      1 GROUP   
@<TRIPOS>SET

