#    Name: 3sfi_3SF_1_INTS_M
#    Modification time : Tue Mar 25 12:33:48 2014

@<TRIPOS>MOLECULE
3sfi_3SF_1_INTS_M
   73     0     6     0     0
SMALL
NO_CHARGES


@<TRIPOS>ATOM
      1 CA         31.1855  -14.5110   -8.9800 C.3       2 GLC5        0.0000 
      2 CA         30.9880  -16.1930   -8.5540 C.3       6 GLL5        0.0000 
      3 CA         31.3830  -12.8290   -9.4060 C.3       4 GLP5        0.0000 
      4 N          26.5405  -13.2800   -7.9765 N.am      1 SEC2        0.0000 
      5 N          27.8130  -12.8650   -7.4260 N.am      5 SEL2        0.0000 
      6 N          25.2680  -13.6950   -8.5270 N.am      3 SEP2        0.0000 
      7 CA         30.1545  -17.1875   -4.8820 C.3       2 GLC5        0.0000 
      8 CA         30.2630  -15.7730   -6.3940 C.3       6 GLL5        0.0000 
      9 CA         30.0460  -18.6020   -3.3700 C.3       4 GLP5        0.0000 
     10 CA         31.2270  -15.4920   -4.8540 C.3       2 GLC5        0.0000 
     11 CA         32.1910  -15.2110   -3.3140 C.3       4 GLP5        0.0000 
     12 CA         30.5635  -18.1685   -5.2185 C.3       2 GLC5        0.0000 
     13 CA         31.0810  -17.7350   -7.0670 C.3       6 GLL5        0.0000 
     14 CA         32.1510  -16.7715   -5.5600 C.3       2 GLC5        0.0000 
     15 CA         33.2210  -15.8080   -4.0530 C.3       4 GLP5        0.0000 
     16 CA         30.1420  -19.5980   -7.1600 C.3       2 GLC5        0.0000 
     17 CA         29.2030  -21.4610   -7.2530 C.3       4 GLP5        0.0000 
     18 CA         30.3535  -13.6400   -7.3425 C.3       2 GLC5        0.0000 
     19 CA         29.1210  -14.8470   -6.7100 C.3       6 GLL5        0.0000 
     20 CA         31.5860  -12.4330   -7.9750 C.3       4 GLP5        0.0000 
     21 CA         27.4385  -15.4425   -7.7150 C.3       2 GLC5        0.0000 
     22 CA         25.7560  -16.0380   -8.7200 C.3       4 GLP5        0.0000 
     23 CA         27.4775  -16.6065   -8.3280 C.3       2 GLC5        0.0000 
     24 CA         29.1990  -17.1750   -7.9360 C.3       6 GLL5        0.0000 
     25 CA         29.9735  -12.5595   -6.5495 C.3       2 GLC5        0.0000 
     26 CA         28.9790  -13.8040   -5.6260 C.3       6 GLL5        0.0000 
     27 CA         30.9680  -11.3150   -7.4730 C.3       4 GLP5        0.0000 
     28 CA         30.5850  -14.5075   -4.4700 C.3       2 GLC5        0.0000 
     29 CA         29.1585  -12.4365   -2.7975 C.3       2 GLC5        0.0000 
     30 CA         28.1250  -11.5100   -4.1950 C.3       6 GLL5        0.0000 
     31 CA         30.1920  -13.3630   -1.4000 C.3       4 GLP5        0.0000 
     32 CA         29.7185   -9.3715   -2.9745 C.3       2 GLC5        0.0000 
     33 CA         27.8190  -10.1100   -3.6630 C.3       6 GLL5        0.0000 
     34 CA         31.6180   -8.6330   -2.2860 C.3       4 GLP5        0.0000 
     35 CA         24.8660   -8.2595   -4.0435 C.3       2 GLC5        0.0000 
     36 CA         26.6580   -9.4290   -4.3560 C.3       6 GLL5        0.0000 
     37 CA         23.0740   -7.0900   -3.7310 C.3       4 GLP5        0.0000 
     38 CA         25.5380  -10.0610   -2.5145 C.3       2 GLC5        0.0000 
     39 CA         24.4180  -10.6930   -0.6730 C.3       4 GLP5        0.0000 
     40 CA         27.6505   -7.9465   -6.9670 C.3       2 GLC5        0.0000 
     41 CA         26.9090   -9.5000   -5.8530 C.3       6 GLL5        0.0000 
     42 CA         28.3920   -6.3930   -8.0810 C.3       4 GLP5        0.0000 
     43 CA         28.8230  -11.1195   -6.8725 C.3       2 GLC5        0.0000 
     44 CA         26.6780  -10.9240   -6.2720 C.3       6 GLL5        0.0000 
     45 CA         29.1180   -3.2425   -6.4260 C.3       2 GLC5        0.0000 
     46 CA         27.4850   -2.7770   -5.6310 C.3       6 GLL5        0.0000 
     47 CA         30.7510   -3.7080   -7.2210 C.3       4 GLP5        0.0000 
     48 CA         27.9385   -4.5850   -6.8560 C.3       2 GLC5        0.0000 
     49 CA         29.3805   -2.2170   -5.5740 C.3       2 GLC5        0.0000 
     50 CA         27.5520   -2.0900   -4.4220 C.3       6 GLL5        0.0000 
     51 CA         31.2090   -2.3440   -6.7260 C.3       4 GLP5        0.0000 
     52 CA         31.4330  -14.6593   -7.0815 C.3       2 GLC5        0.0000 
     53 CA         32.5460  -13.0630   -7.1990 C.3       4 GLP5        0.0000 
     54 CA         31.6595  -18.6762   -6.6073 C.3       2 GLC5        0.0000 
     55 CA         30.3770  -16.7380   -7.5340 C.3       6 GLL5        0.0000 
     56 CA         32.5900  -20.1160   -5.9140 C.3       4 GLP5        0.0000 
     57 CA         28.8195  -18.4378   -8.1925 C.3       2 GLC5        0.0000 
     58 CA         27.8510  -19.9190   -8.6500 C.3       4 GLP5        0.0000 
     59 CA         32.5574  -16.3686   -8.0757 C.3       2 GLC5        0.0000 
     60 CA         34.2330  -15.6370   -8.5960 C.3       4 GLP5        0.0000 
     61 CA         31.6729  -18.4511   -8.6182 C.3       2 GLC5        0.0000 
     62 CA         32.4640  -19.8020   -9.6810 C.3       4 GLP5        0.0000 
     63 CA         29.3594  -16.1036   -9.7265 C.3       2 GLC5        0.0000 
     64 CA         28.7780  -15.3870  -11.4630 C.3       4 GLP5        0.0000 
     65 CA         29.5890  -10.8340   -5.0565 C.3       2 GLC5        0.0000 
     66 CA         31.2060  -10.8580   -6.1840 C.3       4 GLP5        0.0000 
     67 CA         25.9513  -10.1025   -7.7577 C.3       2 GLC5        0.0000 
     68 CA         25.1090   -9.9930   -9.4530 C.3       4 GLP5        0.0000 
     69 CA         25.1924  -10.9181   -5.3681 C.3       2 GLC5        0.0000 
     70 CA         23.6540  -11.6420   -5.0480 C.3       4 GLP5        0.0000 
     71 CA         25.8906   -2.0286   -5.2605 C.3       2 GLC5        0.0000 
     72 CA         27.3750   -3.3250   -3.2040 C.3       6 GLL5        0.0000 
     73 CA         24.3070   -1.3150   -5.7990 C.3       4 GLP5        0.0000 
@<TRIPOS>BOND
@<TRIPOS>SUBSTRUCTURE
     1 SEC2        4 GROUP        1 X    SEC  0     ROOT SEC X 2
     2 GLC5        1 GROUP        1 X    GLC  0     **** GLC X 6
     3 SEP2        6 GROUP        1 Y    SEP  0     ROOT SEP Y 9
     4 GLP5        3 GROUP        1 Y    GLP  0     **** GLP Y 13
     5 SEL2        5 GROUP        1 Z    SEL  0     ROOT SEL Z 16
     6 GLL5        2 GROUP        1 Z    GLL  0     **** GLL Z 20
@<TRIPOS>SET

