#    Name: 3sfi_3SF_1_ligand
#    Modification time : Tue Mar 25 12:33:48 2014

@<TRIPOS>MOLECULE
3sfi_3SF_1_ligand
   42    44     1     0     0
SMALL
NO_CHARGES


@<TRIPOS>ATOM
      1 C          30.3770  -16.7380   -7.5340 C.3       1 3SF217      0.0000 
      2 F          30.9880  -16.1930   -8.5540 F         1 3SF217      0.0000 
      3 N          27.6800  -11.7420   -5.5940 N.am      1 3SF217      0.0000 
      4 O          27.8130  -12.8650   -7.4260 O.2       1 3SF217      0.0000 
      5 S          27.3750   -3.3250   -3.2040 S.3       1 3SF217      0.0000 
      6 C1         30.2630  -15.7730   -6.3940 C.3       1 3SF217      0.0000 
      7 F1         31.0810  -17.7350   -7.0670 F         1 3SF217      0.0000 
      8 N1         26.9720   -6.3700   -2.6320 N.2       1 3SF217      0.0000 
      9 O1         26.7870   -7.7040   -2.7920 O.3       1 3SF217      0.0000 
     10 C2         29.1210  -14.8470   -6.7100 C.3       1 3SF217      0.0000 
     11 F2         29.1990  -17.1750   -7.9360 F         1 3SF217      0.0000 
     12 N2         26.9490   -6.9290   -4.7970 N.2       1 3SF217      0.0000 
     13 C3         28.9790  -13.8040   -5.6260 C.3       1 3SF217      0.0000 
     14 N3         27.3060   -4.1520   -5.5870 N.2       1 3SF217      0.0000 
     15 C4         28.1340  -12.7520   -6.2760 C.2       1 3SF217      0.0000 
     16 C5         28.1250  -11.5100   -4.1950 C.3       1 3SF217      0.0000 
     17 C6         27.8190  -10.1100   -3.6630 C.3       1 3SF217      0.0000 
     18 C7         26.6580   -9.4290   -4.3560 C.3       1 3SF217      0.0000 
     19 C8         26.9090   -9.5000   -5.8530 C.3       1 3SF217      0.0000 
     20 C9         26.6780  -10.9240   -6.2720 C.3       1 3SF217      0.0000 
     21 C10        26.7850   -8.0180   -4.0090 C.2       1 3SF217      0.0000 
     22 C11        27.0540   -5.9320   -3.9120 C.2       1 3SF217      0.0000 
     23 C12        27.2310   -4.6070   -4.3150 C.2       1 3SF217      0.0000 
     24 C13        27.4850   -2.7770   -5.6310 C.2       1 3SF217      0.0000 
     25 C14        27.5520   -2.0900   -4.4220 C.2       1 3SF217      0.0000 
     26 H          31.1763  -15.2055   -6.2990 H         1 3SF217      0.0000 
     27 H          30.0564  -16.3068   -5.4788 H         1 3SF217      0.0000 
     28 H          28.1953  -15.4190   -6.7845 H         1 3SF217      0.0000 
     29 H          29.3034  -14.3529   -7.6651 H         1 3SF217      0.0000 
     30 H          29.9344  -13.4098   -5.3777 H         1 3SF217      0.0000 
     31 H          28.4727  -14.2204   -4.7893 H         1 3SF217      0.0000 
     32 H          29.2171  -11.6796   -4.1143 H         1 3SF217      0.0000 
     33 H          27.6473  -12.2483   -3.5207 H         1 3SF217      0.0000 
     34 H          28.7232   -9.4860   -3.7695 H         1 3SF217      0.0000 
     35 H          27.6067  -10.1812   -2.5822 H         1 3SF217      0.0000 
     36 H          25.7658   -9.8324   -4.0979 H         1 3SF217      0.0000 
     37 H          27.9267   -9.2141   -6.0590 H         1 3SF217      0.0000 
     38 H          26.2198   -8.8478   -6.3626 H         1 3SF217      0.0000 
     39 H          25.6763  -11.2219   -5.9824 H         1 3SF217      0.0000 
     40 H          26.7825  -10.9993   -7.3487 H         1 3SF217      0.0000 
     41 H          27.5647   -2.2859   -6.5144 H         1 3SF217      0.0000 
     42 H          27.6501   -1.2784   -4.1286 H         1 3SF217      0.0000 
@<TRIPOS>BOND
     1    2    1 1    
     2    6    1 1    
     3    7    1 1    
     4   11    1 1    
     5   15    3 am   
     6   16    3 1    
     7   20    3 1    
     8   15    4 2    
     9   23    5 1    
    10   25    5 1    
    11   10    6 1    
    12   26    6 1    
    13   27    6 1    
    14    9    8 1    
    15   22    8 2    
    16   21    9 1    
    17   13   10 1    
    18   28   10 1    
    19   29   10 1    
    20   21   12 2    
    21   22   12 1    
    22   15   13 1    
    23   30   13 1    
    24   31   13 1    
    25   23   14 2    
    26   24   14 1    
    27   17   16 1    
    28   32   16 1    
    29   33   16 1    
    30   18   17 1    
    31   34   17 1    
    32   35   17 1    
    33   19   18 1    
    34   21   18 1    
    35   36   18 1    
    36   20   19 1    
    37   37   19 1    
    38   38   19 1    
    39   39   20 1    
    40   40   20 1    
    41   23   22 1    
    42   25   24 2    
    43   41   24 1    
    44   42   25 1    
@<TRIPOS>SUBSTRUCTURE
     1 3SF217      1 GROUP   
@<TRIPOS>SET

