#    Name: 2qe5_617_1_INTS_M
#    Modification time : Mon Mar 24 21:51:14 2014

@<TRIPOS>MOLECULE
2qe5_617_1_INTS_M
   44     0     6     0     0
SMALL
NO_CHARGES


@<TRIPOS>ATOM
      1 N           4.8650   74.2310  141.1655 N.am      1 SEC2        0.0000 
      2 N           4.0090   73.7910  142.0630 N.am      5 SEL2        0.0000 
      3 N           5.7210   74.6710  140.2680 N.am      3 SEP2        0.0000 
      4 N          -1.8800   72.9160  147.2415 N.am      1 SEC2        0.0000 
      5 N          -0.5980   72.8700  146.5920 N.am      5 SEL2        0.0000 
      6 N          -3.1620   72.9620  147.8910 N.am      3 SEP2        0.0000 
      7 CA          4.4465   71.8080  141.1580 C.3       2 GLC5        0.0000 
      8 CA          2.8350   71.2790  142.5830 C.3       6 GLL5        0.0000 
      9 CA          6.0580   72.3370  139.7330 C.3       4 GLP5        0.0000 
     10 CA          1.1235   76.7620  147.9080 C.3       2 GLC5        0.0000 
     11 CA          0.5620   74.9580  146.9320 C.3       6 GLL5        0.0000 
     12 CA          1.6850   78.5660  148.8840 C.3       4 GLP5        0.0000 
     13 CA          8.1730   73.9490  149.5360 C.3       2 GLC5        0.0000 
     14 CA          7.1990   75.0940  148.8920 C.3       6 GLL5        0.0000 
     15 CA          9.1470   72.8040  150.1800 C.3       4 GLP5        0.0000 
     16 CA          7.0085   76.3765  150.0590 C.3       2 GLC5        0.0000 
     17 CA          6.8180   77.6590  151.2260 C.3       4 GLP5        0.0000 
     18 CA          6.7420   73.8120  147.3350 C.3       2 GLC5        0.0000 
     19 CA          6.2850   72.5300  145.7780 C.3       4 GLP5        0.0000 
     20 CA          7.6225   75.7870  146.8035 C.3       2 GLC5        0.0000 
     21 CA          8.0460   76.4800  144.7150 C.3       4 GLP5        0.0000 
     22 CA          2.5230   68.2000  142.6722 C.3       2 GLC5        0.0000 
     23 CA          2.2760   70.0090  142.8700 C.3       6 GLL5        0.0000 
     24 CA          3.1890   66.4750  141.9190 C.3       4 GLP5        0.0000 
     25 CA          1.6715   68.1770  144.3708 C.3       2 GLC5        0.0000 
     26 CA          1.4860   66.4290  145.3160 C.3       4 GLP5        0.0000 
     27 CA          3.4260   70.0685  144.2818 C.3       2 GLC5        0.0000 
     28 CA          1.4380   69.8410  143.9810 C.3       6 GLL5        0.0000 
     29 CA          4.9950   70.2120  145.1380 C.3       4 GLP5        0.0000 
     30 CA          3.2252   70.8910  144.9245 C.3       2 GLC5        0.0000 
     31 CA          1.1850   70.9230  144.8390 C.3       6 GLL5        0.0000 
     32 CA          3.8578   71.0270  144.0763 C.3       2 GLC5        0.0000 
     33 CA          2.6060   72.4050  143.4460 C.3       6 GLL5        0.0000 
     34 CA          4.5183   74.2482  150.1305 C.3       2 GLC5        0.0000 
     35 CA          3.3880   74.2600  147.9460 C.3       6 GLL5        0.0000 
     36 CA          4.9950   74.2830  152.0430 C.3       4 GLP5        0.0000 
     37 CA          5.1632   73.3718  146.9980 C.3       2 GLC5        0.0000 
     38 CA          4.6950   74.1670  148.4900 C.3       6 GLL5        0.0000 
     39 CA          6.1277   76.7127  149.5360 C.3       2 GLC5        0.0000 
     40 CA          5.6220   75.2010  148.2420 C.3       6 GLL5        0.0000 
     41 CA          5.7027   74.7152  150.3050 C.3       2 GLC5        0.0000 
     42 CA          5.8613   74.1482  146.8120 C.3       2 GLC5        0.0000 
     43 CA          3.0253   77.3454  148.0584 C.3       2 GLC5        0.0000 
     44 CA          5.2530   76.3320  147.4500 C.3       6 GLL5        0.0000 
@<TRIPOS>BOND
@<TRIPOS>SUBSTRUCTURE
     1 SEC2        1 GROUP        1 X    SEC  0     ROOT SEC X 2
     2 GLC5        7 GROUP        1 X    GLC  0     **** GLC X 6
     3 SEP2        3 GROUP        1 Y    SEP  0     ROOT SEP Y 9
     4 GLP5        9 GROUP        1 Y    GLP  0     **** GLP Y 13
     5 SEL2        2 GROUP        1 Z    SEL  0     ROOT SEL Z 16
     6 GLL5        8 GROUP        1 Z    GLL  0     **** GLL Z 20
@<TRIPOS>SET

