#    Name: 2qe5_617_1_ligand
#    Modification time : Mon Mar 24 21:51:14 2014

@<TRIPOS>MOLECULE
2qe5_617_1_ligand
   32    33     1     0     0
SMALL
NO_CHARGES


@<TRIPOS>ATOM
      1 C7          3.2820   73.7520  143.0960 C.2       1 617579      0.0000 
      2 C1          2.2760   70.0090  142.8700 C.ar      1 617579      0.0000 
      3 C8          0.3760   73.5760  146.2990 C.2       1 617579      0.0000 
      4 O2          3.1090   74.7360  143.8940 O.co2     1 617579      0.0000 
      5 O1          4.0090   73.7910  142.0630 O.co2     1 617579      0.0000 
      6 C3          1.1850   70.9230  144.8390 C.ar      1 617579      0.0000 
      7 N1          1.4540   73.3190  145.4130 N.am      1 617579      0.0000 
      8 C2          1.4380   69.8410  143.9810 C.ar      1 617579      0.0000 
      9 O3         -0.5980   72.8700  146.5920 O.2       1 617579      0.0000 
     10 C4          1.7260   72.2170  144.5830 C.ar      1 617579      0.0000 
     11 C5          2.6060   72.4050  143.4460 C.ar      1 617579      0.0000 
     12 C6          2.8350   71.2790  142.5830 C.ar      1 617579      0.0000 
     13 C9          0.5620   74.9580  146.9320 C.3       1 617579      0.0000 
     14 O4          1.7550   75.6410  146.5180 O.3       1 617579      0.0000 
     15 C10         2.9980   75.4010  147.1320 C.ar      1 617579      0.0000 
     16 C11         3.3880   74.2600  147.9460 C.ar      1 617579      0.0000 
     17 C12         4.6950   74.1670  148.4900 C.ar      1 617579      0.0000 
     18 C13         5.6220   75.2010  148.2420 C.ar      1 617579      0.0000 
     19 C14         5.2530   76.3320  147.4500 C.ar      1 617579      0.0000 
     20 C15         3.9580   76.4340  146.8990 C.ar      1 617579      0.0000 
     21 CL1         7.1990   75.0940  148.8920 Cl        1 617579      0.0000 
     22 H           2.4891   69.2152  142.2594 H         1 617579      0.0000 
     23 H           0.5967   70.7886  145.6743 H         1 617579      0.0000 
     24 H           2.2053   74.1243  145.3711 H         1 617579      0.0000 
     25 H           1.0099   68.9296  144.1676 H         1 617579      0.0000 
     26 H           3.4142   71.4057  141.7472 H         1 617579      0.0000 
     27 H           0.5419   74.8213  148.0375 H         1 617579      0.0000 
     28 H          -0.3462   75.5570  146.6921 H         1 617579      0.0000 
     29 H           2.7021   73.5261  148.1187 H         1 617579      0.0000 
     30 H           4.9571   73.3627  149.0518 H         1 617579      0.0000 
     31 H           5.9410   77.0716  147.2853 H         1 617579      0.0000 
     32 H           3.6993   77.2410  146.3338 H         1 617579      0.0000 
@<TRIPOS>BOND
     1    4    1 ar   
     2    5    1 ar   
     3   11    1 1    
     4    8    2 ar   
     5   12    2 ar   
     6   22    2 1    
     7    7    3 am   
     8    9    3 2    
     9   13    3 1    
    10    8    6 ar   
    11   10    6 ar   
    12   23    6 1    
    13   10    7 1    
    14   24    7 1    
    15   25    8 1    
    16   11   10 ar   
    17   12   11 ar   
    18   26   12 1    
    19   14   13 1    
    20   27   13 1    
    21   28   13 1    
    22   15   14 1    
    23   16   15 ar   
    24   20   15 ar   
    25   17   16 ar   
    26   29   16 1    
    27   18   17 ar   
    28   30   17 1    
    29   19   18 ar   
    30   21   18 1    
    31   20   19 ar   
    32   31   19 1    
    33   32   20 1    
@<TRIPOS>SUBSTRUCTURE
     1 617579      1 GROUP   
@<TRIPOS>SET

