#    Name: 2bue_COA_1_INTS_M
#    Modification time : Mon Mar 24 21:43:51 2014

@<TRIPOS>MOLECULE
2bue_COA_1_INTS_M
  100     0    12     0     0
SMALL
NO_CHARGES


@<TRIPOS>ATOM
      1 CA         -0.0560    3.9055   21.9360 C.3       4 GLC5        0.0000 
      2 CA         -0.1940    2.2910   22.7030 C.3      12 GLL5        0.0000 
      3 CA          0.0820    5.5200   21.1690 C.3       8 GLP5        0.0000 
      4 CA          1.7635    2.5145   22.2045 C.3       4 GLC5        0.0000 
      5 CA          3.7210    2.7380   21.7060 C.3       8 GLP5        0.0000 
      6 CA          2.4475    1.6635   22.5800 C.3       4 GLC5        0.0000 
      7 CA          1.1740    0.5890   23.4540 C.3      12 GLL5        0.0000 
      8 CA          3.0395    1.7800   26.5450 C.3       4 GLC5        0.0000 
      9 CA          2.4420    0.2100   25.5300 C.3      12 GLL5        0.0000 
     10 CA          3.6370    3.3500   27.5600 C.3       8 GLP5        0.0000 
     11 NZ          3.0910    2.1245   30.3030 N.4       3 LYC4        0.0000 
     12 NZ          2.9490    0.5620   30.6150 N.4      11 LYL4        0.0000 
     13 NZ          3.7560    4.4470   30.9550 N.4       7 LYP4        0.0000 
     14 N           3.0910    2.1245   30.3030 N.am      2 SEC2        0.0000 
     15 N           2.9490    0.5620   30.6150 N.am     10 SEL2        0.0000 
     16 N           3.2330    3.6870   29.9910 N.am      6 SEP2        0.0000 
     17 NZ          5.8755   -1.0915   29.6585 N.4       3 LYC4        0.0000 
     18 NZ          4.6010   -1.3500   30.0260 N.4      11 LYL4        0.0000 
     19 NZ          7.1500   -0.8330   29.2910 N.4       7 LYP4        0.0000 
     20 N           5.8755   -1.0915   29.6585 N.am      2 SEC2        0.0000 
     21 N           4.6010   -1.3500   30.0260 N.am     10 SEL2        0.0000 
     22 N           7.1500   -0.8330   29.2910 N.am      6 SEP2        0.0000 
     23 CA          5.3530    0.2145   23.3515 C.3       4 GLC5        0.0000 
     24 CA          5.9480    0.0130   25.3190 C.3      12 GLL5        0.0000 
     25 CA          4.7580    0.4160   21.3840 C.3       8 GLP5        0.0000 
     26 CA          7.3705    1.4425   24.9885 C.3       4 GLC5        0.0000 
     27 CA          8.7930    2.8720   24.6580 C.3       8 GLP5        0.0000 
     28 CA          6.4830    0.3325   27.2435 C.3       4 GLC5        0.0000 
     29 CA          7.0180    0.6520   29.1680 C.3       8 GLP5        0.0000 
     30 N           7.1155   -0.5645   27.7160 N.am      2 SEC2        0.0000 
     31 N           7.0810   -0.2960   26.1410 N.am     10 SEL2        0.0000 
     32 NZ          8.2955   -1.0665   27.7980 N.4       3 LYC4        0.0000 
     33 NZ          9.4410   -1.3000   26.3050 N.4      11 LYL4        0.0000 
     34 N          10.8480   -0.7390   26.2530 N.am      2 SEC2        0.0000 
     35 N           9.4410   -1.3000   26.3050 N.am     10 SEL2        0.0000 
     36 N          12.2550   -0.1780   26.2010 N.am      6 SEP2        0.0000 
     37 N           9.7940   -0.3110   27.1505 N.am      2 SEC2        0.0000 
     38 N          10.1470    0.6780   27.9960 N.am      6 SEP2        0.0000 
     39 N           8.3410   -3.8540   26.2440 N.am      2 SEC2        0.0000 
     40 N           7.4910   -2.8040   25.6100 N.am     10 SEL2        0.0000 
     41 N           9.1910   -4.9040   26.8780 N.am      6 SEP2        0.0000 
     42 N          11.2260   -2.6030   24.0125 N.am      2 SEC2        0.0000 
     43 N           9.9070   -2.8450   23.6080 N.am     10 SEL2        0.0000 
     44 N          12.5450   -2.3610   24.4170 N.am      6 SEP2        0.0000 
     45 N           7.5050   -3.6300   22.2025 N.am      2 SEC2        0.0000 
     46 N           8.0350   -2.3010   21.9240 N.am     10 SEL2        0.0000 
     47 N           6.9750   -4.9590   22.4810 N.am      6 SEP2        0.0000 
     48 CA         11.0390   -0.2345   22.8445 C.3       4 GLC5        0.0000 
     49 CA          9.3570    0.5120   21.7450 C.3      12 GLL5        0.0000 
     50 CA         12.7210   -0.9810   23.9440 C.3       8 GLP5        0.0000 
     51 CA          9.9500    1.4815   23.2575 C.3       4 GLC5        0.0000 
     52 CA         10.5430    2.4510   24.7700 C.3       8 GLP5        0.0000 
     53 CA          8.1185    3.3475   20.4570 C.3       4 GLC5        0.0000 
     54 CA          9.2620    1.9730   19.7220 C.3      12 GLL5        0.0000 
     55 CA          6.9750    4.7220   21.1920 C.3       8 GLP5        0.0000 
     56 CA         13.2760    2.0405   20.3510 C.3       4 GLC5        0.0000 
     57 CA         11.4550    0.8910   20.4180 C.3      12 GLL5        0.0000 
     58 CA         15.0970    3.1900   20.2840 C.3       8 GLP5        0.0000 
     59 CA         12.2910   -1.0830   20.2580 C.3       4 GLC5        0.0000 
     60 CA         13.1270   -3.0570   20.0980 C.3       8 GLP5        0.0000 
     61 CA         12.0880   -0.0450   22.1810 C.3       4 GLC5        0.0000 
     62 CA         10.8180   -2.1275   20.2390 C.3       4 GLC5        0.0000 
     63 CA          9.5750   -0.5510   19.4530 C.3      12 GLL5        0.0000 
     64 CA         12.0610   -3.7040   21.0250 C.3       8 GLP5        0.0000 
     65 CA          9.3875   -2.3530   18.8340 C.3       4 GLC5        0.0000 
     66 CA          9.2000   -4.1550   18.2150 C.3       8 GLP5        0.0000 
     67 N          12.3990   -1.0215   17.4775 N.am      2 SEC2        0.0000 
     68 N          11.1370   -0.4020   17.6250 N.am     10 SEL2        0.0000 
     69 N          13.6610   -1.6410   17.3300 N.am      6 SEP2        0.0000 
     70 CA          9.3095   -2.1040   14.8730 C.3       4 GLC5        0.0000 
     71 CA          9.0950   -0.0400   15.6510 C.3      12 GLL5        0.0000 
     72 CA          9.5240   -4.1680   14.0950 C.3       8 GLP5        0.0000 
     73 CA          7.4510    0.9280   14.9105 C.3       4 GLC5        0.0000 
     74 CA          5.8070    1.8960   14.1700 C.3       8 GLP5        0.0000 
     75 CA          8.6990    2.4380   14.2890 C.3       4 GLC5        0.0000 
     76 CA          9.9930    1.1860   15.3390 C.3      12 GLL5        0.0000 
     77 CA          7.4050    3.6900   13.2390 C.3       8 GLP5        0.0000 
     78 CA         12.0235    0.9140   15.2100 C.3       4 GLC5        0.0000 
     79 CA         14.0540    0.6420   15.0810 C.3       8 GLP5        0.0000 
     80 N           7.5460    3.9955   16.4865 N.am      2 SEC2        0.0000 
     81 N           8.4250    2.7680   16.3230 N.am     10 SEL2        0.0000 
     82 N           6.6670    5.2230   16.6500 N.am      6 SEP2        0.0000 
     83 O          12.0685    3.2590   16.8560 O.2       1 ALC1        0.0000 
     84 O          10.6320    3.2400   16.5060 O.2       9 ALL1        0.0000 
     85 O          13.5050    3.2780   17.2060 O.2       5 ALP1        0.0000 
     86 CA          9.0335    8.8530   17.7820 C.3       4 GLC5        0.0000 
     87 CA         10.0370    7.2630   17.3850 C.3      12 GLL5        0.0000 
     88 CA          8.0300   10.4430   18.1790 C.3       8 GLP5        0.0000 
     89 CA          8.7285    6.3175   18.6475 C.3       4 GLC5        0.0000 
     90 CA          7.4200    5.3720   19.9100 C.3       8 GLP5        0.0000 
     91 CA         10.4275    7.5055   19.4385 C.3       4 GLC5        0.0000 
     92 CA         10.8180    7.7480   21.4920 C.3       8 GLP5        0.0000 
     93 CA          2.2203    0.8377   21.2905 C.3       4 GLC5        0.0000 
     94 CA          0.9890   -0.1070   22.2720 C.3      12 GLL5        0.0000 
     95 CA          3.8570    1.5020   20.7960 C.3       8 GLP5        0.0000 
     96 CA          4.0088    1.6267   27.0802 C.3       4 GLC5        0.0000 
     97 CA          4.7230    0.4170   26.1430 C.3      12 GLL5        0.0000 
     98 CA          5.6993    0.2777   27.8843 C.3       4 GLC5        0.0000 
     99 CA          8.8510    5.2317   18.3742 C.3       4 GLC5        0.0000 
    100 CA         10.3990    4.4790   17.2790 C.3      12 GLL5        0.0000 
@<TRIPOS>BOND
@<TRIPOS>SUBSTRUCTURE
     1 ALC1       83 GROUP        1 X    ALC  0     ROOT ALC X 1
     2 SEC2       14 GROUP        1 X    SEC  0     **** SEC X 2
     3 LYC4       11 GROUP        1 X    LYC  0     **** LYC X 4
     4 GLC5        1 GROUP        1 X    GLC  0     **** GLC X 6
     5 ALP1       85 GROUP        1 Y    ALP  0     ROOT ALP Y 8
     6 SEP2       16 GROUP        1 Y    SEP  0     **** SEP Y 9
     7 LYP4       13 GROUP        1 Y    LYP  0     **** LYP Y 11
     8 GLP5        3 GROUP        1 Y    GLP  0     **** GLP Y 13
     9 ALL1       84 GROUP        1 Z    ALL  0     ROOT ALL Z 15
    10 SEL2       15 GROUP        1 Z    SEL  0     **** SEL Z 16
    11 LYL4       12 GROUP        1 Z    LYL  0     **** LYL Z 18
    12 GLL5        2 GROUP        1 Z    GLL  0     **** GLL Z 20
@<TRIPOS>SET

