#    Name: 2bue_COA_1_ligand
#    Modification time : Mon Mar 24 21:43:51 2014

@<TRIPOS>MOLECULE
2bue_COA_1_ligand
   79    81     1     0     0
SMALL
NO_CHARGES


@<TRIPOS>ATOM
      1 N1A        -0.3930    1.6510   21.5520 N.ar      1 COA1200     0.0000 
      2 C2A        -0.1940    2.2910   22.7030 C.ar      1 COA1200     0.0000 
      3 N3A         0.5790    1.7790   23.6500 N.ar      1 COA1200     0.0000 
      4 C4A         1.1740    0.5890   23.4540 C.ar      1 COA1200     0.0000 
      5 C5A         0.9890   -0.1070   22.2720 C.ar      1 COA1200     0.0000 
      6 C6A         0.1780    0.4540   21.2980 C.ar      1 COA1200     0.0000 
      7 N6A        -0.0160   -0.1960   20.1450 N.pl3     1 COA1200     0.0000 
      8 N7A         1.6830   -1.2420   22.3400 N.2       1 COA1200     0.0000 
      9 C8A         2.2850   -1.2690   23.5260 C.2       1 COA1200     0.0000 
     10 N9A         1.9670   -0.1590   24.2020 N.pl3     1 COA1200     0.0000 
     11 C1B         2.4420    0.2100   25.5300 C.3       1 COA1200     0.0000 
     12 C2B         2.8690   -1.0810   26.1980 C.3       1 COA1200     0.0000 
     13 O2B         1.7640   -1.5790   26.9590 O.3       1 COA1200     0.0000 
     14 C3B         4.0380   -0.6100   27.0580 C.3       1 COA1200     0.0000 
     15 O3B         3.5340    0.1060   28.1900 O.3       1 COA1200     0.0000 
     16 P3B         3.2300   -0.6440   29.5710 P.3       1 COA1200     0.0000 
     17 O7A         2.9490    0.5620   30.6150 O.co2     1 COA1200     0.0000 
     18 O8A         4.6010   -1.3500   30.0260 O.co2     1 COA1200     0.0000 
     19 O9A         2.0880   -1.5930   29.4490 O.co2     1 COA1200     0.0000 
     20 C4B         4.7230    0.4170   26.1430 C.3       1 COA1200     0.0000 
     21 O4B         3.6890    0.9260   25.2570 O.3       1 COA1200     0.0000 
     22 C5B         5.9480    0.0130   25.3190 C.3       1 COA1200     0.0000 
     23 O5B         7.0810   -0.2960   26.1410 O.3       1 COA1200     0.0000 
     24 P1A         8.1050   -1.4520   25.6210 P.3       1 COA1200     0.0000 
     25 O1A         9.4410   -1.3000   26.3050 O.co2     1 COA1200     0.0000 
     26 O2A         7.4910   -2.8040   25.6100 O.co2     1 COA1200     0.0000 
     27 O3A         8.2770   -0.9730   24.1110 O.3       1 COA1200     0.0000 
     28 P2A         9.0160   -1.8630   22.9610 P.3       1 COA1200     0.0000 
     29 O4A         9.9070   -2.8450   23.6080 O.co2     1 COA1200     0.0000 
     30 O5A         8.0350   -2.3010   21.9240 O.co2     1 COA1200     0.0000 
     31 O6A         9.9340   -0.6990   22.3050 O.3       1 COA1200     0.0000 
     32 CBP         9.9180    0.7070   20.3210 C.3       1 COA1200     0.0000 
     33 CCP         9.3570    0.5120   21.7450 C.3       1 COA1200     0.0000 
     34 CDP         9.2620    1.9730   19.7220 C.3       1 COA1200     0.0000 
     35 CEP        11.4550    0.8910   20.4180 C.3       1 COA1200     0.0000 
     36 CAP         9.5750   -0.5510   19.4530 C.3       1 COA1200     0.0000 
     37 OAP         8.1830   -0.9020   19.6010 O.3       1 COA1200     0.0000 
     38 C9P         9.9520   -0.3800   17.9650 C.2       1 COA1200     0.0000 
     39 O9P        11.1370   -0.4020   17.6250 O.2       1 COA1200     0.0000 
     40 N8P         8.9170   -0.2170   17.1100 N.am      1 COA1200     0.0000 
     41 C7P         9.0950   -0.0400   15.6510 C.3       1 COA1200     0.0000 
     42 C6P         9.9930    1.1860   15.3390 C.3       1 COA1200     0.0000 
     43 C5P         9.6040    2.4720   16.1090 C.2       1 COA1200     0.0000 
     44 O5P         8.4250    2.7680   16.3230 O.2       1 COA1200     0.0000 
     45 N4P        10.6320    3.2400   16.5060 N.am      1 COA1200     0.0000 
     46 C3P        10.3990    4.4790   17.2790 C.3       1 COA1200     0.0000 
     47 C2P        10.1650    5.7040   16.3980 C.3       1 COA1200     0.0000 
     48 S1P        10.0370    7.2630   17.3850 S.3       1 COA1200     0.0000 
     49 H          -0.6630    3.2254   22.8615 H         1 COA1200     0.0000 
     50 H           0.4519   -1.0748   20.0512 H         1 COA1200     0.0000 
     51 H          -0.6116    0.2552   19.4803 H         1 COA1200     0.0000 
     52 H           2.8654   -1.9811   23.8540 H         1 COA1200     0.0000 
     53 H           1.7862    0.7305   26.0756 H         1 COA1200     0.0000 
     54 H           3.2227   -1.7335   25.4582 H         1 COA1200     0.0000 
     55 H           4.6756   -1.3774   27.2598 H         1 COA1200     0.0000 
     56 H           5.0237    1.2754   26.7966 H         1 COA1200     0.0000 
     57 H           6.1695    0.8439   24.6231 H         1 COA1200     0.0000 
     58 H           5.6571   -0.8509   24.6923 H         1 COA1200     0.0000 
     59 H           9.6211    1.3874   22.3311 H         1 COA1200     0.0000 
     60 H           8.2757    0.4414   21.6715 H         1 COA1200     0.0000 
     61 H          10.2012   -1.3754   19.8495 H         1 COA1200     0.0000 
     62 H           7.9280   -0.2079   17.4417 H         1 COA1200     0.0000 
     63 H           8.1307    0.1161   15.1596 H         1 COA1200     0.0000 
     64 H           9.5656   -0.9224   15.2086 H         1 COA1200     0.0000 
     65 H           9.9457    1.3914   14.2605 H         1 COA1200     0.0000 
     66 H          11.0341    0.9302   15.5806 H         1 COA1200     0.0000 
     67 H          11.6149    3.0146   16.2994 H         1 COA1200     0.0000 
     68 H          11.2631    4.6857   17.9358 H         1 COA1200     0.0000 
     69 H           9.5220    4.3559   17.9396 H         1 COA1200     0.0000 
     70 H           9.2275    5.6996   15.8842 H         1 COA1200     0.0000 
     71 H          10.9785    5.9327   15.7432 H         1 COA1200     0.0000 
     72 H           9.4626    2.7879   20.2658 H         1 COA1200     0.0000 
     73 H           9.5842    2.1540   18.7928 H         1 COA1200     0.0000 
     74 H           8.2666    1.8891   19.6759 H         1 COA1200     0.0000 
     75 H          11.8984    0.0978   20.8354 H         1 COA1200     0.0000 
     76 H          11.8712    1.0195   19.5179 H         1 COA1200     0.0000 
     77 H          11.6995    1.6879   20.9704 H         1 COA1200     0.0000 
     78 H           2.1747   -1.9899   27.7729 H         1 COA1200     0.0000 
     79 H           8.1396   -1.4382   20.4440 H         1 COA1200     0.0000 
@<TRIPOS>BOND
     1    2    1 ar   
     2    6    1 ar   
     3    3    2 ar   
     4   49    2 1    
     5    4    3 ar   
     6    5    4 ar   
     7   10    4 1    
     8    6    5 ar   
     9    8    5 1    
    10    7    6 1    
    11   50    7 1    
    12   51    7 1    
    13    9    8 2    
    14   10    9 1    
    15   52    9 1    
    16   11   10 1    
    17   12   11 1    
    18   21   11 1    
    19   53   11 1    
    20   13   12 1    
    21   14   12 1    
    22   54   12 1    
    23   78   13 1    
    24   15   14 1    
    25   20   14 1    
    26   55   14 1    
    27   16   15 1    
    28   17   16 ar   
    29   18   16 ar   
    30   19   16 ar   
    31   21   20 1    
    32   22   20 1    
    33   56   20 1    
    34   23   22 1    
    35   57   22 1    
    36   58   22 1    
    37   24   23 1    
    38   25   24 ar   
    39   26   24 ar   
    40   27   24 1    
    41   28   27 1    
    42   29   28 ar   
    43   30   28 ar   
    44   31   28 1    
    45   33   31 1    
    46   33   32 1    
    47   34   32 1    
    48   35   32 1    
    49   36   32 1    
    50   59   33 1    
    51   60   33 1    
    52   72   34 1    
    53   73   34 1    
    54   74   34 1    
    55   75   35 1    
    56   76   35 1    
    57   77   35 1    
    58   37   36 1    
    59   38   36 1    
    60   61   36 1    
    61   79   37 1    
    62   39   38 2    
    63   40   38 am   
    64   41   40 1    
    65   62   40 1    
    66   42   41 1    
    67   63   41 1    
    68   64   41 1    
    69   43   42 1    
    70   65   42 1    
    71   66   42 1    
    72   44   43 2    
    73   45   43 am   
    74   46   45 1    
    75   67   45 1    
    76   47   46 1    
    77   68   46 1    
    78   69   46 1    
    79   48   47 1    
    80   70   47 1    
    81   71   47 1    
@<TRIPOS>SUBSTRUCTURE
     1 COA1200     1 GROUP   
@<TRIPOS>SET

