#    Name: 3tdl_11D_2_INTS_M
#    Modification time : Mon Mar 24 19:42:26 2014

@<TRIPOS>MOLECULE
3tdl_11D_2_INTS_M
   77     0     9     0     0
SMALL
NO_CHARGES


@<TRIPOS>ATOM
      1 CA         28.6940    4.7875    4.5550 C.3       3 GLC5        0.0000 
      2 CA         27.9330    3.9470    6.0220 C.3       9 GLL5        0.0000 
      3 CA         29.4550    5.6280    3.0880 C.3       6 GLP5        0.0000 
      4 CA         27.3575    1.3505    4.5130 C.3       3 GLC5        0.0000 
      5 CA         28.2920    2.6380    5.7470 C.3       9 GLL5        0.0000 
      6 CA         26.4230    0.0630    3.2790 C.3       6 GLP5        0.0000 
      7 CA         28.5495    3.5580    4.0540 C.3       3 GLC5        0.0000 
      8 CA         28.8070    4.4780    2.3610 C.3       6 GLP5        0.0000 
      9 CA         30.5985    4.8835   11.1605 C.3       3 GLC5        0.0000 
     10 CA         29.5040    3.5210   10.5650 C.3       9 GLL5        0.0000 
     11 CA         31.6930    6.2460   11.7560 C.3       6 GLP5        0.0000 
     12 CA         30.0800    5.7925   10.1625 C.3       3 GLC5        0.0000 
     13 CA         28.9330    4.2750    9.5500 C.3       9 GLL5        0.0000 
     14 CA         31.2270    7.3100   10.7750 C.3       6 GLP5        0.0000 
     15 CA         28.4590   -1.7835   10.6805 C.3       3 GLC5        0.0000 
     16 CA         29.2180   -0.7320    9.3410 C.3       9 GLL5        0.0000 
     17 CA         27.7000   -2.8350   12.0200 C.3       6 GLP5        0.0000 
     18 CA         29.5450   -1.9580    7.9825 C.3       3 GLC5        0.0000 
     19 CA         29.8720   -3.1840    6.6240 C.3       6 GLP5        0.0000 
     20 CA         27.7845   -0.5775    8.5350 C.3       3 GLC5        0.0000 
     21 CA         26.3510   -0.4230    7.7290 C.3       6 GLP5        0.0000 
     22 CA         30.5405   -1.5820    7.2915 C.3       3 GLC5        0.0000 
     23 CA         31.2090    0.0200    7.9590 C.3       9 GLL5        0.0000 
     24 CA         32.1400    1.1905    7.0790 C.3       3 GLC5        0.0000 
     25 CA         33.0710    2.3610    6.1990 C.3       6 GLP5        0.0000 
     26 CA         32.2590   -1.8020    7.9030 C.3       3 GLC5        0.0000 
     27 CA         33.3090   -3.6240    7.8470 C.3       6 GLP5        0.0000 
     28 N          25.9760    5.0370    9.6580 N.am      2 SEC2        0.0000 
     29 N          26.8820    5.9850    8.7520 N.am      8 SEL2        0.0000 
     30 N          25.0700    4.0890   10.5640 N.am      5 SEP2        0.0000 
     31 O          28.9615    7.2715    9.3495 O.2       1 ALC1        0.0000 
     32 O          29.0500    6.8040    7.9220 O.2       7 ALL1        0.0000 
     33 O          28.8730    7.7390   10.7770 O.2       4 ALP1        0.0000 
     34 CA         30.0760    8.7465    5.4905 C.3       3 GLC5        0.0000 
     35 CA         29.7160    7.4440    6.8130 C.3       9 GLL5        0.0000 
     36 CA         30.4360   10.0490    4.1680 C.3       6 GLP5        0.0000 
     37 CA         30.4715    7.3770    8.7940 C.3       3 GLC5        0.0000 
     38 CA         30.5395    7.8080    4.7400 C.3       3 GLC5        0.0000 
     39 CA         30.8330    6.5720    6.2480 C.3       9 GLL5        0.0000 
     40 CA         30.2460    9.0440    3.2320 C.3       6 GLP5        0.0000 
     41 CA         31.2710    4.7745    5.2295 C.3       3 GLC5        0.0000 
     42 CA         31.7090    2.9770    4.2110 C.3       6 GLP5        0.0000 
     43 CA         35.5645    6.8970    9.5745 C.3       3 GLC5        0.0000 
     44 CA         34.0730    6.1870    8.0940 C.3       9 GLL5        0.0000 
     45 CA         37.0560    7.6070   11.0550 C.3       6 GLP5        0.0000 
     46 CA         35.3340    0.9340    9.3490 C.3       3 GLC5        0.0000 
     47 CA         34.1580    2.1420   10.7280 C.3       9 GLL5        0.0000 
     48 CA         36.5100   -0.2740    7.9700 C.3       6 GLP5        0.0000 
     49 CA         35.9885    1.7945   11.4240 C.3       3 GLC5        0.0000 
     50 CA         37.8190    1.4470   12.1200 C.3       6 GLP5        0.0000 
     51 CA         31.2242    2.1932    7.3550 C.3       3 GLC5        0.0000 
     52 CA         29.0990    2.4080    8.0010 C.3       9 GLL5        0.0000 
     53 CA         26.4688    3.7435    7.8115 C.3       3 GLC5        0.0000 
     54 CA         28.7140    3.7150    8.2860 C.3       9 GLL5        0.0000 
     55 CA         24.5040    3.3970    7.8380 C.3       6 GLP5        0.0000 
     56 CA         26.3492    3.3587    5.6067 C.3       3 GLC5        0.0000 
     57 CA         24.5860    3.4250    5.3290 C.3       6 GLP5        0.0000 
     58 CA         29.9827    3.0369    5.1713 C.3       3 GLC5        0.0000 
     59 CA         29.8648    6.3180    4.8093 C.3       3 GLC5        0.0000 
     60 CA         32.4725    7.9255    7.1960 C.3       3 GLC5        0.0000 
     61 CA         33.6880    9.5650    7.5870 C.3       6 GLP5        0.0000 
     62 CA         32.7387    4.1792    6.6692 C.3       3 GLC5        0.0000 
     63 CA         33.1320    5.9950    6.9170 C.3       9 GLL5        0.0000 
     64 CA         34.3407    6.9575    5.8302 C.3       3 GLC5        0.0000 
     65 CA         35.0790    7.8240    4.1550 C.3       6 GLP5        0.0000 
     66 CA         33.6452    7.8280    7.5462 C.3       3 GLC5        0.0000 
     67 CA         33.7105    3.9410    7.2657 C.3       3 GLC5        0.0000 
     68 CA         32.2334    6.7011    9.1959 C.3       3 GLC5        0.0000 
     69 CA         35.2399    4.4410    6.8196 C.3       3 GLC5        0.0000 
     70 CA         36.3650    3.4090    5.6010 C.3       6 GLP5        0.0000 
     71 CA         35.9810    5.4355   10.1185 C.3       3 GLC5        0.0000 
     72 CA         34.6270    4.8550    8.5710 C.3       9 GLL5        0.0000 
     73 CA         37.6900    6.2180   11.0220 C.3       6 GLP5        0.0000 
     74 CA         33.3597    3.0515    8.0077 C.3       3 GLC5        0.0000 
     75 CA         33.9170    4.4510    9.8590 C.3       9 GLL5        0.0000 
     76 CA         32.6707    4.9940   10.7863 C.3       3 GLC5        0.0000 
     77 CA         33.3800    3.0330    9.7740 C.3       9 GLL5        0.0000 
@<TRIPOS>BOND
@<TRIPOS>SUBSTRUCTURE
     1 ALC1       31 GROUP        1 X    ALC  0     ROOT ALC X 1
     2 SEC2       28 GROUP        1 X    SEC  0     **** SEC X 2
     3 GLC5        1 GROUP        1 X    GLC  0     **** GLC X 6
     4 ALP1       33 GROUP        1 Y    ALP  0     ROOT ALP Y 8
     5 SEP2       30 GROUP        1 Y    SEP  0     **** SEP Y 9
     6 GLP5        3 GROUP        1 Y    GLP  0     **** GLP Y 13
     7 ALL1       32 GROUP        1 Z    ALL  0     ROOT ALL Z 15
     8 SEL2       29 GROUP        1 Z    SEL  0     **** SEL Z 16
     9 GLL5        2 GROUP        1 Z    GLL  0     **** GLL Z 20
@<TRIPOS>SET

