#    Name: 3tdl_11D_2_ligand
#    Modification time : Mon Mar 24 19:42:27 2014

@<TRIPOS>MOLECULE
3tdl_11D_2_ligand
   63    64     1     0     0
SMALL
NO_CHARGES


@<TRIPOS>ATOM
      1 C1         28.8680    1.8550    6.7350 C.ar      1 11D1007     0.0000 
      2 C2         29.0990    2.4080    8.0010 C.ar      1 11D1007     0.0000 
      3 C3         28.7140    3.7150    8.2860 C.ar      1 11D1007     0.0000 
      4 C4         28.1530    4.4650    7.2840 C.ar      1 11D1007     0.0000 
      5 C5         27.9330    3.9470    6.0220 C.ar      1 11D1007     0.0000 
      6 C6         28.2920    2.6380    5.7470 C.ar      1 11D1007     0.0000 
      7 C7         29.6560    1.6430    9.0210 C.ar      1 11D1007     0.0000 
      8 C8         29.8740    2.2060   10.2820 C.ar      1 11D1007     0.0000 
      9 C9         29.5040    3.5210   10.5650 C.ar      1 11D1007     0.0000 
     10 C10        28.9330    4.2750    9.5500 C.ar      1 11D1007     0.0000 
     11 N11        30.0380    0.3270    8.7660 N.3       1 11D1007     0.0000 
     12 C12        29.2180   -0.7320    9.3410 C.3       1 11D1007     0.0000 
     13 C13        31.2090    0.0200    7.9590 C.3       1 11D1007     0.0000 
     14 S14        27.7450    5.9610    7.6010 S.o2      1 11D1007     0.0000 
     15 O15        26.8820    5.9850    8.7520 O.2       1 11D1007     0.0000 
     16 O16        27.1010    6.5520    6.4590 O.2       1 11D1007     0.0000 
     17 N17        29.0500    6.8040    7.9220 N.pl3     1 11D1007     0.0000 
     18 C18        29.7160    7.4440    6.8130 C.3       1 11D1007     0.0000 
     19 C19        30.8330    6.5720    6.2480 C.3       1 11D1007     0.0000 
     20 C20        31.6810    6.0000    7.3620 C.3       1 11D1007     0.0000 
     21 C21        33.1320    5.9950    6.9170 C.3       1 11D1007     0.0000 
     22 C22        34.0730    6.1870    8.0940 C.3       1 11D1007     0.0000 
     23 C23        34.6270    4.8550    8.5710 C.3       1 11D1007     0.0000 
     24 C24        33.9170    4.4510    9.8590 C.3       1 11D1007     0.0000 
     25 C25        33.3800    3.0330    9.7740 C.3       1 11D1007     0.0000 
     26 C26        34.1580    2.1420   10.7280 C.3       1 11D1007     0.0000 
     27 C27        33.2610    1.1250   11.4370 C.3       1 11D1007     0.0000 
     28 C28        33.3000   -0.1880   10.6900 C.2       1 11D1007     0.0000 
     29 O29        33.9530   -0.2100    9.5240 O.co2     1 11D1007     0.0000 
     30 O30        32.7490   -1.2040   11.1290 O.co2     1 11D1007     0.0000 
     31 H          29.1241    0.8827    6.5482 H         1 11D1007     0.0000 
     32 H          27.5053    4.5289    5.2903 H         1 11D1007     0.0000 
     33 H          28.1311    2.2458    4.8082 H         1 11D1007     0.0000 
     34 H          30.3201    1.6332   11.0214 H         1 11D1007     0.0000 
     35 H          29.6503    3.9127   11.4907 H         1 11D1007     0.0000 
     36 H          28.6661    5.2556    9.7226 H         1 11D1007     0.0000 
     37 H          29.3355    6.8476    8.8470 H         1 11D1007     0.0000 
     38 H          30.1594    8.4064    7.1171 H         1 11D1007     0.0000 
     39 H          29.0089    7.6596    5.9952 H         1 11D1007     0.0000 
     40 H          31.4559    7.1749    5.5867 H         1 11D1007     0.0000 
     41 H          30.3928    5.7596    5.6693 H         1 11D1007     0.0000 
     42 H          31.3659    4.9864    7.5763 H         1 11D1007     0.0000 
     43 H          31.5780    6.6118    8.2495 H         1 11D1007     0.0000 
     44 H          33.2910    6.7990    6.1936 H         1 11D1007     0.0000 
     45 H          33.3566    5.0437    6.4274 H         1 11D1007     0.0000 
     46 H          33.5342    6.6675    8.9124 H         1 11D1007     0.0000 
     47 H          34.8987    6.8346    7.7943 H         1 11D1007     0.0000 
     48 H          35.6886    4.9506    8.7613 H         1 11D1007     0.0000 
     49 H          34.4562    4.0991    7.8148 H         1 11D1007     0.0000 
     50 H          33.0906    5.1412   10.0437 H         1 11D1007     0.0000 
     51 H          34.6193    4.5233   10.6926 H         1 11D1007     0.0000 
     52 H          33.4933    2.6632    8.7609 H         1 11D1007     0.0000 
     53 H          32.3308    3.0263   10.0480 H         1 11D1007     0.0000 
     54 H          34.6547    2.7637   11.4816 H         1 11D1007     0.0000 
     55 H          34.9336    1.6041   10.1711 H         1 11D1007     0.0000 
     56 H          32.2453    1.5046   11.4612 H         1 11D1007     0.0000 
     57 H          33.6194    0.9825   12.4507 H         1 11D1007     0.0000 
     58 H          29.5650   -1.6398    9.1054 H         1 11D1007     0.0000 
     59 H          29.1894   -0.6791   10.3392 H         1 11D1007     0.0000 
     60 H          28.2727   -0.6866    9.0179 H         1 11D1007     0.0000 
     61 H          32.0443    0.3988    8.3574 H         1 11D1007     0.0000 
     62 H          31.3489   -0.9659    7.8675 H         1 11D1007     0.0000 
     63 H          31.1306    0.3920    7.0341 H         1 11D1007     0.0000 
@<TRIPOS>BOND
     1    2    1 ar   
     2    6    1 ar   
     3   31    1 1    
     4    3    2 ar   
     5    7    2 ar   
     6    4    3 ar   
     7   10    3 ar   
     8    5    4 ar   
     9   14    4 1    
    10    6    5 ar   
    11   32    5 1    
    12   33    6 1    
    13    8    7 ar   
    14   11    7 1    
    15    9    8 ar   
    16   34    8 1    
    17   10    9 ar   
    18   35    9 1    
    19   36   10 1    
    20   12   11 1    
    21   13   11 1    
    22   58   12 1    
    23   59   12 1    
    24   60   12 1    
    25   61   13 1    
    26   62   13 1    
    27   63   13 1    
    28   15   14 2    
    29   16   14 2    
    30   17   14 1    
    31   18   17 1    
    32   37   17 1    
    33   19   18 1    
    34   38   18 1    
    35   39   18 1    
    36   20   19 1    
    37   40   19 1    
    38   41   19 1    
    39   21   20 1    
    40   42   20 1    
    41   43   20 1    
    42   22   21 1    
    43   44   21 1    
    44   45   21 1    
    45   23   22 1    
    46   46   22 1    
    47   47   22 1    
    48   24   23 1    
    49   48   23 1    
    50   49   23 1    
    51   25   24 1    
    52   50   24 1    
    53   51   24 1    
    54   26   25 1    
    55   52   25 1    
    56   53   25 1    
    57   27   26 1    
    58   54   26 1    
    59   55   26 1    
    60   28   27 1    
    61   56   27 1    
    62   57   27 1    
    63   29   28 ar   
    64   30   28 ar   
@<TRIPOS>SUBSTRUCTURE
     1 11D1007     1 GROUP   
@<TRIPOS>SET

