#    Name: 1zuc_T98_2_INTS_M
#    Modification time : Mon Mar 24 17:52:31 2014

@<TRIPOS>MOLECULE
1zuc_T98_2_INTS_M
   74     0     9     0     0
SMALL
NO_CHARGES


@<TRIPOS>ATOM
      1 CA         15.1775   17.6385   22.3350 C.3       3 GLC5        0.0000 
      2 CA         13.9170   16.3870   23.1170 C.3       9 GLL5        0.0000 
      3 CA         16.4380   18.8900   21.5530 C.3       6 GLP5        0.0000 
      4 CA         14.1745   18.1220   24.1045 C.3       3 GLC5        0.0000 
      5 CA         14.4320   19.8570   25.0920 C.3       6 GLP5        0.0000 
      6 CA         13.9745   12.8565   25.3830 C.3       3 GLC5        0.0000 
      7 CA         14.4320   14.8910   25.0270 C.3       9 GLL5        0.0000 
      8 CA         13.5170   10.8220   25.7390 C.3       6 GLP5        0.0000 
      9 CA         14.7040   13.8770   29.5915 C.3       3 GLC5        0.0000 
     10 CA         15.0530   14.9410   27.7950 C.3       9 GLL5        0.0000 
     11 CA         14.3550   12.8130   31.3880 C.3       6 GLP5        0.0000 
     12 CA         17.9585   15.7260   27.5585 C.3       3 GLC5        0.0000 
     13 CA         16.0760   14.8050   26.8570 C.3       9 GLL5        0.0000 
     14 CA         19.8410   16.6470   28.2600 C.3       6 GLP5        0.0000 
     15 CA         17.5425   13.5045   27.6025 C.3       3 GLC5        0.0000 
     16 CA         19.0090   12.2040   28.3480 C.3       6 GLP5        0.0000 
     17 O          18.0045   14.8410   25.3030 O.2       1 ALC1        0.0000 
     18 O          16.8000   14.6390   24.6000 O.2       7 ALL1        0.0000 
     19 O          19.2090   15.0430   26.0060 O.2       4 ALP1        0.0000 
     20 CA         18.4885   14.2340   20.5680 C.3       3 GLC5        0.0000 
     21 CA         17.7710   14.4990   22.1450 C.3       9 GLL5        0.0000 
     22 CA         19.2060   13.9690   18.9910 C.3       6 GLP5        0.0000 
     23 CA         19.5490   13.8960   22.3745 C.3       3 GLC5        0.0000 
     24 CA         21.3270   13.2930   22.6040 C.3       6 GLP5        0.0000 
     25 CA         10.1665   15.8550   26.6780 C.3       3 GLC5        0.0000 
     26 CA         11.2380   14.9770   28.1640 C.3       9 GLL5        0.0000 
     27 CA          9.0950   16.7330   25.1920 C.3       6 GLP5        0.0000 
     28 CA          9.0370   16.7295   29.0850 C.3       3 GLC5        0.0000 
     29 CA         10.5960   15.5690   29.2830 C.3       9 GLL5        0.0000 
     30 CA          7.4780   17.8900   28.8870 C.3       6 GLP5        0.0000 
     31 CA         14.0200   18.2300   28.8110 C.3       3 GLC5        0.0000 
     32 CA         14.0210   16.6250   30.0040 C.3       9 GLL5        0.0000 
     33 CA         14.0190   19.8350   27.6180 C.3       6 GLP5        0.0000 
     34 CA         14.1640   18.3290   31.2015 C.3       3 GLC5        0.0000 
     35 CA         14.3070   20.0330   32.3990 C.3       6 GLP5        0.0000 
     36 CA         15.8250   15.7765   30.9770 C.3       3 GLC5        0.0000 
     37 CA         17.6290   14.9280   31.9500 C.3       6 GLP5        0.0000 
     38 CA         14.1880   14.7190   30.6960 C.3       3 GLC5        0.0000 
     39 CA         12.8515   18.4690   31.8300 C.3       3 GLC5        0.0000 
     40 CA         11.3960   16.9050   31.2610 C.3       9 GLL5        0.0000 
     41 CA          9.3700   17.1690   31.2970 C.3       3 GLC5        0.0000 
     42 CA          7.3440   17.4330   31.3330 C.3       6 GLP5        0.0000 
     43 CA         11.1915   18.4215   30.1470 C.3       3 GLC5        0.0000 
     44 CA         10.9870   19.9380   29.0330 C.3       6 GLP5        0.0000 
     45 N          12.2345   17.4260   33.3775 N.am      2 SEC2        0.0000 
     46 N          11.3320   17.5040   32.2390 N.am      8 SEL2        0.0000 
     47 N          13.1370   17.3480   34.5160 N.am      5 SEP2        0.0000 
     48 CA         13.2890   12.3960   24.3880 C.3       3 GLC5        0.0000 
     49 CA         13.0610   13.9700   23.0370 C.3       9 GLL5        0.0000 
     50 CA         11.6105   12.5420   23.2035 C.3       3 GLC5        0.0000 
     51 CA         10.1600   11.1140   23.3700 C.3       6 GLP5        0.0000 
     52 CA         14.5455   12.3170   22.8135 C.3       3 GLC5        0.0000 
     53 CA         16.0300   10.6640   22.5900 C.3       6 GLP5        0.0000 
     54 CA         12.8880   13.1898   26.7458 C.3       3 GLC5        0.0000 
     55 CA         13.4220   15.0410   26.0090 C.3       9 GLL5        0.0000 
     56 CA         12.2040   11.3460   26.7990 C.3       6 GLP5        0.0000 
     57 CA         15.9491   16.9225   26.5502 C.3       3 GLC5        0.0000 
     58 CA         16.2390   19.0200   26.6900 C.3       6 GLP5        0.0000 
     59 CA         15.9075   14.6028   20.9827 C.3       3 GLC5        0.0000 
     60 CA         16.5790   14.6080   23.2480 C.3       9 GLL5        0.0000 
     61 CA         14.6400   14.6520   19.2690 C.3       6 GLP5        0.0000 
     62 CA         16.8320   12.8477   21.9432 C.3       3 GLC5        0.0000 
     63 CA         16.4890   11.1420   21.1900 C.3       6 GLP5        0.0000 
     64 CA         12.0645   13.2332   27.5150 C.3       3 GLC5        0.0000 
     65 CA         12.6120   15.2640   28.2980 C.3       9 GLL5        0.0000 
     66 CA         11.8065   13.9962   29.9780 C.3       3 GLC5        0.0000 
     67 CA         11.6880   12.8720   31.7250 C.3       6 GLP5        0.0000 
     68 CA          9.2465   14.3535   29.4903 C.3       3 GLC5        0.0000 
     69 CA          7.5760   13.4340   30.2570 C.3       6 GLP5        0.0000 
     70 CA         11.4612   14.6333   31.0940 C.3       3 GLC5        0.0000 
     71 CA         12.4615   15.4241   21.8765 C.3       3 GLC5        0.0000 
     72 CA         14.1570   14.9140   23.5410 C.3       9 GLL5        0.0000 
     73 CA         11.3740   16.0380   20.5700 C.3       6 GLP5        0.0000 
     74 CA         14.0945   14.7311   21.2260 C.3       3 GLC5        0.0000 
@<TRIPOS>BOND
@<TRIPOS>SUBSTRUCTURE
     1 ALC1       17 GROUP        1 X    ALC  0     ROOT ALC X 1
     2 SEC2       45 GROUP        1 X    SEC  0     **** SEC X 2
     3 GLC5        1 GROUP        1 X    GLC  0     **** GLC X 6
     4 ALP1       19 GROUP        1 Y    ALP  0     ROOT ALP Y 8
     5 SEP2       47 GROUP        1 Y    SEP  0     **** SEP Y 9
     6 GLP5        3 GROUP        1 Y    GLP  0     **** GLP Y 13
     7 ALL1       18 GROUP        1 Z    ALL  0     ROOT ALL Z 15
     8 SEL2       46 GROUP        1 Z    SEL  0     **** SEL Z 16
     9 GLL5        2 GROUP        1 Z    GLL  0     **** GLL Z 20
@<TRIPOS>SET

