#    Name: 1zuc_T98_2_ligand
#    Modification time : Mon Mar 24 17:52:31 2014

@<TRIPOS>MOLECULE
1zuc_T98_2_ligand
   36    38     1     0     0
SMALL
NO_CHARGES


@<TRIPOS>ATOM
      1 C1         13.9170   16.3870   23.1170 C.3       1 T98202      0.0000 
      2 C2         14.1570   14.9140   23.5410 C.3       1 T98202      0.0000 
      3 C3         14.4320   14.8910   25.0270 C.ar      1 T98202      0.0000 
      4 C4         13.4220   15.0410   26.0090 C.ar      1 T98202      0.0000 
      5 C5         13.7220   15.0260   27.3760 C.ar      1 T98202      0.0000 
      6 C6         15.0530   14.9410   27.7950 C.ar      1 T98202      0.0000 
      7 C7         16.0760   14.8050   26.8570 C.ar      1 T98202      0.0000 
      8 C8         15.7540   14.7770   25.4950 C.ar      1 T98202      0.0000 
      9 N1         16.8000   14.6390   24.6000 N.am      1 T98202      0.0000 
     10 C9         16.5790   14.6080   23.2480 C.2       1 T98202      0.0000 
     11 S1         17.7710   14.4990   22.1450 S.2       1 T98202      0.0000 
     12 O1         15.3490   14.6660   22.7250 O.3       1 T98202      0.0000 
     13 C10        12.6120   15.2640   28.2980 C.2       1 T98202      0.0000 
     14 C11        11.2380   14.9770   28.1640 C.2       1 T98202      0.0000 
     15 C12        10.5960   15.5690   29.2830 C.2       1 T98202      0.0000 
     16 C13        11.5500   16.1990   30.0470 C.2       1 T98202      0.0000 
     17 N2         12.7780   16.0510   29.4440 N.pl3     1 T98202      0.0000 
     18 C14        14.0210   16.6250   30.0040 C.3       1 T98202      0.0000 
     19 C15        11.3960   16.9050   31.2610 C.1       1 T98202      0.0000 
     20 N3         11.3320   17.5040   32.2390 N.1       1 T98202      0.0000 
     21 C16        13.0610   13.9700   23.0370 C.3       1 T98202      0.0000 
     22 H          12.4431   15.1639   25.7014 H         1 T98202      0.0000 
     23 H          15.2767   14.9790   28.7973 H         1 T98202      0.0000 
     24 H          17.0480   14.7267   27.1574 H         1 T98202      0.0000 
     25 H          17.7715   14.5576   24.9664 H         1 T98202      0.0000 
     26 H          10.8303   14.4983   27.4838 H         1 T98202      0.0000 
     27 H           9.6653   15.5233   29.4522 H         1 T98202      0.0000 
     28 H          14.7111   16.9632   23.3102 H         1 T98202      0.0000 
     29 H          13.7290   16.4657   22.1380 H         1 T98202      0.0000 
     30 H          13.1385   16.7899   23.5983 H         1 T98202      0.0000 
     31 H          14.6835   15.9149   30.2424 H         1 T98202      0.0000 
     32 H          14.4708   17.2399   29.3563 H         1 T98202      0.0000 
     33 H          13.8449   17.1526   30.8351 H         1 T98202      0.0000 
     34 H          12.9993   13.9719   22.0389 H         1 T98202      0.0000 
     35 H          13.2265   13.0249   23.3187 H         1 T98202      0.0000 
     36 H          12.1600   14.2266   23.3868 H         1 T98202      0.0000 
@<TRIPOS>BOND
     1    2    1 1    
     2   28    1 1    
     3   29    1 1    
     4   30    1 1    
     5    3    2 1    
     6   12    2 1    
     7   21    2 1    
     8    4    3 ar   
     9    8    3 ar   
    10    5    4 ar   
    11   22    4 1    
    12    6    5 ar   
    13   13    5 1    
    14    7    6 ar   
    15   23    6 1    
    16    8    7 ar   
    17   24    7 1    
    18    9    8 1    
    19   10    9 am   
    20   25    9 1    
    21   11   10 2    
    22   12   10 1    
    23   14   13 2    
    24   17   13 1    
    25   15   14 1    
    26   26   14 1    
    27   16   15 2    
    28   27   15 1    
    29   17   16 1    
    30   19   16 1    
    31   18   17 1    
    32   31   18 1    
    33   32   18 1    
    34   33   18 1    
    35   20   19 3    
    36   34   21 1    
    37   35   21 1    
    38   36   21 1    
@<TRIPOS>SUBSTRUCTURE
     1 T98202      1 GROUP   
@<TRIPOS>SET

