#    Name: 3cj3_SX4_1_INTS_M
#    Modification time : Mon Mar 24 21:41:03 2014

@<TRIPOS>MOLECULE
3cj3_SX4_1_INTS_M
   55     0     6     0     0
SMALL
NO_CHARGES


@<TRIPOS>ATOM
      1 CA         10.5005   38.1495   77.7085 C.3       2 GLC5        0.0000 
      2 CA          9.9040   36.2100   78.0570 C.3       6 GLL5        0.0000 
      3 CA         11.0970   40.0890   77.3600 C.3       4 GLP5        0.0000 
      4 CA         11.5915   34.9565   76.8290 C.3       2 GLC5        0.0000 
      5 CA         10.4430   33.4700   77.8850 C.3       6 GLL5        0.0000 
      6 CA         12.7400   36.4430   75.7730 C.3       4 GLP5        0.0000 
      7 CA          9.4680   30.3325   72.9230 C.3       2 GLC5        0.0000 
      8 CA          9.3650   31.6530   74.3830 C.3       6 GLL5        0.0000 
      9 CA          9.5710   29.0120   71.4630 C.3       4 GLP5        0.0000 
     10 CA          7.2295   30.8835   73.4570 C.3       2 GLC5        0.0000 
     11 CA          7.9330   31.8920   74.8490 C.3       6 GLL5        0.0000 
     12 CA          6.5260   29.8750   72.0650 C.3       4 GLP5        0.0000 
     13 N           4.5590   33.5310   73.4475 N.am      1 SEC2        0.0000 
     14 N           5.7170   33.6240   74.4050 N.am      5 SEL2        0.0000 
     15 N           3.4010   33.4380   72.4900 N.am      3 SEP2        0.0000 
     16 CA          9.7360   36.4655   74.4615 C.3       2 GLC5        0.0000 
     17 CA          7.5850   36.4380   74.7160 C.3       6 GLL5        0.0000 
     18 CA         11.8870   36.4930   74.2070 C.3       4 GLP5        0.0000 
     19 CA          8.2450   40.6070   72.8300 C.3       2 GLC5        0.0000 
     20 CA          8.7110   39.0790   74.2100 C.3       6 GLL5        0.0000 
     21 CA          7.7790   42.1350   71.4500 C.3       4 GLP5        0.0000 
     22 CA         10.4595   38.6535   73.9900 C.3       2 GLC5        0.0000 
     23 CA         12.2080   38.2280   73.7700 C.3       4 GLP5        0.0000 
     24 CA          7.1585   38.1700   73.1225 C.3       2 GLC5        0.0000 
     25 CA          5.6060   37.2610   72.0350 C.3       4 GLP5        0.0000 
     26 CA          9.7140   40.1950   75.4860 C.3       2 GLC5        0.0000 
     27 CA         10.7170   41.3110   76.7620 C.3       4 GLP5        0.0000 
     28 CA          4.7605   37.6750   75.6080 C.3       2 GLC5        0.0000 
     29 CA          6.8070   38.2200   76.1650 C.3       6 GLL5        0.0000 
     30 CA          2.7140   37.1300   75.0510 C.3       4 GLP5        0.0000 
     31 CA          4.1880   37.3110   76.7000 C.3       2 GLC5        0.0000 
     32 CA          5.9860   37.3090   76.8440 C.3       6 GLL5        0.0000 
     33 CA          2.3900   37.3130   76.5560 C.3       4 GLP5        0.0000 
     34 CA         11.5612   35.9637   76.9737 C.3       2 GLC5        0.0000 
     35 CA         11.5823   35.9537   79.7823 C.3       2 GLC5        0.0000 
     36 CA         10.8610   34.7590   78.2920 C.3       6 GLL5        0.0000 
     37 CA         12.7820   36.4230   81.3900 C.3       4 GLP5        0.0000 
     38 CA         12.6322   35.3807   77.4022 C.3       2 GLC5        0.0000 
     39 CA         12.1120   34.8730   78.9200 C.3       6 GLL5        0.0000 
     40 CA         12.6532   35.3708   80.2108 C.3       2 GLC5        0.0000 
     41 CA         14.6265   33.0985   78.7795 C.3       2 GLC5        0.0000 
     42 CA         12.9370   33.7640   79.1430 C.3       6 GLL5        0.0000 
     43 CA         16.5190   33.0650   78.6240 C.3       4 GLP5        0.0000 
     44 CA         10.7677   34.8955   74.7495 C.3       2 GLC5        0.0000 
     45 CA         10.1430   32.8830   74.8740 C.3       6 GLL5        0.0000 
     46 CA         11.3035   32.3545   73.6232 C.3       2 GLC5        0.0000 
     47 CA         12.8530   32.4410   72.6180 C.3       4 GLP5        0.0000 
     48 CA          4.5337   36.4305   75.4917 C.3       2 GLC5        0.0000 
     49 CA          6.7580   35.5130   75.3920 C.3       6 GLL5        0.0000 
     50 CA          8.4164   35.9401   73.6010 C.3       2 GLC5        0.0000 
     51 CA          9.4410   34.9970   72.1240 C.3       4 GLP5        0.0000 
     52 CA          7.6647   39.8352   76.4718 C.3       2 GLC5        0.0000 
     53 CA          7.6120   37.7910   75.1020 C.3       6 GLL5        0.0000 
     54 CA          8.1200   41.6650   77.3100 C.3       4 GLP5        0.0000 
     55 CA          9.2949   33.7661   73.5390 C.3       2 GLC5        0.0000 
@<TRIPOS>BOND
@<TRIPOS>SUBSTRUCTURE
     1 SEC2       13 GROUP        1 X    SEC  0     ROOT SEC X 2
     2 GLC5        1 GROUP        1 X    GLC  0     **** GLC X 6
     3 SEP2       15 GROUP        1 Y    SEP  0     ROOT SEP Y 9
     4 GLP5        3 GROUP        1 Y    GLP  0     **** GLP Y 13
     5 SEL2       14 GROUP        1 Z    SEL  0     ROOT SEL Z 16
     6 GLL5        2 GROUP        1 Z    GLL  0     **** GLL Z 20
@<TRIPOS>SET

