#    Name: 3cj3_SX4_1_ligand
#    Modification time : Mon Mar 24 21:41:03 2014

@<TRIPOS>MOLECULE
3cj3_SX4_1_ligand
   41    43     1     0     0
SMALL
NO_CHARGES


@<TRIPOS>ATOM
      1 CL1         9.9040   36.2100   78.0570 Cl        1 SX4572      0.0000 
      2 C18        10.8610   34.7590   78.2920 C.ar      1 SX4572      0.0000 
      3 C17        12.1120   34.8730   78.9200 C.ar      1 SX4572      0.0000 
      4 C16        12.9370   33.7640   79.1430 C.ar      1 SX4572      0.0000 
      5 C15        12.5310   32.5000   78.7270 C.ar      1 SX4572      0.0000 
      6 C14        11.2880   32.3570   78.1030 C.ar      1 SX4572      0.0000 
      7 C13        10.4430   33.4700   77.8850 C.ar      1 SX4572      0.0000 
      8 C12         9.1180   33.3040   77.1990 C.3       1 SX4572      0.0000 
      9 C11         9.1540   33.7130   75.7100 C.3       1 SX4572      0.0000 
     10 C10        10.1430   32.8830   74.8740 C.3       1 SX4572      0.0000 
     11 C9          9.3650   31.6530   74.3830 C.3       1 SX4572      0.0000 
     12 C8          7.9330   31.8920   74.8490 C.3       1 SX4572      0.0000 
     13 N2          7.8890   33.3220   75.1040 N.am      1 SX4572      0.0000 
     14 C7          6.7430   34.0900   74.9350 C.2       1 SX4572      0.0000 
     15 O1          5.7170   33.6240   74.4050 O.2       1 SX4572      0.0000 
     16 C6          6.7580   35.5130   75.3920 C.ar      1 SX4572      0.0000 
     17 C1          5.9490   35.9490   76.4730 C.ar      1 SX4572      0.0000 
     18 N1          5.0840   35.1030   77.1770 N.pl3     1 SX4572      0.0000 
     19 C5          7.5850   36.4380   74.7160 C.ar      1 SX4572      0.0000 
     20 C4          7.6120   37.7910   75.1020 C.ar      1 SX4572      0.0000 
     21 BR1         8.7110   39.0790   74.2100 Br        1 SX4572      0.0000 
     22 C3          6.8070   38.2200   76.1650 C.ar      1 SX4572      0.0000 
     23 C2          5.9860   37.3090   76.8440 C.ar      1 SX4572      0.0000 
     24 H          12.4342   35.8119   79.2286 H         1 SX4572      0.0000 
     25 H          13.8409   33.8876   79.6138 H         1 SX4572      0.0000 
     26 H          13.1296   31.6868   78.8738 H         1 SX4572      0.0000 
     27 H          10.9745   31.4237   77.7928 H         1 SX4572      0.0000 
     28 H           8.3555   33.9137   77.7043 H         1 SX4572      0.0000 
     29 H           8.7936   32.2554   77.2594 H         1 SX4572      0.0000 
     30 H           9.3381   34.7215   75.5862 H         1 SX4572      0.0000 
     31 H          10.9566   32.5698   75.4908 H         1 SX4572      0.0000 
     32 H          10.4716   33.4574   74.0358 H         1 SX4572      0.0000 
     33 H           9.7556   30.7786   74.8441 H         1 SX4572      0.0000 
     34 H           9.3991   31.6119   73.3214 H         1 SX4572      0.0000 
     35 H           7.7630   31.3265   75.7402 H         1 SX4572      0.0000 
     36 H           7.2647   31.6102   74.0636 H         1 SX4572      0.0000 
     37 H           4.5644   35.5246   77.9202 H         1 SX4572      0.0000 
     38 H           5.0598   34.1496   76.8764 H         1 SX4572      0.0000 
     39 H           8.1705   36.1177   73.9365 H         1 SX4572      0.0000 
     40 H           6.8180   39.2071   76.4488 H         1 SX4572      0.0000 
     41 H           5.3997   37.6342   77.6260 H         1 SX4572      0.0000 
@<TRIPOS>BOND
     1    2    1 1    
     2    3    2 ar   
     3    7    2 ar   
     4    4    3 ar   
     5   24    3 1    
     6    5    4 ar   
     7   25    4 1    
     8    6    5 ar   
     9   26    5 1    
    10    7    6 ar   
    11   27    6 1    
    12    8    7 1    
    13    9    8 1    
    14   28    8 1    
    15   29    8 1    
    16   10    9 1    
    17   13    9 1    
    18   30    9 1    
    19   11   10 1    
    20   31   10 1    
    21   32   10 1    
    22   12   11 1    
    23   33   11 1    
    24   34   11 1    
    25   13   12 1    
    26   35   12 1    
    27   36   12 1    
    28   14   13 am   
    29   15   14 2    
    30   16   14 1    
    31   17   16 ar   
    32   19   16 ar   
    33   18   17 1    
    34   23   17 ar   
    35   37   18 1    
    36   38   18 1    
    37   20   19 ar   
    38   39   19 1    
    39   21   20 1    
    40   22   20 ar   
    41   23   22 ar   
    42   40   22 1    
    43   41   23 1    
@<TRIPOS>SUBSTRUCTURE
     1 SX4572      1 GROUP   
@<TRIPOS>SET

