#    Name: 3n8n_N88_5_INTS_M
#    Modification time : Tue Mar 25 01:03:04 2014

@<TRIPOS>MOLECULE
3n8n_N88_5_INTS_M
   42     0     9     0     0
SMALL
NO_CHARGES


@<TRIPOS>ATOM
      1 N          21.9170   58.1145   47.8635 N.am      2 SEC2        0.0000 
      2 N          20.2540   57.8270   47.4050 N.am      8 SEL2        0.0000 
      3 N          23.5800   58.4020   48.3220 N.am      5 SEP2        0.0000 
      4 N          20.1825   58.5975   48.7670 N.am      2 SEC2        0.0000 
      5 N          20.1110   59.3680   50.1290 N.am      5 SEP2        0.0000 
      6 CA         19.7695   54.6755   49.6430 C.3       3 GLC5        0.0000 
      7 CA         19.1400   54.3390   47.5790 C.3       9 GLL5        0.0000 
      8 CA         20.3990   55.0120   51.7070 C.3       6 GLP5        0.0000 
      9 CA         18.0730   53.9515   49.2005 C.3       3 GLC5        0.0000 
     10 CA         17.0060   53.5640   50.8220 C.3       6 GLP5        0.0000 
     11 N          17.8400   58.1150   48.6935 N.am      2 SEC2        0.0000 
     12 N          18.4190   56.8360   48.0890 N.am      8 SEL2        0.0000 
     13 N          17.2610   59.3940   49.2980 N.am      5 SEP2        0.0000 
     14 N          17.1045   56.8940   48.2000 N.am      2 SEC2        0.0000 
     15 N          15.7900   56.9520   48.3110 N.am      5 SEP2        0.0000 
     16 CA         19.2370   50.9985   47.3590 C.3       3 GLC5        0.0000 
     17 CA         19.2630   53.0760   46.7290 C.3       9 GLL5        0.0000 
     18 CA         19.2110   48.9210   47.9890 C.3       6 GLP5        0.0000 
     19 N          18.5375   51.0655   47.9420 N.am      2 SEC2        0.0000 
     20 N          18.2490   52.1440   47.1180 N.am      8 SEL2        0.0000 
     21 N          18.8260   49.9870   48.7660 N.am      5 SEP2        0.0000 
     22 N          17.4875   51.6270   45.8920 N.am      2 SEC2        0.0000 
     23 N          16.7260   51.1100   44.6660 N.am      5 SEP2        0.0000 
     24 O          19.0020   51.7565   43.3805 O.2       1 ALC1        0.0000 
     25 O          19.6700   52.2680   44.4510 O.2       7 ALL1        0.0000 
     26 O          18.3340   51.2450   42.3100 O.2       4 ALP1        0.0000 
     27 CA         19.1420   54.2555   40.4225 C.3       3 GLC5        0.0000 
     28 CA         19.7710   56.3800   40.7920 C.3       9 GLL5        0.0000 
     29 CA         18.5130   52.1310   40.0530 C.3       6 GLP5        0.0000 
     30 CA         22.5050   58.5450   43.3045 C.3       3 GLC5        0.0000 
     31 CA         21.2040   58.0310   41.9650 C.3       9 GLL5        0.0000 
     32 CA         23.8060   59.0590   44.6440 C.3       6 GLP5        0.0000 
     33 N          21.2135   54.8555   49.2830 N.am      2 SEC2        0.0000 
     34 N          21.3410   55.2500   47.9210 N.am      8 SEL2        0.0000 
     35 N          21.0860   54.4610   50.6450 N.am      5 SEP2        0.0000 
     36 CA         21.3230   53.0795   45.9135 C.3       3 GLC5        0.0000 
     37 CA         23.4450   52.9380   45.8520 C.3       6 GLP5        0.0000 
     38 CA         21.7646   53.9813   45.7366 C.3       3 GLC5        0.0000 
     39 CA         19.8710   54.6170   44.7950 C.3       9 GLL5        0.0000 
     40 CA         21.7816   56.1830   40.6458 C.3       3 GLC5        0.0000 
     41 CA         20.0980   56.9980   42.1440 C.3       9 GLL5        0.0000 
     42 CA         22.9940   55.0060   39.5750 C.3       6 GLP5        0.0000 
@<TRIPOS>BOND
@<TRIPOS>SUBSTRUCTURE
     1 ALC1       24 GROUP        1 X    ALC  0     ROOT ALC X 1
     2 SEC2        1 GROUP        1 X    SEC  0     **** SEC X 2
     3 GLC5        6 GROUP        1 X    GLC  0     **** GLC X 6
     4 ALP1       26 GROUP        1 Y    ALP  0     ROOT ALP Y 8
     5 SEP2        3 GROUP        1 Y    SEP  0     **** SEP Y 9
     6 GLP5        8 GROUP        1 Y    GLP  0     **** GLP Y 13
     7 ALL1       25 GROUP        1 Z    ALL  0     ROOT ALL Z 15
     8 SEL2        2 GROUP        1 Z    SEL  0     **** SEL Z 16
     9 GLL5        7 GROUP        1 Z    GLL  0     **** GLL Z 20
@<TRIPOS>SET

