#    Name: 3n8n_N88_5_ligand
#    Modification time : Tue Mar 25 01:03:04 2014

@<TRIPOS>MOLECULE
3n8n_N88_5_ligand
   37    37     1     0     0
SMALL
NO_CHARGES


@<TRIPOS>ATOM
      1 C          19.5640   56.7940   47.5830 C.2       1 N88147      0.0000 
      2 C1         20.1280   55.4440   47.1890 C.3       1 N88147      0.0000 
      3 O1         20.2540   57.8270   47.4050 O.co2     1 N88147      0.0000 
      4 C2         19.1400   54.3390   47.5790 C.3       1 N88147      0.0000 
      5 O2         18.4190   56.8360   48.0890 O.co2     1 N88147      0.0000 
      6 C3         19.2630   53.0760   46.7290 C.3       1 N88147      0.0000 
      7 O3         18.2490   52.1440   47.1180 O.3       1 N88147      0.0000 
      8 C4         19.1390   53.3660   45.2210 C.3       1 N88147      0.0000 
      9 O4         19.6700   52.2680   44.4510 O.3       1 N88147      0.0000 
     10 C5         19.8710   54.6170   44.7950 C.2       1 N88147      0.0000 
     11 C6         20.4670   55.4200   45.7060 C.2       1 N88147      0.0000 
     12 C13        19.9270   54.9080   43.4780 C.2       1 N88147      0.0000 
     13 N14        20.5880   55.9990   43.0760 N.am      1 N88147      0.0000 
     14 C15        20.0980   56.9980   42.1440 C.3       1 N88147      0.0000 
     15 C16        19.7710   56.3800   40.7920 C.3       1 N88147      0.0000 
     16 C17        21.2040   58.0310   41.9650 C.3       1 N88147      0.0000 
     17 C18        18.8390   57.6500   42.7030 C.3       1 N88147      0.0000 
     18 O19        19.3830   54.1670   42.6560 O.2       1 N88147      0.0000 
     19 O30        21.3410   55.2500   47.9210 O.3       1 N88147      0.0000 
     20 H          18.1153   54.7319   47.4921 H         1 N88147      0.0000 
     21 H          19.2993   54.0771   48.6364 H         1 N88147      0.0000 
     22 H          20.2500   52.6494   46.9019 H         1 N88147      0.0000 
     23 H          18.0825   53.4957   44.9893 H         1 N88147      0.0000 
     24 H          21.2226   56.0962   45.4380 H         1 N88147      0.0000 
     25 H          21.5721   56.1926   43.4510 H         1 N88147      0.0000 
     26 H          20.5722   55.9486   40.3773 H         1 N88147      0.0000 
     27 H          19.0647   55.6761   40.8665 H         1 N88147      0.0000 
     28 H          19.4368   57.0630   40.1425 H         1 N88147      0.0000 
     29 H          22.0403   57.6205   41.6017 H         1 N88147      0.0000 
     30 H          20.9351   58.7572   41.3323 H         1 N88147      0.0000 
     31 H          21.4452   58.4706   42.8302 H         1 N88147      0.0000 
     32 H          19.0119   58.1014   43.5784 H         1 N88147      0.0000 
     33 H          18.4733   58.3438   42.0826 H         1 N88147      0.0000 
     34 H          18.1114   56.9814   42.8566 H         1 N88147      0.0000 
     35 H          17.8952   52.4937   47.9855 H         1 N88147      0.0000 
     36 H          19.2885   52.3865   43.5343 H         1 N88147      0.0000 
     37 H          21.9254   56.0190   47.6617 H         1 N88147      0.0000 
@<TRIPOS>BOND
     1    2    1 1    
     2    3    1 ar   
     3    5    1 ar   
     4    4    2 1    
     5   11    2 1    
     6   19    2 1    
     7    6    4 1    
     8   20    4 1    
     9   21    4 1    
    10    7    6 1    
    11    8    6 1    
    12   22    6 1    
    13   35    7 1    
    14    9    8 1    
    15   10    8 1    
    16   23    8 1    
    17   36    9 1    
    18   11   10 2    
    19   12   10 1    
    20   24   11 1    
    21   13   12 am   
    22   18   12 2    
    23   14   13 1    
    24   25   13 1    
    25   15   14 1    
    26   16   14 1    
    27   17   14 1    
    28   26   15 1    
    29   27   15 1    
    30   28   15 1    
    31   29   16 1    
    32   30   16 1    
    33   31   16 1    
    34   32   17 1    
    35   33   17 1    
    36   34   17 1    
    37   37   19 1    
@<TRIPOS>SUBSTRUCTURE
     1 N88147      1 GROUP   
@<TRIPOS>SET

