#    Name: 1iah_ADP_1_INTS_M
#    Modification time : Tue Mar 25 06:52:00 2014

@<TRIPOS>MOLECULE
1iah_ADP_1_INTS_M
   55     0    12     0     0
SMALL
NO_CHARGES


@<TRIPOS>ATOM
      1 N          33.7750   84.8090   90.6975 N.am      2 SEC2        0.0000 
      2 N          34.6950   85.2610   89.7720 N.am     10 SEL2        0.0000 
      3 N          32.8550   84.3570   91.6230 N.am      6 SEP2        0.0000 
      4 N          32.1765   83.4505   88.8705 N.am      2 SEC2        0.0000 
      5 N          33.5790   83.5130   88.1710 N.am     10 SEL2        0.0000 
      6 N          30.7740   83.3880   89.5700 N.am      6 SEP2        0.0000 
      7 NZ         38.5815   84.0660   85.8470 N.4       3 LYC4        0.0000 
      8 NZ         37.5220   83.9840   86.7820 N.4      11 LYL4        0.0000 
      9 NZ         39.6410   84.1480   84.9120 N.4       7 LYP4        0.0000 
     10 N          38.5815   84.0660   85.8470 N.am      2 SEC2        0.0000 
     11 N          37.5220   83.9840   86.7820 N.am     10 SEL2        0.0000 
     12 N          39.6410   84.1480   84.9120 N.am      6 SEP2        0.0000 
     13 CA         37.5635   81.6095   91.7425 C.3       4 GLC5        0.0000 
     14 CA         38.5310   82.8900   90.3660 C.3      12 GLL5        0.0000 
     15 CA         36.5960   80.3290   93.1190 C.3       8 GLP5        0.0000 
     16 CA         36.7805   83.3040   91.4305 C.3       4 GLC5        0.0000 
     17 CA         35.0300   83.7180   92.4950 C.3       8 GLP5        0.0000 
     18 CA         40.8380   86.7410   90.7760 C.3       4 GLC5        0.0000 
     19 CA         40.1390   84.7160   91.2710 C.3      12 GLL5        0.0000 
     20 CA         41.5370   88.7660   90.2810 C.3       8 GLP5        0.0000 
     21 CA         42.1200   86.7590   91.1795 C.3       4 GLC5        0.0000 
     22 CA         41.6600   84.8260   91.1440 C.3      12 GLL5        0.0000 
     23 CA         42.5800   88.6920   91.2150 C.3       8 GLP5        0.0000 
     24 CA         42.7475   81.9290   90.5280 C.3       4 GLC5        0.0000 
     25 CA         42.0230   83.6220   90.2850 C.3      12 GLL5        0.0000 
     26 CA         43.4720   80.2360   90.7710 C.3       8 GLP5        0.0000 
     27 N          40.7810   84.2940   85.7940 N.am      2 SEC2        0.0000 
     28 N          41.9210   84.4400   86.6760 N.am     10 SEL2        0.0000 
     29 CA         41.4720   83.5430   85.7735 C.3       4 GLC5        0.0000 
     30 CA         43.2230   84.4070   86.8510 C.3      12 GLL5        0.0000 
     31 CA         39.7210   82.6790   84.6960 C.3       8 GLP5        0.0000 
     32 CA         42.3955   86.2215   85.9200 C.3       4 GLC5        0.0000 
     33 CA         41.5680   88.0360   84.9890 C.3       8 GLP5        0.0000 
     34 CA         44.9425   86.4455   85.9075 C.3       4 GLC5        0.0000 
     35 CA         44.3480   84.5970   86.0320 C.3      12 GLL5        0.0000 
     36 CA         45.5370   88.2940   85.7830 C.3       8 GLP5        0.0000 
     37 O          43.2165   85.0020   83.8095 O.2       1 ALC1        0.0000 
     38 O          44.1880   84.8710   84.7220 O.2       9 ALL1        0.0000 
     39 O          42.2450   85.1330   82.8970 O.2       5 ALP1        0.0000 
     40 O          45.3330   84.3325   83.6765 O.2       1 ALC1        0.0000 
     41 O          46.4780   83.7940   82.6310 O.2       5 ALP1        0.0000 
     42 N          47.0590   84.5140   86.0690 N.am      2 SEC2        0.0000 
     43 N          45.6260   84.4940   86.5600 N.am     10 SEL2        0.0000 
     44 N          48.4920   84.5340   85.5780 N.am      6 SEP2        0.0000 
     45 CA         45.3340   82.4965   86.7535 C.3       4 GLC5        0.0000 
     46 CA         45.8340   84.2120   87.8720 C.3      12 GLL5        0.0000 
     47 CA         44.8340   80.7810   85.6350 C.3       8 GLP5        0.0000 
     48 CA         47.1160   82.7425   87.4435 C.3       4 GLC5        0.0000 
     49 CA         48.3980   81.2730   87.0150 C.3       8 GLP5        0.0000 
     50 CA         47.1885   85.5775   86.9770 C.3       4 GLC5        0.0000 
     51 CA         48.5430   86.9430   86.0820 C.3       8 GLP5        0.0000 
     52 CA         40.0475   81.2875   91.2408 C.3       4 GLC5        0.0000 
     53 CA         39.8310   83.2200   91.1370 C.3      12 GLL5        0.0000 
     54 CA         40.9140   79.5200   91.7300 C.3       8 GLP5        0.0000 
     55 CA         44.2284   82.5445   86.4816 C.3       4 GLC5        0.0000 
@<TRIPOS>BOND
@<TRIPOS>SUBSTRUCTURE
     1 ALC1       37 GROUP        1 X    ALC  0     ROOT ALC X 1
     2 SEC2        1 GROUP        1 X    SEC  0     **** SEC X 2
     3 LYC4        7 GROUP        1 X    LYC  0     **** LYC X 4
     4 GLC5       13 GROUP        1 X    GLC  0     **** GLC X 6
     5 ALP1       39 GROUP        1 Y    ALP  0     ROOT ALP Y 8
     6 SEP2        3 GROUP        1 Y    SEP  0     **** SEP Y 9
     7 LYP4        9 GROUP        1 Y    LYP  0     **** LYP Y 11
     8 GLP5       15 GROUP        1 Y    GLP  0     **** GLP Y 13
     9 ALL1       38 GROUP        1 Z    ALL  0     ROOT ALL Z 15
    10 SEL2        2 GROUP        1 Z    SEL  0     **** SEL Z 16
    11 LYL4        8 GROUP        1 Z    LYL  0     **** LYL Z 18
    12 GLL5       14 GROUP        1 Z    GLL  0     **** GLL Z 20
@<TRIPOS>SET

