#    Name: 1iah_ADP_1_ligand
#    Modification time : Tue Mar 25 06:52:00 2014

@<TRIPOS>MOLECULE
1iah_ADP_1_ligand
   39    41     1     0     0
SMALL
NO_CHARGES


@<TRIPOS>ATOM
      1 PB         34.8360   84.4600   88.5020 P.3       1 ADP2002     0.0000 
      2 O1B        34.6950   85.2610   89.7720 O.co2     1 ADP2002     0.0000 
      3 O2B        33.5790   83.5130   88.1710 O.co2     1 ADP2002     0.0000 
      4 O3B        35.0960   85.3860   87.3480 O.co2     1 ADP2002     0.0000 
      5 PA         37.3960   83.1690   87.9940 P.3       1 ADP2002     0.0000 
      6 O1A        37.4500   81.7260   87.6840 O.co2     1 ADP2002     0.0000 
      7 O2A        37.5220   83.9840   86.7820 O.co2     1 ADP2002     0.0000 
      8 O3A        36.0290   83.4680   88.7270 O.3       1 ADP2002     0.0000 
      9 O5'        38.4870   83.5750   89.1040 O.3       1 ADP2002     0.0000 
     10 C5'        38.5310   82.8900   90.3660 C.3       1 ADP2002     0.0000 
     11 C4'        39.8310   83.2200   91.1370 C.3       1 ADP2002     0.0000 
     12 O4'        40.9820   82.6260   90.4880 O.3       1 ADP2002     0.0000 
     13 C3'        40.1390   84.7160   91.2710 C.3       1 ADP2002     0.0000 
     14 O3'        39.7150   85.2560   92.5290 O.3       1 ADP2002     0.0000 
     15 C2'        41.6600   84.8260   91.1440 C.3       1 ADP2002     0.0000 
     16 O2'        42.3430   84.8610   92.4120 O.3       1 ADP2002     0.0000 
     17 C1'        42.0230   83.6220   90.2850 C.3       1 ADP2002     0.0000 
     18 N9         42.2690   83.9650   88.8000 N.pl3     1 ADP2002     0.0000 
     19 C8         41.3320   84.1710   87.8460 C.2       1 ADP2002     0.0000 
     20 N7         41.9210   84.4400   86.6760 N.2       1 ADP2002     0.0000 
     21 C5         43.2230   84.4070   86.8510 C.ar      1 ADP2002     0.0000 
     22 C6         44.3480   84.5970   86.0320 C.ar      1 ADP2002     0.0000 
     23 N6         44.1880   84.8710   84.7220 N.pl3     1 ADP2002     0.0000 
     24 N1         45.6260   84.4940   86.5600 N.ar      1 ADP2002     0.0000 
     25 C2         45.8340   84.2120   87.8720 C.ar      1 ADP2002     0.0000 
     26 N3         44.7540   84.0250   88.6610 N.ar      1 ADP2002     0.0000 
     27 C4         43.4600   84.1140   88.2150 C.ar      1 ADP2002     0.0000 
     28 H          38.4954   81.7988   90.2377 H         1 ADP2002     0.0000 
     29 H          37.6875   83.1729   91.0118 H         1 ADP2002     0.0000 
     30 H          39.7435   82.8117   92.1466 H         1 ADP2002     0.0000 
     31 H          39.7074   85.2223   90.4334 H         1 ADP2002     0.0000 
     32 H          41.8567   85.7112   90.5427 H         1 ADP2002     0.0000 
     33 H          42.9725   83.2205   90.6952 H         1 ADP2002     0.0000 
     34 H          40.3673   84.1275   87.9987 H         1 ADP2002     0.0000 
     35 H          43.2448   84.9717   84.4055 H         1 ADP2002     0.0000 
     36 H          45.0268   84.9492   84.1832 H         1 ADP2002     0.0000 
     37 H          46.7868   84.1436   88.2501 H         1 ADP2002     0.0000 
     38 H          40.5229   85.2087   93.1163 H         1 ADP2002     0.0000 
     39 H          43.0725   85.5349   92.2944 H         1 ADP2002     0.0000 
@<TRIPOS>BOND
     1    2    1 ar   
     2    3    1 ar   
     3    4    1 ar   
     4    8    1 1    
     5    6    5 ar   
     6    7    5 ar   
     7    8    5 1    
     8    9    5 1    
     9   10    9 1    
    10   11   10 1    
    11   28   10 1    
    12   29   10 1    
    13   12   11 1    
    14   13   11 1    
    15   30   11 1    
    16   17   12 1    
    17   14   13 1    
    18   15   13 1    
    19   31   13 1    
    20   38   14 1    
    21   16   15 1    
    22   17   15 1    
    23   32   15 1    
    24   39   16 1    
    25   18   17 1    
    26   33   17 1    
    27   19   18 1    
    28   27   18 1    
    29   20   19 2    
    30   34   19 1    
    31   21   20 1    
    32   22   21 ar   
    33   27   21 ar   
    34   23   22 1    
    35   24   22 ar   
    36   35   23 1    
    37   36   23 1    
    38   25   24 ar   
    39   26   25 ar   
    40   37   25 1    
    41   27   26 ar   
@<TRIPOS>SUBSTRUCTURE
     1 ADP2002     1 GROUP   
@<TRIPOS>SET

