#    Name: 3aeb_F7A_1_INTS_M
#    Modification time : Mon Apr  7 19:02:02 2014

@<TRIPOS>MOLECULE
3aeb_F7A_1_INTS_M
   58     0     6     0     0
SMALL
NO_CHARGES


@<TRIPOS>ATOM
      1 CA        -21.2915  -25.5085   58.1075 C.3       2 GLC5        0.0000 
      2 CA        -22.1320  -26.8590   59.0390 C.3       6 GLL5        0.0000 
      3 CA        -20.4510  -24.1580   57.1760 C.3       4 GLP5        0.0000 
      4 CA        -22.2500  -27.1295   56.8110 C.3       2 GLC5        0.0000 
      5 CA        -22.3680  -27.4000   54.5830 C.3       4 GLP5        0.0000 
      6 N         -21.8860  -27.7170   62.4250 N.am      1 SEC2        0.0000 
      7 N         -21.6100  -26.5500   62.1230 N.am      5 SEL2        0.0000 
      8 N         -22.1620  -28.8840   62.7270 N.am      3 SEP2        0.0000 
      9 CA        -23.7460  -30.4545   59.6020 C.3       2 GLC5        0.0000 
     10 CA        -23.1030  -28.5850   59.8850 C.3       6 GLL5        0.0000 
     11 CA        -24.3890  -32.3240   59.3190 C.3       4 GLP5        0.0000 
     12 CA        -22.4680  -29.3950   61.2190 C.3       2 GLC5        0.0000 
     13 CA        -21.8330  -30.2050   62.5530 C.3       4 GLP5        0.0000 
     14 CA        -23.1560  -27.5010   56.3740 C.3       2 GLC5        0.0000 
     15 CA        -23.9440  -27.6020   58.1650 C.3       6 GLL5        0.0000 
     16 CA        -25.6995  -27.8215   57.8630 C.3       2 GLC5        0.0000 
     17 CA        -27.4550  -28.0410   57.5610 C.3       4 GLP5        0.0000 
     18 CA        -24.0915  -23.6105   63.7155 C.3       2 GLC5        0.0000 
     19 CA        -24.4250  -24.9780   62.0080 C.3       6 GLL5        0.0000 
     20 CA        -23.7580  -22.2430   65.4230 C.3       4 GLP5        0.0000 
     21 CA        -27.5100  -25.7940   59.3820 C.3       2 GLC5        0.0000 
     22 CA        -26.3490  -25.8130   60.8370 C.3       6 GLL5        0.0000 
     23 CA        -28.6710  -25.7750   57.9270 C.3       4 GLP5        0.0000 
     24 CA        -20.8060  -23.1345   62.7815 C.3       2 GLC5        0.0000 
     25 CA        -20.0980  -24.3730   61.2630 C.3       6 GLL5        0.0000 
     26 CA        -21.5140  -21.8960   64.3000 C.3       4 GLP5        0.0000 
     27 CA        -15.4395  -22.4600   60.6340 C.3       2 GLC5        0.0000 
     28 CA        -16.8400  -20.8910   61.0140 C.3       6 GLL5        0.0000 
     29 CA        -14.0390  -24.0290   60.2540 C.3       4 GLP5        0.0000 
     30 CA        -17.4870  -19.7710   60.0045 C.3       2 GLC5        0.0000 
     31 CA        -15.6740  -20.4800   60.3640 C.3       6 GLL5        0.0000 
     32 CA        -19.3000  -19.0620   59.6450 C.3       4 GLP5        0.0000 
     33 CA        -26.1395  -27.3062   58.8402 C.3       2 GLC5        0.0000 
     34 CA        -24.1320  -26.5590   60.2060 C.3       6 GLL5        0.0000 
     35 CA        -21.6197  -28.2926   58.5731 C.3       2 GLC5        0.0000 
     36 CA        -19.8130  -28.8530   58.3000 C.3       4 GLP5        0.0000 
     37 CA        -23.8741  -25.5129   57.9986 C.3       2 GLC5        0.0000 
     38 CA        -24.4190  -23.6550   57.3300 C.3       4 GLP5        0.0000 
     39 CA        -25.4985  -22.8698   61.8345 C.3       2 GLC5        0.0000 
     40 CA        -25.8830  -20.7470   61.7510 C.3       4 GLP5        0.0000 
     41 CA        -25.9748  -26.1174   63.0463 C.3       2 GLC5        0.0000 
     42 CA        -25.8030  -25.0070   61.8280 C.3       6 GLL5        0.0000 
     43 CA        -26.2180  -26.8320   64.7150 C.3       4 GLP5        0.0000 
     44 CA        -24.5534  -25.0115   58.8490 C.3       2 GLC5        0.0000 
     45 CA        -25.5160  -26.5840   60.0330 C.3       6 GLL5        0.0000 
     46 CA        -20.1325  -23.9753   59.0897 C.3       2 GLC5        0.0000 
     47 CA        -19.0765  -21.0693   60.2408 C.3       2 GLC5        0.0000 
     48 CA        -19.5300  -23.2120   60.7440 C.3       6 GLL5        0.0000 
     49 CA        -19.5025  -22.1513   62.5733 C.3       2 GLC5        0.0000 
     50 CA        -18.1760  -22.9410   60.9290 C.3       6 GLL5        0.0000 
     51 CA        -20.1520  -21.2260   64.3100 C.3       4 GLP5        0.0000 
     52 CA        -15.9446  -24.1133   60.9865 C.3       2 GLC5        0.0000 
     53 CA        -18.4477  -20.5617   63.4393 C.3       2 GLC5        0.0000 
     54 CA        -17.1690  -20.3600   62.2650 C.3       6 GLL5        0.0000 
     55 CA        -17.9806  -19.5461   60.9504 C.3       2 GLC5        0.0000 
     56 CA        -16.3180  -19.4350   62.8720 C.3       6 GLL5        0.0000 
     57 CA        -13.8170  -21.0783   60.2073 C.3       2 GLC5        0.0000 
     58 CA        -12.3850  -22.1380   59.7480 C.3       4 GLP5        0.0000 
@<TRIPOS>BOND
@<TRIPOS>SUBSTRUCTURE
     1 SEC2        6 GROUP        1 X    SEC  0     ROOT SEC X 2
     2 GLC5        1 GROUP        1 X    GLC  0     **** GLC X 6
     3 SEP2        8 GROUP        1 Y    SEP  0     ROOT SEP Y 9
     4 GLP5        3 GROUP        1 Y    GLP  0     **** GLP Y 13
     5 SEL2        7 GROUP        1 Z    SEL  0     ROOT SEL Z 16
     6 GLL5        2 GROUP        1 Z    GLL  0     **** GLL Z 20
@<TRIPOS>SET

