#    Name: 3aeb_F7A_1_ligand
#    Modification time : Mon Apr  7 19:02:02 2014

@<TRIPOS>MOLECULE
3aeb_F7A_1_ligand
   40    42     1     0     0
SMALL
NO_CHARGES


@<TRIPOS>ATOM
      1 C1        -23.2970  -27.4200   59.3000 C.3       1 F7A1201     0.0000 
      2 F1        -22.1320  -26.8590   59.0390 F         1 F7A1201     0.0000 
      3 N1        -21.4310  -24.5840   61.0560 N.am      1 F7A1201     0.0000 
      4 O1        -21.6100  -26.5500   62.1230 O.2       1 F7A1201     0.0000 
      5 C2        -24.1320  -26.5590   60.2060 C.ar      1 F7A1201     0.0000 
      6 F2        -23.1030  -28.5850   59.8850 F         1 F7A1201     0.0000 
      7 O2        -17.6650  -21.7920   60.3810 O.3       1 F7A1201     0.0000 
      8 C3        -23.5870  -25.7450   61.2000 C.ar      1 F7A1201     0.0000 
      9 F3        -23.9440  -27.6020   58.1650 F         1 F7A1201     0.0000 
     10 C4        -24.4250  -24.9780   62.0080 C.ar      1 F7A1201     0.0000 
     11 C5        -25.8030  -25.0070   61.8280 C.ar      1 F7A1201     0.0000 
     12 C6        -26.3490  -25.8130   60.8370 C.ar      1 F7A1201     0.0000 
     13 C7        -25.5160  -26.5840   60.0330 C.ar      1 F7A1201     0.0000 
     14 C8        -22.1160  -25.6480   61.4830 C.2       1 F7A1201     0.0000 
     15 C9        -20.0980  -24.3730   61.2630 C.ar      1 F7A1201     0.0000 
     16 C10       -19.5300  -23.2120   60.7440 C.ar      1 F7A1201     0.0000 
     17 C11       -18.1760  -22.9410   60.9290 C.ar      1 F7A1201     0.0000 
     18 C12       -17.3710  -23.8410   61.6310 C.ar      1 F7A1201     0.0000 
     19 C13       -17.9270  -25.0040   62.1580 C.ar      1 F7A1201     0.0000 
     20 C14       -19.2840  -25.2660   61.9700 C.ar      1 F7A1201     0.0000 
     21 C15       -16.8400  -20.8910   61.0140 C.ar      1 F7A1201     0.0000 
     22 C16       -17.1690  -20.3600   62.2650 C.ar      1 F7A1201     0.0000 
     23 C17       -16.3180  -19.4350   62.8720 C.ar      1 F7A1201     0.0000 
     24 C18       -15.1490  -19.0380   62.2220 C.ar      1 F7A1201     0.0000 
     25 C19       -14.8240  -19.5570   60.9690 C.ar      1 F7A1201     0.0000 
     26 C20       -15.6740  -20.4800   60.3640 C.ar      1 F7A1201     0.0000 
     27 H         -21.9610  -23.8262   60.5039 H         1 F7A1201     0.0000 
     28 H         -24.0166  -24.3835   62.7464 H         1 F7A1201     0.0000 
     29 H         -26.4129  -24.4364   62.4237 H         1 F7A1201     0.0000 
     30 H         -27.3669  -25.8401   60.6974 H         1 F7A1201     0.0000 
     31 H         -25.9258  -27.1834   59.2978 H         1 F7A1201     0.0000 
     32 H         -20.1171  -22.5466   60.2178 H         1 F7A1201     0.0000 
     33 H         -16.3720  -23.6440   61.7572 H         1 F7A1201     0.0000 
     34 H         -17.3434  -25.6640   62.6810 H         1 F7A1201     0.0000 
     35 H         -19.6961  -26.1301   62.3568 H         1 F7A1201     0.0000 
     36 H         -18.0329  -20.6499   62.7341 H         1 F7A1201     0.0000 
     37 H         -16.5514  -19.0487   63.7924 H         1 F7A1201     0.0000 
     38 H         -14.5209  -18.3558   62.6716 H         1 F7A1201     0.0000 
     39 H         -13.9644  -19.2605   60.4965 H         1 F7A1201     0.0000 
     40 H         -15.4441  -20.8604   59.4372 H         1 F7A1201     0.0000 
@<TRIPOS>BOND
     1    2    1 1    
     2    5    1 1    
     3    6    1 1    
     4    9    1 1    
     5   14    3 am   
     6   15    3 1    
     7   27    3 1    
     8   14    4 2    
     9    8    5 ar   
    10   13    5 ar   
    11   17    7 1    
    12   21    7 1    
    13   10    8 ar   
    14   14    8 1    
    15   11   10 ar   
    16   28   10 1    
    17   12   11 ar   
    18   29   11 1    
    19   13   12 ar   
    20   30   12 1    
    21   31   13 1    
    22   16   15 ar   
    23   20   15 ar   
    24   17   16 ar   
    25   32   16 1    
    26   18   17 ar   
    27   19   18 ar   
    28   33   18 1    
    29   20   19 ar   
    30   34   19 1    
    31   35   20 1    
    32   22   21 ar   
    33   26   21 ar   
    34   23   22 ar   
    35   36   22 1    
    36   24   23 ar   
    37   37   23 1    
    38   25   24 ar   
    39   38   24 1    
    40   26   25 ar   
    41   39   25 1    
    42   40   26 1    
@<TRIPOS>SUBSTRUCTURE
     1 F7A1201     1 GROUP   
@<TRIPOS>SET

