#    Name: 3qgz_ADN_1_INTS_M
#    Modification time : Tue Mar 25 09:46:35 2014

@<TRIPOS>MOLECULE
3qgz_ADN_1_INTS_M
   42     0     9     0     0
SMALL
NO_CHARGES


@<TRIPOS>ATOM
      1 N          11.8515    9.0180   59.8300 N.am      2 SEC2        0.0000 
      2 N          10.7750    8.4490   59.4980 N.am      8 SEL2        0.0000 
      3 N          12.9280    9.5870   60.1620 N.am      5 SEP2        0.0000 
      4 N          11.2510    8.0630   60.5175 N.am      2 SEC2        0.0000 
      5 N          11.7270    7.6770   61.5370 N.am      5 SEP2        0.0000 
      6 CA         11.9710    8.2745   56.5245 C.3       3 GLC5        0.0000 
      7 CA         10.6370    8.6850   58.0970 C.3       9 GLL5        0.0000 
      8 CA         13.3050    7.8640   54.9520 C.3       6 GLP5        0.0000 
      9 CA          9.5505   11.4405   58.1405 C.3       3 GLC5        0.0000 
     10 CA          9.3660    9.4540   57.9790 C.3       9 GLL5        0.0000 
     11 CA          9.7350   13.4270   58.3020 C.3       6 GLP5        0.0000 
     12 O           6.0095    9.9710   58.5590 O.2       1 ALC1        0.0000 
     13 O           7.2320    9.0930   59.1430 O.2       7 ALL1        0.0000 
     14 O           4.7870   10.8490   57.9750 O.2       4 ALP1        0.0000 
     15 O           6.8530   10.3245   59.0945 O.2       1 ALC1        0.0000 
     16 O           6.4740   11.5560   59.0460 O.2       4 ALP1        0.0000 
     17 O           5.4425    9.8340   57.2360 O.2       1 ALC1        0.0000 
     18 O           6.0980    8.8190   56.4970 O.2       7 ALL1        0.0000 
     19 CA         10.1185   11.0610   56.2350 C.3       3 GLC5        0.0000 
     20 CA          8.0720   10.3050   56.2950 C.3       9 GLL5        0.0000 
     21 CA         12.1650   11.8170   56.1750 C.3       6 GLP5        0.0000 
     22 CA          8.9035   11.8660   57.2985 C.3       3 GLC5        0.0000 
     23 CA          9.3530   14.0080   51.9160 C.3       3 GLC5        0.0000 
     24 CA          7.9150   12.7130   52.0210 C.3       9 GLL5        0.0000 
     25 CA         10.7910   15.3030   51.8110 C.3       6 GLP5        0.0000 
     26 CA          5.8630   13.8365   55.7175 C.3       3 GLC5        0.0000 
     27 CA          7.0020   13.7450   53.9560 C.3       9 GLL5        0.0000 
     28 CA          4.7240   13.9280   57.4790 C.3       6 GLP5        0.0000 
     29 CA          5.5515   12.6725   53.5725 C.3       3 GLC5        0.0000 
     30 CA          4.1010   11.6000   53.1890 C.3       6 GLP5        0.0000 
     31 N           5.7010   12.6765   55.1875 N.am      2 SEC2        0.0000 
     32 N           7.2760   12.7340   54.8890 N.am      8 SEL2        0.0000 
     33 N           4.1260   12.6190   55.4860 N.am      5 SEP2        0.0000 
     34 CA         11.0832   10.4433   57.1065 C.3       3 GLC5        0.0000 
     35 CA         11.2743    9.9623   59.2580 C.3       3 GLC5        0.0000 
     36 CA         12.5470   10.8550   60.4780 C.3       6 GLP5        0.0000 
     37 CA          6.3187   10.0328   54.9883 C.3       3 GLC5        0.0000 
     38 CA          4.8850   10.4380   53.5670 C.3       6 GLP5        0.0000 
     39 CA          9.9818   11.7650   51.7507 C.3       3 GLC5        0.0000 
     40 CA          8.2520   11.5270   52.8760 C.3       9 GLL5        0.0000 
     41 CA         11.8800   11.4100   51.0530 C.3       6 GLP5        0.0000 
     42 CA          6.4301   11.1578   53.4661 C.3       3 GLC5        0.0000 
@<TRIPOS>BOND
@<TRIPOS>SUBSTRUCTURE
     1 ALC1       12 GROUP        1 X    ALC  0     ROOT ALC X 1
     2 SEC2        1 GROUP        1 X    SEC  0     **** SEC X 2
     3 GLC5        6 GROUP        1 X    GLC  0     **** GLC X 6
     4 ALP1       14 GROUP        1 Y    ALP  0     ROOT ALP Y 8
     5 SEP2        3 GROUP        1 Y    SEP  0     **** SEP Y 9
     6 GLP5        8 GROUP        1 Y    GLP  0     **** GLP Y 13
     7 ALL1       13 GROUP        1 Z    ALL  0     ROOT ALL Z 15
     8 SEL2        2 GROUP        1 Z    SEL  0     **** SEL Z 16
     9 GLL5        7 GROUP        1 Z    GLL  0     **** GLL Z 20
@<TRIPOS>SET

