#    Name: 3qgz_ADN_1_ligand
#    Modification time : Tue Mar 25 09:46:35 2014

@<TRIPOS>MOLECULE
3qgz_ADN_1_ligand
   32    34     1     0     0
SMALL
NO_CHARGES


@<TRIPOS>ATOM
      1 O5'        10.7750    8.4490   59.4980 O.3       1 ADN127      0.0000 
      2 C5'        10.6370    8.6850   58.0970 C.3       1 ADN127      0.0000 
      3 C4'         9.3660    9.4540   57.9790 C.3       1 ADN127      0.0000 
      4 O4'         9.3630   10.1510   56.7680 O.3       1 ADN127      0.0000 
      5 C3'         8.0110    8.7330   57.9050 C.3       1 ADN127      0.0000 
      6 O3'         7.2320    9.0930   59.1430 O.3       1 ADN127      0.0000 
      7 C2'         7.4330    8.9500   56.5240 C.3       1 ADN127      0.0000 
      8 O2'         6.0980    8.8190   56.4970 O.3       1 ADN127      0.0000 
      9 C1'         8.0720   10.3050   56.2950 C.3       1 ADN127      0.0000 
     10 N9          8.2610   10.4680   54.8220 N.pl3     1 ADN127      0.0000 
     11 C8          8.7960    9.6310   53.8680 C.2       1 ADN127      0.0000 
     12 N7          8.8090   10.2900   52.7380 N.2       1 ADN127      0.0000 
     13 C5          8.2520   11.5270   52.8760 C.ar      1 ADN127      0.0000 
     14 C6          7.9150   12.7130   52.0210 C.ar      1 ADN127      0.0000 
     15 N6          8.1320   12.7660   50.6980 N.pl3     1 ADN127      0.0000 
     16 N1          7.3330   13.7850   52.6520 N.ar      1 ADN127      0.0000 
     17 C2          7.0020   13.7450   53.9560 C.ar      1 ADN127      0.0000 
     18 N3          7.2760   12.7340   54.8890 N.ar      1 ADN127      0.0000 
     19 C4          7.8670   11.6350   54.2820 C.ar      1 ADN127      0.0000 
     20 H          10.5463    7.7642   57.5436 H         1 ADN127      0.0000 
     21 H          11.4482    9.2804   57.7102 H         1 ADN127      0.0000 
     22 H           9.2881   10.1894   58.7906 H         1 ADN127      0.0000 
     23 H           8.2904    7.6419   57.9865 H         1 ADN127      0.0000 
     24 H           7.9990    8.2520   55.8913 H         1 ADN127      0.0000 
     25 H           7.5371   11.0518   56.7049 H         1 ADN127      0.0000 
     26 H           9.0933    8.7336   54.0421 H         1 ADN127      0.0000 
     27 H           8.5414   11.9518   50.2863 H         1 ADN127      0.0000 
     28 H           7.8649   13.6149   50.2420 H         1 ADN127      0.0000 
     29 H           6.4506   14.5969   54.3581 H         1 ADN127      0.0000 
     30 H           9.8490    8.5306   59.8665 H         1 ADN127      0.0000 
     31 H           6.5771    9.7869   58.8439 H         1 ADN127      0.0000 
     32 H           5.7524    9.5780   57.0487 H         1 ADN127      0.0000 
@<TRIPOS>BOND
     1    2    1 1    
     2   30    1 1    
     3    3    2 1    
     4   20    2 1    
     5   21    2 1    
     6    4    3 1    
     7    5    3 1    
     8   22    3 1    
     9    9    4 1    
    10    6    5 1    
    11    7    5 1    
    12   23    5 1    
    13   31    6 1    
    14    8    7 1    
    15    9    7 1    
    16   24    7 1    
    17   32    8 1    
    18   10    9 1    
    19   25    9 1    
    20   11   10 1    
    21   19   10 1    
    22   12   11 2    
    23   26   11 1    
    24   13   12 1    
    25   14   13 ar   
    26   19   13 ar   
    27   15   14 1    
    28   16   14 ar   
    29   27   15 1    
    30   28   15 1    
    31   17   16 ar   
    32   18   17 ar   
    33   29   17 1    
    34   19   18 ar   
@<TRIPOS>SUBSTRUCTURE
     1 ADN127      1 GROUP   
@<TRIPOS>SET

