#    Name: 2e1m_FAD_1_INTS_M
#    Modification time : Tue Mar 25 10:31:19 2014

@<TRIPOS>MOLECULE
2e1m_FAD_1_INTS_M
  141     0    12     0     0
SMALL
NO_CHARGES


@<TRIPOS>ATOM
      1 N          11.4735   54.6955   85.8120 N.am      2 SEC2        0.0000 
      2 N          12.4080   54.6870   86.9710 N.am     10 SEL2        0.0000 
      3 N          10.5390   54.7040   84.6530 N.am      6 SEP2        0.0000 
      4 NZ         15.2805   55.7895   85.5215 N.4       3 LYC4        0.0000 
      5 NZ         13.8090   56.3770   85.7820 N.4      11 LYL4        0.0000 
      6 NZ         16.2290   54.6720   84.1570 N.4       7 LYP4        0.0000 
      7 N          14.4030   55.6910   84.7775 N.am      2 SEC2        0.0000 
      8 N          13.8090   56.3770   85.7820 N.am     10 SEL2        0.0000 
      9 N          14.9970   55.0050   83.7730 N.am      6 SEP2        0.0000 
     10 N          15.2805   55.7895   85.5215 N.am      2 SEC2        0.0000 
     11 N          16.7520   55.2020   85.2610 N.am      6 SEP2        0.0000 
     12 CA         15.2490   59.1515   88.7020 C.3       4 GLC5        0.0000 
     13 CA         13.5200   58.0950   88.1910 C.3      12 GLL5        0.0000 
     14 CA         16.9780   60.2080   89.2130 C.3       8 GLP5        0.0000 
     15 CA         15.0765   58.8065   87.2790 C.3       4 GLC5        0.0000 
     16 CA         16.6330   59.5180   86.3670 C.3       8 GLP5        0.0000 
     17 CA         12.4610   59.7260   90.5095 C.3       4 GLC5        0.0000 
     18 CA         12.3610   59.0010   88.6800 C.3      12 GLL5        0.0000 
     19 CA         12.5610   60.4510   92.3390 C.3       8 GLP5        0.0000 
     20 CA         10.9860   57.4325   89.0480 C.3       4 GLC5        0.0000 
     21 CA         11.1630   59.2200   87.7160 C.3      12 GLL5        0.0000 
     22 CA         10.8090   55.6450   90.3800 C.3       8 GLP5        0.0000 
     23 CA         10.2935   57.6875   86.9710 C.3       4 GLC5        0.0000 
     24 CA          9.4240   56.1550   86.2260 C.3       8 GLP5        0.0000 
     25 O           9.0760   60.3665   88.5040 O.2       1 ALC1        0.0000 
     26 O           9.9090   58.8580   88.2080 O.2       9 ALL1        0.0000 
     27 O           8.2430   61.8750   88.8000 O.2       5 ALP1        0.0000 
     28 O           9.5945   59.8305   89.3190 O.2       1 ALC1        0.0000 
     29 O           9.2800   60.8030   90.4300 O.2       5 ALP1        0.0000 
     30 CA         10.9920   61.3695   85.4675 C.3       4 GLC5        0.0000 
     31 CA         11.3310   60.6850   87.2520 C.3      12 GLL5        0.0000 
     32 CA         10.6530   62.0540   83.6830 C.3       8 GLP5        0.0000 
     33 O           9.1760   61.5820   87.8470 O.2       1 ALC1        0.0000 
     34 O          10.1090   61.2890   86.8940 O.2       9 ALL1        0.0000 
     35 CA         12.2600   60.8955   90.3855 C.3       4 GLC5        0.0000 
     36 CA         11.9590   61.3400   88.4320 C.3      12 GLL5        0.0000 
     37 CA         13.7760   61.6975   89.2740 C.3       4 GLC5        0.0000 
     38 CA         15.5930   62.0550   90.1160 C.3       8 GLP5        0.0000 
     39 N          15.4240   64.2935   86.3785 N.am      2 SEC2        0.0000 
     40 N          14.4580   63.7510   87.2730 N.am     10 SEL2        0.0000 
     41 N          16.3900   64.8360   85.4840 N.am      6 SEP2        0.0000 
     42 CA         13.2715   67.3850   88.2760 C.3       4 GLC5        0.0000 
     43 CA         14.1290   65.7880   88.8700 C.3      12 GLL5        0.0000 
     44 CA         12.4140   68.9820   87.6820 C.3       8 GLP5        0.0000 
     45 CA         14.8210   66.9190   90.5610 C.3       4 GLC5        0.0000 
     46 CA         15.5130   68.0500   92.2520 C.3       8 GLP5        0.0000 
     47 CA         15.8905   64.9120   88.8635 C.3       4 GLC5        0.0000 
     48 CA         17.6520   64.0360   88.8570 C.3       8 GLP5        0.0000 
     49 O          15.2705   68.0735   88.9805 O.2       1 ALC1        0.0000 
     50 O          15.0380   66.6210   88.4260 O.2       9 ALL1        0.0000 
     51 O          15.5030   69.5260   89.5350 O.2       5 ALP1        0.0000 
     52 N          13.3705   67.4165   90.5225 N.am      2 SEC2        0.0000 
     53 N          13.3130   66.1320   89.9470 N.am     10 SEL2        0.0000 
     54 N          13.4280   68.7010   91.0980 N.am      6 SEP2        0.0000 
     55 CA         13.6255   64.6530   91.7335 C.3       4 GLC5        0.0000 
     56 CA         12.3370   65.2940   90.4600 C.3      12 GLL5        0.0000 
     57 CA         14.9140   64.0120   93.0070 C.3       8 GLP5        0.0000 
     58 CA         10.5685   64.3830   91.3480 C.3       4 GLC5        0.0000 
     59 CA          8.8000   63.4720   92.2360 C.3       8 GLP5        0.0000 
     60 CA         11.2220   65.5340   89.3020 C.3       4 GLC5        0.0000 
     61 CA         10.1070   65.7740   88.1440 C.3       8 GLP5        0.0000 
     62 CA         11.8110   67.1315   90.2210 C.3       4 GLC5        0.0000 
     63 CA         11.2850   68.9690   89.9820 C.3       8 GLP5        0.0000 
     64 N          10.6365   64.3760   90.0830 N.am      2 SEC2        0.0000 
     65 N          12.0430   64.0440   89.9970 N.am     10 SEL2        0.0000 
     66 N           9.2300   64.7080   90.1690 N.am      6 SEP2        0.0000 
     67 N          14.3665   45.4535   85.5020 N.am      2 SEC2        0.0000 
     68 N          13.5380   44.5670   84.5890 N.am     10 SEL2        0.0000 
     69 N          15.1950   46.3400   86.4150 N.am      6 SEP2        0.0000 
     70 O          12.0460   43.0255   82.7800 O.2       1 ALC1        0.0000 
     71 O          12.5800   44.2940   82.6010 O.2       9 ALL1        0.0000 
     72 O          11.5120   41.7570   82.9590 O.2       5 ALP1        0.0000 
     73 N          10.1905   44.6575   80.7485 N.am      2 SEC2        0.0000 
     74 N          11.5690   44.0830   80.5920 N.am     10 SEL2        0.0000 
     75 N           8.8120   45.2320   80.9050 N.am      6 SEP2        0.0000 
     76 N          10.4090   43.2750   80.9685 N.am      2 SEC2        0.0000 
     77 N           9.2490   42.4670   81.3450 N.am      6 SEP2        0.0000 
     78 CA          9.9875   50.1185   75.9440 C.3       4 GLC5        0.0000 
     79 CA         11.6610   50.7740   76.9390 C.3      12 GLL5        0.0000 
     80 CA          8.3140   49.4630   74.9490 C.3       8 GLP5        0.0000 
     81 CA         12.1285   49.4895   75.2995 C.3       4 GLC5        0.0000 
     82 CA         12.5960   48.2050   73.6600 C.3       8 GLP5        0.0000 
     83 CA         11.4455   52.5240   76.8035 C.3       4 GLC5        0.0000 
     84 CA         11.2300   54.2740   76.6680 C.3       8 GLP5        0.0000 
     85 CA         10.8225   50.7375   79.3770 C.3       4 GLC5        0.0000 
     86 CA         12.8690   51.0100   79.2630 C.3      12 GLL5        0.0000 
     87 CA          8.7760   50.4650   79.4910 C.3       8 GLP5        0.0000 
     88 CA         12.9845   53.6265   80.8275 C.3       4 GLC5        0.0000 
     89 CA         13.1010   52.5010   79.1200 C.3      12 GLL5        0.0000 
     90 CA         12.8680   54.7520   82.5350 C.3       8 GLP5        0.0000 
     91 CA         12.1655   53.3875   77.8940 C.3       4 GLC5        0.0000 
     92 CA         12.7280   51.9950   81.8165 C.3       4 GLC5        0.0000 
     93 CA         13.3340   50.4020   80.4500 C.3      12 GLL5        0.0000 
     94 CA         12.1220   53.5880   83.1830 C.3       8 GLP5        0.0000 
     95 CA         16.3445   48.8155   82.4060 C.3       4 GLC5        0.0000 
     96 CA         14.4870   49.0480   82.8650 C.3      12 GLL5        0.0000 
     97 CA         18.2020   48.5830   81.9470 C.3       8 GLP5        0.0000 
     98 CA         11.9255   48.4150   83.6835 C.3       4 GLC5        0.0000 
     99 CA         13.8500   49.4080   84.2410 C.3      12 GLL5        0.0000 
    100 CA         10.0010   47.4220   83.1260 C.3       8 GLP5        0.0000 
    101 CA         13.0545   48.1780   85.5260 C.3       4 GLC5        0.0000 
    102 CA         12.2590   46.9480   86.8110 C.3       8 GLP5        0.0000 
    103 CA         13.4125   52.0460   84.0310 C.3       4 GLC5        0.0000 
    104 CA         14.7030   50.5040   84.8790 C.3      12 GLL5        0.0000 
    105 O          16.4630   48.8905   85.7935 O.2       1 ALC1        0.0000 
    106 O          16.0160   50.0000   85.0820 O.2       9 ALL1        0.0000 
    107 O          16.9100   47.7810   86.5050 O.2       5 ALP1        0.0000 
    108 CA         14.4045   48.8820   86.9675 C.3       4 GLC5        0.0000 
    109 CA         14.1810   50.9560   86.2690 C.3      12 GLL5        0.0000 
    110 CA         14.6280   46.8080   87.6660 C.3       8 GLP5        0.0000 
    111 N          13.8035   53.3830   91.1105 N.am      2 SEC2        0.0000 
    112 N          14.2110   54.0790   89.9430 N.am     10 SEL2        0.0000 
    113 N          13.3960   52.6870   92.2780 N.am      6 SEP2        0.0000 
    114 N          17.5405   53.0530   88.7895 N.am      2 SEC2        0.0000 
    115 N          16.3970   53.8850   88.7660 N.am     10 SEL2        0.0000 
    116 N          18.6840   52.2210   88.8130 N.am      6 SEP2        0.0000 
    117 N          15.7510   55.1895   86.4870 N.am      2 SEC2        0.0000 
    118 N          14.7500   55.1770   87.7130 N.am     10 SEL2        0.0000 
    119 CA         11.8748   57.0965   89.4077 C.3       4 GLC5        0.0000 
    120 CA         14.4772   63.0510   89.3618 C.3       4 GLC5        0.0000 
    121 CA         12.8410   63.6590   88.9130 C.3      12 GLL5        0.0000 
    122 CA         11.7651   65.0796   88.4468 C.3       4 GLC5        0.0000 
    123 CA         10.4990   49.4728   79.2825 C.3       4 GLC5        0.0000 
    124 CA         12.4530   48.1690   79.6790 C.3      12 GLL5        0.0000 
    125 CA         10.3477   50.4672   78.5385 C.3       4 GLC5        0.0000 
    126 CA         12.1780   50.1650   78.2330 C.3      12 GLL5        0.0000 
    127 CA         13.8993   51.1418   77.5915 C.3       4 GLC5        0.0000 
    128 CA         15.8790   51.8140   77.5970 C.3       8 GLP5        0.0000 
    129 CA         14.5192   51.4464   78.7089 C.3       4 GLC5        0.0000 
    130 CA         11.1755   48.0711   80.7553 C.3       4 GLC5        0.0000 
    131 CA         13.1380   49.0000   80.6830 C.3      12 GLL5        0.0000 
    132 CA          9.6710   47.4020   81.6320 C.3       8 GLP5        0.0000 
    133 CA         15.5113   47.7440   84.0935 C.3       4 GLC5        0.0000 
    134 CA         16.8540   46.2600   84.6340 C.3       8 GLP5        0.0000 
    135 CA         13.6947   51.2037   88.3243 C.3       4 GLC5        0.0000 
    136 CA         14.9220   52.2330   86.6120 C.3      12 GLL5        0.0000 
    137 CA         12.8380   50.8130   90.2080 C.3       8 GLP5        0.0000 
    138 CA         15.2102   50.7768   88.1977 C.3       4 GLC5        0.0000 
    139 CA         15.8690   49.9590   89.9550 C.3       8 GLP5        0.0000 
    140 CA         16.4830   51.5667   86.2940 C.3       4 GLC5        0.0000 
    141 CA         18.2840   51.6520   86.4950 C.3       8 GLP5        0.0000 
@<TRIPOS>BOND
@<TRIPOS>SUBSTRUCTURE
     1 ALC1       25 GROUP        1 X    ALC  0     ROOT ALC X 1
     2 SEC2        1 GROUP        1 X    SEC  0     **** SEC X 2
     3 LYC4        4 GROUP        1 X    LYC  0     **** LYC X 4
     4 GLC5       12 GROUP        1 X    GLC  0     **** GLC X 6
     5 ALP1       27 GROUP        1 Y    ALP  0     ROOT ALP Y 8
     6 SEP2        3 GROUP        1 Y    SEP  0     **** SEP Y 9
     7 LYP4        6 GROUP        1 Y    LYP  0     **** LYP Y 11
     8 GLP5       14 GROUP        1 Y    GLP  0     **** GLP Y 13
     9 ALL1       26 GROUP        1 Z    ALL  0     ROOT ALL Z 15
    10 SEL2        2 GROUP        1 Z    SEL  0     **** SEL Z 16
    11 LYL4        5 GROUP        1 Z    LYL  0     **** LYL Z 18
    12 GLL5       13 GROUP        1 Z    GLL  0     **** GLL Z 20
@<TRIPOS>SET

