#    Name: 2e1m_FAD_1_ligand
#    Modification time : Tue Mar 25 10:31:19 2014

@<TRIPOS>MOLECULE
2e1m_FAD_1_ligand
   84    89     1     0     0
SMALL
NO_CHARGES


@<TRIPOS>ATOM
      1 PA         13.4550   55.7720   86.9620 P.3       1 FAD801      0.0000 
      2 O1A        12.4080   54.6870   86.9710 O.co2     1 FAD801      0.0000 
      3 O2A        13.8090   56.3770   85.7820 O.co2     1 FAD801      0.0000 
      4 O5B        12.8640   56.8170   87.9020 O.3       1 FAD801      0.0000 
      5 C5B        13.5200   58.0950   88.1910 C.3       1 FAD801      0.0000 
      6 C4B        12.3610   59.0010   88.6800 C.3       1 FAD801      0.0000 
      7 O4B        12.9150   60.3390   88.9610 O.3       1 FAD801      0.0000 
      8 C3B        11.1630   59.2200   87.7160 C.3       1 FAD801      0.0000 
      9 O3B         9.9090   58.8580   88.2080 O.3       1 FAD801      0.0000 
     10 C2B        11.3310   60.6850   87.2520 C.3       1 FAD801      0.0000 
     11 O2B        10.1090   61.2890   86.8940 O.3       1 FAD801      0.0000 
     12 C1B        11.9590   61.3400   88.4320 C.3       1 FAD801      0.0000 
     13 N9A        12.8430   62.4750   88.1880 N.pl3     1 FAD801      0.0000 
     14 C8A        13.8200   62.5880   87.2280 C.2       1 FAD801      0.0000 
     15 N7A        14.4580   63.7510   87.2730 N.2       1 FAD801      0.0000 
     16 C5A        13.8820   64.4350   88.3020 C.ar      1 FAD801      0.0000 
     17 C6A        14.1290   65.7880   88.8700 C.ar      1 FAD801      0.0000 
     18 N6A        15.0380   66.6210   88.4260 N.pl3     1 FAD801      0.0000 
     19 N1A        13.3130   66.1320   89.9470 N.ar      1 FAD801      0.0000 
     20 C2A        12.3370   65.2940   90.4600 C.ar      1 FAD801      0.0000 
     21 N3A        12.0430   64.0440   89.9970 N.ar      1 FAD801      0.0000 
     22 C4A        12.8410   63.6590   88.9130 C.ar      1 FAD801      0.0000 
     23 N1         13.6160   46.3600   83.3280 N.2       1 FAD801      0.0000 
     24 C2         13.2820   45.0910   83.5690 C.2       1 FAD801      0.0000 
     25 O2         13.5380   44.5670   84.5890 O.2       1 FAD801      0.0000 
     26 N3         12.5800   44.2940   82.6010 N.am      1 FAD801      0.0000 
     27 C4         12.1980   44.8010   81.3480 C.2       1 FAD801      0.0000 
     28 O4         11.5690   44.0830   80.5920 O.2       1 FAD801      0.0000 
     29 C4X        12.5610   46.2090   81.0490 C.2       1 FAD801      0.0000 
     30 N5         12.1900   46.8050   79.8610 N.2       1 FAD801      0.0000 
     31 C5X        12.4530   48.1690   79.6790 C.ar      1 FAD801      0.0000 
     32 C6         11.9910   48.7920   78.4690 C.ar      1 FAD801      0.0000 
     33 C7         12.1780   50.1650   78.2330 C.ar      1 FAD801      0.0000 
     34 C7M        11.6610   50.7740   76.9390 C.3       1 FAD801      0.0000 
     35 C8         12.8690   51.0100   79.2630 C.ar      1 FAD801      0.0000 
     36 C8M        13.1010   52.5010   79.1200 C.3       1 FAD801      0.0000 
     37 C9         13.3340   50.4020   80.4500 C.ar      1 FAD801      0.0000 
     38 C9A        13.1380   49.0000   80.6830 C.ar      1 FAD801      0.0000 
     39 N10        13.5770   48.3110   81.9130 N.pl3     1 FAD801      0.0000 
     40 C10        13.2850   46.9690   82.1220 C.2       1 FAD801      0.0000 
     41 C1'        14.4870   49.0480   82.8650 C.3       1 FAD801      0.0000 
     42 C2'        13.8500   49.4080   84.2410 C.3       1 FAD801      0.0000 
     43 O2'        12.5240   49.8740   83.9990 O.3       1 FAD801      0.0000 
     44 C3'        14.7030   50.5040   84.8790 C.3       1 FAD801      0.0000 
     45 O3'        16.0160   50.0000   85.0820 O.3       1 FAD801      0.0000 
     46 C4'        14.1810   50.9560   86.2690 C.3       1 FAD801      0.0000 
     47 O4'        12.7380   51.1650   86.3350 O.3       1 FAD801      0.0000 
     48 C5'        14.9220   52.2330   86.6120 C.3       1 FAD801      0.0000 
     49 O5'        14.4120   52.7400   88.0200 O.3       1 FAD801      0.0000 
     50 P          14.9990   53.9850   88.6060 P.3       1 FAD801      0.0000 
     51 O1P        14.2110   54.0790   89.9430 O.co2     1 FAD801      0.0000 
     52 O2P        16.3970   53.8850   88.7660 O.co2     1 FAD801      0.0000 
     53 O3P        14.7500   55.1770   87.7130 O.3       1 FAD801      0.0000 
     54 H          13.9379   58.5315   87.3138 H         1 FAD801      0.0000 
     55 H          14.2294   58.0050   88.9805 H         1 FAD801      0.0000 
     56 H          11.9739   58.5979   89.6141 H         1 FAD801      0.0000 
     57 H          11.4447   58.6143   86.8046 H         1 FAD801      0.0000 
     58 H          12.0551   60.6711   86.4536 H         1 FAD801      0.0000 
     59 H          11.2552   61.5449   89.1911 H         1 FAD801      0.0000 
     60 H          14.0102   61.8593   86.5781 H         1 FAD801      0.0000 
     61 H          15.5901   66.3005   87.6563 H         1 FAD801      0.0000 
     62 H          15.0963   67.5009   88.8976 H         1 FAD801      0.0000 
     63 H          11.7692   65.6651   91.2900 H         1 FAD801      0.0000 
     64 H          12.3546   43.3152   82.8483 H         1 FAD801      0.0000 
     65 H          11.5145   48.2086   77.7685 H         1 FAD801      0.0000 
     66 H          13.8177   50.9599   81.1583 H         1 FAD801      0.0000 
     67 H          14.8337   49.9883   82.3970 H         1 FAD801      0.0000 
     68 H          15.3920   48.4427   83.0599 H         1 FAD801      0.0000 
     69 H          13.8792   48.5392   84.8473 H         1 FAD801      0.0000 
     70 H          14.7175   51.3625   84.2351 H         1 FAD801      0.0000 
     71 H          14.4996   50.1999   86.9884 H         1 FAD801      0.0000 
     72 H          14.7125   52.9981   85.8880 H         1 FAD801      0.0000 
     73 H          15.9774   52.0493   86.6878 H         1 FAD801      0.0000 
     74 H          11.8505   51.7546   76.8883 H         1 FAD801      0.0000 
     75 H          12.0819   50.3522   76.1359 H         1 FAD801      0.0000 
     76 H          10.6718   50.6614   76.8447 H         1 FAD801      0.0000 
     77 H          13.5815   52.8796   79.9110 H         1 FAD801      0.0000 
     78 H          13.6508   52.7156   78.3127 H         1 FAD801      0.0000 
     79 H          12.2412   53.0038   79.0311 H         1 FAD801      0.0000 
     80 H           9.7361   59.4885   88.9647 H         1 FAD801      0.0000 
     81 H           9.6197   61.4142   87.7571 H         1 FAD801      0.0000 
     82 H          12.3190   50.4811   84.7668 H         1 FAD801      0.0000 
     83 H          15.8940   49.1750   85.6338 H         1 FAD801      0.0000 
     84 H          12.6261   52.1426   86.5132 H         1 FAD801      0.0000 
@<TRIPOS>BOND
     1    2    1 ar   
     2    3    1 ar   
     3    4    1 1    
     4   53    1 1    
     5    5    4 1    
     6    6    5 1    
     7   54    5 1    
     8   55    5 1    
     9    7    6 1    
    10    8    6 1    
    11   56    6 1    
    12   12    7 1    
    13    9    8 1    
    14   10    8 1    
    15   57    8 1    
    16   80    9 1    
    17   11   10 1    
    18   12   10 1    
    19   58   10 1    
    20   81   11 1    
    21   13   12 1    
    22   59   12 1    
    23   14   13 1    
    24   22   13 1    
    25   15   14 2    
    26   60   14 1    
    27   16   15 1    
    28   17   16 ar   
    29   22   16 ar   
    30   18   17 1    
    31   19   17 ar   
    32   61   18 1    
    33   62   18 1    
    34   20   19 ar   
    35   21   20 ar   
    36   63   20 1    
    37   22   21 ar   
    38   24   23 1    
    39   40   23 2    
    40   25   24 2    
    41   26   24 am   
    42   27   26 am   
    43   64   26 1    
    44   28   27 2    
    45   29   27 1    
    46   30   29 2    
    47   40   29 1    
    48   31   30 1    
    49   32   31 ar   
    50   38   31 ar   
    51   33   32 ar   
    52   65   32 1    
    53   34   33 1    
    54   35   33 ar   
    55   74   34 1    
    56   75   34 1    
    57   76   34 1    
    58   36   35 1    
    59   37   35 ar   
    60   77   36 1    
    61   78   36 1    
    62   79   36 1    
    63   38   37 ar   
    64   66   37 1    
    65   39   38 1    
    66   40   39 1    
    67   41   39 1    
    68   42   41 1    
    69   67   41 1    
    70   68   41 1    
    71   43   42 1    
    72   44   42 1    
    73   69   42 1    
    74   82   43 1    
    75   45   44 1    
    76   46   44 1    
    77   70   44 1    
    78   83   45 1    
    79   47   46 1    
    80   48   46 1    
    81   71   46 1    
    82   84   47 1    
    83   49   48 1    
    84   72   48 1    
    85   73   48 1    
    86   50   49 1    
    87   51   50 ar   
    88   52   50 ar   
    89   53   50 1    
@<TRIPOS>SUBSTRUCTURE
     1 FAD801      1 GROUP   
@<TRIPOS>SET

