#    Name: 2zx5_ZX5_2_INTS_M
#    Modification time : Tue Mar 25 11:14:43 2014

@<TRIPOS>MOLECULE
2zx5_ZX5_2_INTS_M
   74     0    12     0     0
SMALL
NO_CHARGES


@<TRIPOS>ATOM
      1 CA         28.0980    4.1125   50.7740 C.3       4 GLC5        0.0000 
      2 CA         26.9400    3.5450   52.3730 C.3      12 GLL5        0.0000 
      3 CA         29.2560    4.6800   49.1750 C.3       8 GLP5        0.0000 
      4 CA         28.3215    6.1590   53.5475 C.3       4 GLC5        0.0000 
      5 CA         26.7100    4.6530   53.4040 C.3      12 GLL5        0.0000 
      6 CA         29.9330    7.6650   53.6910 C.3       8 GLP5        0.0000 
      7 O          27.6120    5.1220   55.9780 O.2       1 ALC1        0.0000 
      8 O          26.1480    4.5370   55.7190 O.2       9 ALL1        0.0000 
      9 O          29.0760    5.7070   56.2370 O.2       5 ALP1        0.0000 
     10 CA         23.9210    3.0120   56.4855 C.3       4 GLC5        0.0000 
     11 CA         25.4070    4.3380   56.9700 C.3      12 GLL5        0.0000 
     12 CA         22.4350    1.6860   56.0010 C.3       8 GLP5        0.0000 
     13 CA         28.3385    4.1430   58.3685 C.3       4 GLC5        0.0000 
     14 CA         26.3570    4.8290   58.0610 C.3      12 GLL5        0.0000 
     15 CA         30.3200    3.4570   58.6760 C.3       8 GLP5        0.0000 
     16 OD1        24.9790    6.5910   58.3010 O.co2     3 ASC3        0.0000 
     17 OD1        26.3480    6.2990   58.0900 O.co2    11 ASL3        0.0000 
     18 OD1        23.6100    6.8830   58.5120 O.co2     7 ASP3        0.0000 
     19 OD1        24.6120    6.6405   57.2930 O.co2     3 ASC3        0.0000 
     20 OD1        22.8760    6.9820   56.4960 O.co2     7 ASP3        0.0000 
     21 OD1        27.7120    6.0030   57.1635 O.co2     3 ASC3        0.0000 
     22 OD1        29.0760    5.7070   56.2370 O.co2     7 ASP3        0.0000 
     23 OD1        27.0140    6.7745   56.7970 O.co2     3 ASC3        0.0000 
     24 OD1        27.6800    7.2500   55.5040 O.co2     7 ASP3        0.0000 
     25 CA         28.8590    5.1285   58.8345 C.3       4 GLC5        0.0000 
     26 CA         27.3980    6.8000   58.9930 C.3      12 GLL5        0.0000 
     27 CA         29.2885    7.0590   59.2100 C.3       4 GLC5        0.0000 
     28 CA         31.1790    7.3180   59.4270 C.3       8 GLP5        0.0000 
     29 CA         27.2160   10.3740   59.1785 C.3       4 GLC5        0.0000 
     30 CA         27.4130    8.3290   58.9560 C.3      12 GLL5        0.0000 
     31 CA         27.0190   12.4190   59.4010 C.3       8 GLP5        0.0000 
     32 CA         26.0915    9.6775   57.7525 C.3       4 GLC5        0.0000 
     33 CA         24.7700   11.0260   56.5490 C.3       8 GLP5        0.0000 
     34 CA         29.0440    8.9820   59.4170 C.3       4 GLC5        0.0000 
     35 CA         30.6750    9.6350   59.8780 C.3       8 GLP5        0.0000 
     36 CA         27.2165    7.2785   62.0910 C.3       4 GLC5        0.0000 
     37 CA         27.1990    6.2800   60.4210 C.3      12 GLL5        0.0000 
     38 CA         27.2340    8.2770   63.7610 C.3       8 GLP5        0.0000 
     39 CA         29.0785    6.6550   60.6165 C.3       4 GLC5        0.0000 
     40 CA         30.9580    7.0300   60.8120 C.3       8 GLP5        0.0000 
     41 N          26.4500    7.8390   61.8070 N.am      2 SEC2        0.0000 
     42 N          26.0380    6.8280   61.0510 N.am     10 SEL2        0.0000 
     43 N          26.8620    8.8500   62.5630 N.am      6 SEP2        0.0000 
     44 O          25.4730    6.2815   62.2195 O.2       1 ALC1        0.0000 
     45 O          26.0380    6.8280   61.0510 O.2       9 ALL1        0.0000 
     46 O          24.9080    5.7350   63.3880 O.2       5 ALP1        0.0000 
     47 CA         27.4820    4.4920   62.5375 C.3       4 GLC5        0.0000 
     48 CA         27.0810    4.7570   60.4390 C.3      12 GLL5        0.0000 
     49 CA         27.8830    4.2270   64.6360 C.3       8 GLP5        0.0000 
     50 CA         27.2960    2.8615   61.3560 C.3       4 GLC5        0.0000 
     51 CA         27.5110    0.9660   62.2730 C.3       8 GLP5        0.0000 
     52 N          26.7300    2.7470   61.4735 N.am      2 SEC2        0.0000 
     53 N          26.7450    4.3780   61.7740 N.am     10 SEL2        0.0000 
     54 N          26.7150    1.1160   61.1730 N.am      6 SEP2        0.0000 
     55 O          28.0425    4.4325   62.2535 O.2       1 ALC1        0.0000 
     56 O          26.7450    4.3780   61.7740 O.2       9 ALL1        0.0000 
     57 O          29.3400    4.4870   62.7330 O.2       5 ALP1        0.0000 
     58 CA         24.7670    3.0995   60.6025 C.3       4 GLC5        0.0000 
     59 CA         26.0160    4.2760   59.4470 C.3      12 GLL5        0.0000 
     60 CA         23.5180    1.9230   61.7580 C.3       8 GLP5        0.0000 
     61 N          26.3475    1.9800   60.2875 N.am      2 SEC2        0.0000 
     62 N          25.9800    2.8440   59.4020 N.am     10 SEL2        0.0000 
     63 N          24.7515    2.8265   60.0560 N.am      2 SEC2        0.0000 
     64 N          23.5230    2.8090   60.7100 N.am      6 SEP2        0.0000 
     65 CA         29.3858    2.7995   54.2412 C.3       4 GLC5        0.0000 
     66 CA         27.7840    2.4130   55.3910 C.3      12 GLL5        0.0000 
     67 CA         31.1890    3.5240   53.6650 C.3       8 GLP5        0.0000 
     68 CA         28.5257   -1.4177   54.1855 C.3       4 GLC5        0.0000 
     69 CA         27.1690    0.3640   54.2980 C.3      12 GLL5        0.0000 
     70 CA         29.7980   -2.8520   53.4770 C.3       8 GLP5        0.0000 
     71 CA         29.0933    3.1813   53.1633 C.3       4 GLC5        0.0000 
     72 CA         27.0550    2.1320   52.9500 C.3      12 GLL5        0.0000 
     73 CA         28.3447    3.6412   59.9200 C.3       4 GLC5        0.0000 
     74 CA         30.1410    2.7660   59.8970 C.3       8 GLP5        0.0000 
@<TRIPOS>BOND
@<TRIPOS>SUBSTRUCTURE
     1 ALC1        7 GROUP        1 X    ALC  0     ROOT ALC X 1
     2 SEC2       41 GROUP        1 X    SEC  0     **** SEC X 2
     3 ASC3       16 GROUP        1 X    ASC  0     **** ASC X 3
     4 GLC5        1 GROUP        1 X    GLC  0     **** GLC X 6
     5 ALP1        9 GROUP        1 Y    ALP  0     ROOT ALP Y 8
     6 SEP2       43 GROUP        1 Y    SEP  0     **** SEP Y 9
     7 ASP3       18 GROUP        1 Y    ASP  0     **** ASP Y 10
     8 GLP5        3 GROUP        1 Y    GLP  0     **** GLP Y 13
     9 ALL1        8 GROUP        1 Z    ALL  0     ROOT ALL Z 15
    10 SEL2       42 GROUP        1 Z    SEL  0     **** SEL Z 16
    11 ASL3       17 GROUP        1 Z    ASL  0     **** ASL Z 17
    12 GLL5        2 GROUP        1 Z    GLL  0     **** GLL Z 20
@<TRIPOS>SET

