#    Name: 2zx5_ZX5_2_ligand
#    Modification time : Tue Mar 25 11:14:43 2014

@<TRIPOS>MOLECULE
2zx5_ZX5_2_ligand
   49    51     1     0     0
SMALL
NO_CHARGES


@<TRIPOS>ATOM
      1 CAT        27.3810    1.7370   54.2440 C.ar      1 ZX5902      0.0000 
      2 CAI        27.7840    2.4130   55.3910 C.ar      1 ZX5902      0.0000 
      3 CAG        27.9520    1.7200   56.5850 C.ar      1 ZX5902      0.0000 
      4 CAF        27.7250    0.3490   56.6390 C.ar      1 ZX5902      0.0000 
      5 CAH        27.3380   -0.3310   55.4900 C.ar      1 ZX5902      0.0000 
      6 CAS        27.1690    0.3640   54.2980 C.ar      1 ZX5902      0.0000 
      7 NAP        26.7730   -0.0220   53.0880 N.pl3     1 ZX5902      0.0000 
      8 CAJ        26.7070    1.0350   52.2820 C.2       1 ZX5902      0.0000 
      9 CAR        27.0550    2.1320   52.9500 C.2       1 ZX5902      0.0000 
     10 CAL        26.9400    3.5450   52.3730 C.3       1 ZX5902      0.0000 
     11 CAK        26.7100    4.6530   53.4040 C.3       1 ZX5902      0.0000 
     12 CAQ        25.6740    4.3450   54.4910 C.2       1 ZX5902      0.0000 
     13 OAB        24.5200    4.0120   54.2280 O.2       1 ZX5902      0.0000 
     14 NAN        26.1480    4.5370   55.7190 N.am      1 ZX5902      0.0000 
     15 CAM        25.4070    4.3380   56.9700 C.3       1 ZX5902      0.0000 
     16 CAV        26.3570    4.8290   58.0610 C.3       1 ZX5902      0.0000 
     17 NAO        26.3480    6.2990   58.0900 N.4       1 ZX5902      0.0000 
     18 CAU        27.3980    6.8000   58.9930 C.3       1 ZX5902      0.0000 
     19 CAA        27.4130    8.3290   58.9560 C.3       1 ZX5902      0.0000 
     20 CAW        27.1990    6.2800   60.4210 C.3       1 ZX5902      0.0000 
     21 OAC        26.0380    6.8280   61.0510 O.3       1 ZX5902      0.0000 
     22 CAY        27.0810    4.7570   60.4390 C.3       1 ZX5902      0.0000 
     23 OAE        26.7450    4.3780   61.7740 O.3       1 ZX5902      0.0000 
     24 CAX        26.0160    4.2760   59.4470 C.3       1 ZX5902      0.0000 
     25 OAD        25.9800    2.8440   59.4020 O.3       1 ZX5902      0.0000 
     26 H          27.9578    3.4261   55.3559 H         1 ZX5902      0.0000 
     27 H          28.2461    2.2248   57.4338 H         1 ZX5902      0.0000 
     28 H          27.8428   -0.1582   57.5234 H         1 ZX5902      0.0000 
     29 H          27.1772   -1.3454   55.5217 H         1 ZX5902      0.0000 
     30 H          26.5621   -0.9438   52.8294 H         1 ZX5902      0.0000 
     31 H          26.4417    1.0092   51.3376 H         1 ZX5902      0.0000 
     32 H          26.1106    3.5637   51.6397 H         1 ZX5902      0.0000 
     33 H          27.8624    3.7736   51.8048 H         1 ZX5902      0.0000 
     34 H          26.4015    5.5760   52.8717 H         1 ZX5902      0.0000 
     35 H          27.6770    4.8904   53.8930 H         1 ZX5902      0.0000 
     36 H          27.1555    4.8665   55.8639 H         1 ZX5902      0.0000 
     37 H          25.1960    3.3019   57.1362 H         1 ZX5902      0.0000 
     38 H          24.5172    4.9325   56.9935 H         1 ZX5902      0.0000 
     39 H          27.3656    4.4897   57.8033 H         1 ZX5902      0.0000 
     40 H          28.3713    6.4530   58.6414 H         1 ZX5902      0.0000 
     41 H          28.0966    6.5340   60.9964 H         1 ZX5902      0.0000 
     42 H          28.0345    4.3478   60.1489 H         1 ZX5902      0.0000 
     43 H          25.0692    4.6892   59.7458 H         1 ZX5902      0.0000 
     44 H          28.1142    8.7082   59.5598 H         1 ZX5902      0.0000 
     45 H          27.5985    8.6765   58.0368 H         1 ZX5902      0.0000 
     46 H          26.5372    8.7161   59.2444 H         1 ZX5902      0.0000 
     47 H          25.8343    6.2042   61.8055 H         1 ZX5902      0.0000 
     48 H          27.6151    4.3675   62.2667 H         1 ZX5902      0.0000 
     49 H          26.2151    2.6089   58.4589 H         1 ZX5902      0.0000 
@<TRIPOS>BOND
     1    2    1 ar   
     2    6    1 ar   
     3    9    1 1    
     4    3    2 ar   
     5   26    2 1    
     6    4    3 ar   
     7   27    3 1    
     8    5    4 ar   
     9   28    4 1    
    10    6    5 ar   
    11   29    5 1    
    12    7    6 1    
    13    8    7 1    
    14   30    7 1    
    15    9    8 2    
    16   31    8 1    
    17   10    9 1    
    18   11   10 1    
    19   32   10 1    
    20   33   10 1    
    21   12   11 1    
    22   34   11 1    
    23   35   11 1    
    24   13   12 2    
    25   14   12 am   
    26   15   14 1    
    27   36   14 1    
    28   16   15 1    
    29   37   15 1    
    30   38   15 1    
    31   17   16 1    
    32   24   16 1    
    33   39   16 1    
    34   18   17 1    
    35   19   18 1    
    36   20   18 1    
    37   40   18 1    
    38   44   19 1    
    39   45   19 1    
    40   46   19 1    
    41   21   20 1    
    42   22   20 1    
    43   41   20 1    
    44   47   21 1    
    45   23   22 1    
    46   24   22 1    
    47   42   22 1    
    48   48   23 1    
    49   25   24 1    
    50   43   24 1    
    51   49   25 1    
@<TRIPOS>SUBSTRUCTURE
     1 ZX5902      1 GROUP   
@<TRIPOS>SET

