#    Name: 4djy_0KR_2_INTS_M
#    Modification time : Tue Mar 25 09:46:59 2014

@<TRIPOS>MOLECULE
4djy_0KR_2_INTS_M
   60     0     9     0     0
SMALL
NO_CHARGES


@<TRIPOS>ATOM
      1 O          21.0375   37.1545   56.7410 O.2       1 ALC1        0.0000 
      2 O          20.7900   35.8460   56.9090 O.2       7 ALL1        0.0000 
      3 O          21.2850   38.4630   56.5730 O.2       4 ALP1        0.0000 
      4 OD1        20.2655   37.5470   58.8125 O.co2     2 ASC3        0.0000 
      5 OD1        20.6180   35.4120   58.1580 O.co2     8 ASL3        0.0000 
      6 OD1        20.1620   38.8900   58.4200 O.co2     5 ASP3        0.0000 
      7 OD1        20.9515   36.9375   57.3655 O.co2     2 ASC3        0.0000 
      8 OD1        21.2850   38.4630   56.5730 O.co2     5 ASP3        0.0000 
      9 OD1        20.0135   36.0160   60.5405 O.co2     2 ASC3        0.0000 
     10 OD1        19.6580   35.8280   61.8760 O.co2     5 ASP3        0.0000 
     11 CA         19.8265   32.7930   50.8975 C.3       3 GLC5        0.0000 
     12 CA         19.5330   34.2490   52.5870 C.3       9 GLL5        0.0000 
     13 CA         20.1200   31.3370   49.2080 C.3       6 GLP5        0.0000 
     14 CA         19.7165   36.3590   51.9945 C.3       3 GLC5        0.0000 
     15 CA         19.9000   38.4690   51.4020 C.3       6 GLP5        0.0000 
     16 CA         21.5730   36.3220   53.2455 C.3       3 GLC5        0.0000 
     17 CA         20.4720   34.4270   53.5900 C.3       9 GLL5        0.0000 
     18 CA         22.6740   38.2170   52.9010 C.3       6 GLP5        0.0000 
     19 O          20.2655   37.5470   58.8125 O.2       1 ALC1        0.0000 
     20 O          20.3690   36.2040   59.2050 O.2       7 ALL1        0.0000 
     21 O          20.1620   38.8900   58.4200 O.2       4 ALP1        0.0000 
     22 O          20.0135   36.0160   60.5405 O.2       1 ALC1        0.0000 
     23 O          19.6580   35.8280   61.8760 O.2       4 ALP1        0.0000 
     24 CA         23.0455   36.9830   54.1360 C.3       3 GLC5        0.0000 
     25 CA         23.4170   35.7490   55.3710 C.3       9 GLL5        0.0000 
     26 CA         16.4280   36.3420   57.1540 C.3       3 GLC5        0.0000 
     27 CA         15.7410   35.0500   55.5580 C.3       9 GLL5        0.0000 
     28 CA         17.1150   37.6340   58.7500 C.3       6 GLP5        0.0000 
     29 CA         12.0150   34.3070   54.3400 C.3       3 GLC5        0.0000 
     30 CA         13.6640   33.9080   55.2350 C.3       9 GLL5        0.0000 
     31 CA         10.3660   34.7060   53.4450 C.3       6 GLP5        0.0000 
     32 CA         14.9060   32.7915   52.2855 C.3       3 GLC5        0.0000 
     33 CA         15.4740   33.2790   53.9820 C.3       9 GLL5        0.0000 
     34 CA         14.3380   32.3040   50.5890 C.3       6 GLP5        0.0000 
     35 CA         10.4415   36.7060   58.6190 C.3       3 GLC5        0.0000 
     36 CA         12.4680   37.1220   58.7510 C.3       9 GLL5        0.0000 
     37 CA          8.4150   36.2900   58.4870 C.3       6 GLP5        0.0000 
     38 CA         12.1780   37.5035   56.8100 C.3       3 GLC5        0.0000 
     39 CA         11.8880   37.8850   54.8690 C.3       6 GLP5        0.0000 
     40 CA         11.1870   38.9270   58.3790 C.3       3 GLC5        0.0000 
     41 CA          9.9060   40.7320   58.0070 C.3       6 GLP5        0.0000 
     42 CA         11.5060   37.2595   60.2225 C.3       3 GLC5        0.0000 
     43 CA         10.5440   37.3970   61.6940 C.3       6 GLP5        0.0000 
     44 CA         17.8327   36.3035   53.9684 C.3       3 GLC5        0.0000 
     45 CA         17.7490   34.3330   54.2250 C.3       9 GLL5        0.0000 
     46 CA         17.4590   38.2970   54.1230 C.3       6 GLP5        0.0000 
     47 CA         24.1028   36.9248   56.6318 C.3       3 GLC5        0.0000 
     48 CA         24.6060   38.5800   57.3510 C.3       6 GLP5        0.0000 
     49 CA         16.7407   36.4670   54.5950 C.3       3 GLC5        0.0000 
     50 CA         16.3040   34.2240   54.5760 C.3       9 GLL5        0.0000 
     51 CA         12.9595   36.1433   55.2188 C.3       3 GLC5        0.0000 
     52 CA         14.3980   34.8950   55.9020 C.3       9 GLL5        0.0000 
     53 CA         12.6965   36.9540   56.1047 C.3       3 GLC5        0.0000 
     54 CA         13.7950   35.7060   56.9280 C.3       9 GLL5        0.0000 
     55 CA         15.3100   36.8285   58.0452 C.3       3 GLC5        0.0000 
     56 CA         13.2150   36.3400   57.7530 C.3       9 GLL5        0.0000 
     57 CA         14.6345   35.3300   59.0358 C.3       3 GLC5        0.0000 
     58 CA         15.7640   34.6370   60.7310 C.3       6 GLP5        0.0000 
     59 CA         12.4597   35.1805   59.5035 C.3       3 GLC5        0.0000 
     60 CA         12.0780   33.6300   60.7550 C.3       6 GLP5        0.0000 
@<TRIPOS>BOND
@<TRIPOS>SUBSTRUCTURE
     1 ALC1        1 GROUP        1 X    ALC  0     ROOT ALC X 1
     2 ASC3        4 GROUP        1 X    ASC  0     **** ASC X 3
     3 GLC5       11 GROUP        1 X    GLC  0     **** GLC X 6
     4 ALP1        3 GROUP        1 Y    ALP  0     ROOT ALP Y 8
     5 ASP3        6 GROUP        1 Y    ASP  0     **** ASP Y 10
     6 GLP5       13 GROUP        1 Y    GLP  0     **** GLP Y 13
     7 ALL1        2 GROUP        1 Z    ALL  0     ROOT ALL Z 15
     8 ASL3        5 GROUP        1 Z    ASL  0     **** ASL Z 17
     9 GLL5       12 GROUP        1 Z    GLL  0     **** GLL Z 20
@<TRIPOS>SET

