#    Name: 4djy_0KR_2_ligand
#    Modification time : Tue Mar 25 09:46:59 2014

@<TRIPOS>MOLECULE
4djy_0KR_2_ligand
   47    50     1     0     0
SMALL
NO_CHARGES


@<TRIPOS>ATOM
      1 C1         21.1090   34.6360   56.0430 C.3       1 0KR501      0.0000 
      2 N1         20.7900   35.8460   56.9090 N.pl3     1 0KR501      0.0000 
      3 C2         20.6180   35.4120   58.1580 C.cat     1 0KR501      0.0000 
      4 N2         20.6360   33.9860   58.2620 N.am      1 0KR501      0.0000 
      5 C3         20.9410   33.4560   57.0220 C.2       1 0KR501      0.0000 
      6 C4         22.5880   34.5140   55.5700 C.3       1 0KR501      0.0000 
      7 O1         21.0420   32.2750   56.7450 O.2       1 0KR501      0.0000 
      8 C5         20.0700   34.5420   54.9180 C.ar      1 0KR501      0.0000 
      9 C6         18.7070   34.5130   55.2320 C.ar      1 0KR501      0.0000 
     10 C7         17.7490   34.3330   54.2250 C.ar      1 0KR501      0.0000 
     11 C8         18.1850   34.1970   52.8990 C.ar      1 0KR501      0.0000 
     12 C9         19.5330   34.2490   52.5870 C.ar      1 0KR501      0.0000 
     13 C10        20.4720   34.4270   53.5900 C.ar      1 0KR501      0.0000 
     14 N3         20.3690   36.2040   59.2050 N.pl3     1 0KR501      0.0000 
     15 C11        20.3870   33.1730   59.4580 C.3       1 0KR501      0.0000 
     16 C12        23.7820   34.7900   56.4540 C.3       1 0KR501      0.0000 
     17 C13        23.4170   35.7490   55.3710 C.3       1 0KR501      0.0000 
     18 C14        16.3040   34.2240   54.5760 C.ar      1 0KR501      0.0000 
     19 C15        15.7410   35.0500   55.5580 C.ar      1 0KR501      0.0000 
     20 C16        14.3980   34.8950   55.9020 C.ar      1 0KR501      0.0000 
     21 C17        13.6640   33.9080   55.2350 C.ar      1 0KR501      0.0000 
     22 C19        15.4740   33.2790   53.9820 C.ar      1 0KR501      0.0000 
     23 C21        13.7950   35.7060   56.9280 C.1       1 0KR501      0.0000 
     24 N5         14.1870   33.1070   54.3010 N.ar      1 0KR501      0.0000 
     25 C22        13.2150   36.3400   57.7530 C.1       1 0KR501      0.0000 
     26 C23        12.4680   37.1220   58.7510 C.3       1 0KR501      0.0000 
     27 H          20.7471   36.6979   56.5295 H         1 0KR501      0.0000 
     28 H          22.9019   33.8724   54.8807 H         1 0KR501      0.0000 
     29 H          18.4046   34.6245   56.2087 H         1 0KR501      0.0000 
     30 H          17.4859   34.0566   52.1516 H         1 0KR501      0.0000 
     31 H          19.8388   34.1552   51.6070 H         1 0KR501      0.0000 
     32 H          21.4750   34.4750   53.3547 H         1 0KR501      0.0000 
     33 H          20.2577   35.7457   60.0868 H         1 0KR501      0.0000 
     34 H          20.3163   37.1839   59.0128 H         1 0KR501      0.0000 
     35 H          24.5016   34.2485   56.1502 H         1 0KR501      0.0000 
     36 H          23.4605   35.1297   57.2814 H         1 0KR501      0.0000 
     37 H          22.9546   36.4857   55.7595 H         1 0KR501      0.0000 
     38 H          23.9958   35.6045   54.6283 H         1 0KR501      0.0000 
     39 H          16.3139   35.7617   56.0183 H         1 0KR501      0.0000 
     40 H          12.6431   33.8107   55.5022 H         1 0KR501      0.0000 
     41 H          15.9114   32.6651   53.2289 H         1 0KR501      0.0000 
     42 H          20.4607   32.1948   59.2641 H         1 0KR501      0.0000 
     43 H          21.0391   33.3770   60.1881 H         1 0KR501      0.0000 
     44 H          19.4721   33.3299   59.8299 H         1 0KR501      0.0000 
     45 H          12.9740   37.9344   59.0408 H         1 0KR501      0.0000 
     46 H          11.5885   37.4364   58.3939 H         1 0KR501      0.0000 
     47 H          12.2760   36.5872   59.5739 H         1 0KR501      0.0000 
@<TRIPOS>BOND
     1    2    1 1    
     2    5    1 1    
     3    6    1 1    
     4    8    1 1    
     5    3    2 ar   
     6   27    2 1    
     7    4    3 ar   
     8   14    3 ar   
     9    5    4 am   
    10   15    4 1    
    11    7    5 2    
    12   16    6 1    
    13   17    6 1    
    14   28    6 1    
    15    9    8 ar   
    16   13    8 ar   
    17   10    9 ar   
    18   29    9 1    
    19   11   10 ar   
    20   18   10 1    
    21   12   11 ar   
    22   30   11 1    
    23   13   12 ar   
    24   31   12 1    
    25   32   13 1    
    26   33   14 1    
    27   34   14 1    
    28   42   15 1    
    29   43   15 1    
    30   44   15 1    
    31   17   16 1    
    32   35   16 1    
    33   36   16 1    
    34   37   17 1    
    35   38   17 1    
    36   19   18 ar   
    37   22   18 ar   
    38   20   19 ar   
    39   39   19 1    
    40   21   20 ar   
    41   23   20 1    
    42   24   21 ar   
    43   40   21 1    
    44   24   22 ar   
    45   41   22 1    
    46   25   23 3    
    47   26   25 1    
    48   45   26 1    
    49   46   26 1    
    50   47   26 1    
@<TRIPOS>SUBSTRUCTURE
     1 0KR501      1 GROUP   
@<TRIPOS>SET

