#    Name: 1gl3_NDP_2_INTS_M
#    Modification time : Tue Mar 25 03:17:00 2014

@<TRIPOS>MOLECULE
1gl3_NDP_2_INTS_M
   68     0    12     0     0
SMALL
NO_CHARGES


@<TRIPOS>ATOM
      1 N          10.6340   51.3095   50.8320 N.am      2 SEC2        0.0000 
      2 N          11.9470   50.7850   50.0330 N.am     10 SEL2        0.0000 
      3 N           9.3210   51.8340   51.6310 N.am      6 SEP2        0.0000 
      4 N          11.8730   51.3695   48.7370 N.am      2 SEC2        0.0000 
      5 N          11.7990   51.9540   47.4410 N.am      6 SEP2        0.0000 
      6 CA         12.9370   53.6605   55.8435 C.3       4 GLC5        0.0000 
      7 CA         14.0580   52.0040   54.9500 C.3      12 GLL5        0.0000 
      8 CA         11.8160   55.3170   56.7370 C.3       8 GLP5        0.0000 
      9 CA         14.3170   54.9605   55.2580 C.3       4 GLC5        0.0000 
     10 CA         15.0650   53.1380   54.8080 C.3      12 GLL5        0.0000 
     11 CA         13.5690   56.7830   55.7080 C.3       8 GLP5        0.0000 
     12 N          16.3920   51.6555   56.4105 N.am      2 SEC2        0.0000 
     13 N          16.0420   53.0980   55.8720 N.am     10 SEL2        0.0000 
     14 N          16.7420   50.2130   56.9490 N.am      6 SEP2        0.0000 
     15 CA         12.8510   55.3610   49.3305 C.3       4 GLC5        0.0000 
     16 CA         14.0430   56.4710   50.4280 C.3      12 GLL5        0.0000 
     17 CA         11.6590   54.2510   48.2330 C.3       8 GLP5        0.0000 
     18 CA         12.1800   55.9535   53.6680 C.3       4 GLC5        0.0000 
     19 CA         12.2430   55.5590   51.6750 C.3      12 GLL5        0.0000 
     20 CA         12.1170   56.3480   55.6610 C.3       8 GLP5        0.0000 
     21 CA         11.4710   54.0350   52.5705 C.3       4 GLC5        0.0000 
     22 CA         10.6990   52.5110   53.4660 C.3       8 GLP5        0.0000 
     23 CA         11.9510   54.9050   49.9540 C.3       4 GLC5        0.0000 
     24 CA         14.0200   55.7485   53.8685 C.3       4 GLC5        0.0000 
     25 CA         14.4710   54.7140   52.0290 C.3      12 GLL5        0.0000 
     26 N           9.2595   48.9585   52.4430 N.am      2 SEC2        0.0000 
     27 N          10.7550   48.2030   52.2950 N.am     10 SEL2        0.0000 
     28 N           7.7640   49.7140   52.5910 N.am      6 SEP2        0.0000 
     29 CA         13.1980   41.8880   53.5305 C.3       4 GLC5        0.0000 
     30 CA         13.3840   43.4480   51.9570 C.3      12 GLL5        0.0000 
     31 CA         13.0120   40.3280   55.1040 C.3       8 GLP5        0.0000 
     32 CA          7.8560   42.4715   47.9290 C.3       4 GLC5        0.0000 
     33 CA          8.3220   44.0830   49.4000 C.3      12 GLL5        0.0000 
     34 CA          7.3900   40.8600   46.4580 C.3       8 GLP5        0.0000 
     35 N           6.0690   45.6575   46.7350 N.am      2 SEC2        0.0000 
     36 N           6.8690   45.3620   47.9250 N.am     10 SEL2        0.0000 
     37 N           5.2690   45.9530   45.5450 N.am      6 SEP2        0.0000 
     38 O           8.8790   47.0025   47.0935 O.2       1 ALC1        0.0000 
     39 O           8.9530   46.1470   48.2180 O.2       9 ALL1        0.0000 
     40 O           8.8050   47.8580   45.9690 O.2       5 ALP1        0.0000 
     41 CA          6.1090   43.3635   47.9325 C.3       4 GLC5        0.0000 
     42 CA          7.4130   43.0140   49.6200 C.3      12 GLL5        0.0000 
     43 CA          4.8050   43.7130   46.2450 C.3       8 GLP5        0.0000 
     44 N          17.8940   53.7345   59.4890 N.am      2 SEC2        0.0000 
     45 N          17.3610   53.9770   57.8400 N.am     10 SEL2        0.0000 
     46 N          18.4270   53.4920   61.1380 N.am      6 SEP2        0.0000 
     47 N          18.4715   52.9930   58.2750 N.am      2 SEC2        0.0000 
     48 N          19.5820   52.0090   58.7100 N.am      6 SEP2        0.0000 
     49 NZ         16.1305   56.3785   55.1740 N.4       3 LYC4        0.0000 
     50 NZ         16.3590   55.5710   56.1560 N.4      11 LYL4        0.0000 
     51 NZ         14.9290   58.0840   54.1230 N.4       7 LYP4        0.0000 
     52 N          16.1305   56.3785   55.1740 N.am      2 SEC2        0.0000 
     53 N          16.3590   55.5710   56.1560 N.am     10 SEL2        0.0000 
     54 N          15.9020   57.1860   54.1920 N.am      6 SEP2        0.0000 
     55 N          17.4640   56.1495   56.7275 N.am      2 SEC2        0.0000 
     56 N          18.5690   56.7280   57.2990 N.am      6 SEP2        0.0000 
     57 CA         12.3818   51.8790   53.9057 C.3       4 GLC5        0.0000 
     58 CA         14.4311   44.4526   53.8090 C.3       4 GLC5        0.0000 
     59 CA         12.6880   45.8070   52.7910 C.3      12 GLL5        0.0000 
     60 CA         15.8530   44.6590   55.1990 C.3       8 GLP5        0.0000 
     61 CA          8.3622   45.3543   51.0905 C.3       4 GLC5        0.0000 
     62 CA          9.5330   44.0420   50.1200 C.3      12 GLL5        0.0000 
     63 CA          7.7970   46.6460   52.4210 C.3       8 GLP5        0.0000 
     64 CA          6.6768   41.5517   48.6845 C.3       4 GLC5        0.0000 
     65 CA          5.8120   40.6240   47.3020 C.3       8 GLP5        0.0000 
     66 CA          6.2764   43.4304   51.0570 C.3       4 GLC5        0.0000 
     67 CA          7.6700   41.9450   50.5140 C.3      12 GLL5        0.0000 
     68 CA          4.7840   44.1140   52.1020 C.3       8 GLP5        0.0000 
@<TRIPOS>BOND
@<TRIPOS>SUBSTRUCTURE
     1 ALC1       38 GROUP        1 X    ALC  0     ROOT ALC X 1
     2 SEC2        1 GROUP        1 X    SEC  0     **** SEC X 2
     3 LYC4       49 GROUP        1 X    LYC  0     **** LYC X 4
     4 GLC5        6 GROUP        1 X    GLC  0     **** GLC X 6
     5 ALP1       40 GROUP        1 Y    ALP  0     ROOT ALP Y 8
     6 SEP2        3 GROUP        1 Y    SEP  0     **** SEP Y 9
     7 LYP4       51 GROUP        1 Y    LYP  0     **** LYP Y 11
     8 GLP5        8 GROUP        1 Y    GLP  0     **** GLP Y 13
     9 ALL1       39 GROUP        1 Z    ALL  0     ROOT ALL Z 15
    10 SEL2        2 GROUP        1 Z    SEL  0     **** SEL Z 16
    11 LYL4       50 GROUP        1 Z    LYL  0     **** LYL Z 18
    12 GLL5        7 GROUP        1 Z    GLL  0     **** GLL Z 20
@<TRIPOS>SET

