#    Name: 1gl3_NDP_2_ligand
#    Modification time : Tue Mar 25 03:17:00 2014

@<TRIPOS>MOLECULE
1gl3_NDP_2_ligand
   74    78     1     0     0
SMALL
NO_CHARGES


@<TRIPOS>ATOM
      1 PA         13.0650   50.2060   50.8110 P.3       1 NDP601      0.0000 
      2 O1A        11.9470   50.7850   50.0330 O.co2     1 NDP601      0.0000 
      3 O2A        14.4510   50.4750   50.3510 O.co2     1 NDP601      0.0000 
      4 O5B        12.8390   50.6380   52.3530 O.3       1 NDP601      0.0000 
      5 C5B        13.5370   50.0300   53.4620 C.3       1 NDP601      0.0000 
      6 C4B        14.6050   50.9500   54.0200 C.3       1 NDP601      0.0000 
      7 O4B        15.1630   51.6740   52.9180 O.3       1 NDP601      0.0000 
      8 C3B        14.0580   52.0040   54.9500 C.3       1 NDP601      0.0000 
      9 O3B        13.8290   51.5110   56.2720 O.3       1 NDP601      0.0000 
     10 C2B        15.0650   53.1380   54.8080 C.3       1 NDP601      0.0000 
     11 O2B        16.0420   53.0980   55.8720 O.3       1 NDP601      0.0000 
     12 C1B        15.7050   52.9120   53.4240 C.3       1 NDP601      0.0000 
     13 N9A        15.5740   54.0520   52.4420 N.pl3     1 NDP601      0.0000 
     14 C8A        16.6240   54.5720   51.7730 C.2       1 NDP601      0.0000 
     15 N7A        16.2540   55.5400   50.9230 N.2       1 NDP601      0.0000 
     16 C5A        14.9390   55.6110   51.0800 C.ar      1 NDP601      0.0000 
     17 C6A        14.0430   56.4710   50.4280 C.ar      1 NDP601      0.0000 
     18 N6A        14.4810   57.3610   49.5410 N.pl3     1 NDP601      0.0000 
     19 N1A        12.7110   56.4140   50.7450 N.ar      1 NDP601      0.0000 
     20 C2A        12.2430   55.5590   51.6750 C.ar      1 NDP601      0.0000 
     21 N3A        13.1210   54.7350   52.2910 N.ar      1 NDP601      0.0000 
     22 C4A        14.4710   54.7140   52.0290 C.ar      1 NDP601      0.0000 
     23 O3         12.7980   48.6190   50.8930 O.3       1 NDP601      0.0000 
     24 PN         11.5130   47.6720   51.1330 P.3       1 NDP601      0.0000 
     25 O1N        10.8240   47.4820   49.8320 O.co2     1 NDP601      0.0000 
     26 O2N        10.7550   48.2030   52.2950 O.co2     1 NDP601      0.0000 
     27 O5D        12.2060   46.2520   51.4960 O.3       1 NDP601      0.0000 
     28 C5D        12.6880   45.8070   52.7910 C.3       1 NDP601      0.0000 
     29 C4D        12.5810   44.2820   52.9710 C.3       1 NDP601      0.0000 
     30 O4D        11.1990   43.8950   52.8150 O.3       1 NDP601      0.0000 
     31 C3D        13.3840   43.4480   51.9570 C.3       1 NDP601      0.0000 
     32 O3D        14.1250   42.3850   52.5730 O.3       1 NDP601      0.0000 
     33 C2D        12.3510   42.9450   50.9520 C.3       1 NDP601      0.0000 
     34 O2D        12.6430   41.7260   50.2430 O.3       1 NDP601      0.0000 
     35 C1D        11.0810   42.8700   51.8060 C.3       1 NDP601      0.0000 
     36 N1N         9.8090   42.9640   51.0310 N.pl3     1 NDP601      0.0000 
     37 C2N         9.5330   44.0420   50.1200 C.2       1 NDP601      0.0000 
     38 C3N         8.3220   44.0830   49.4000 C.2       1 NDP601      0.0000 
     39 C7N         7.9830   45.2540   48.4450 C.2       1 NDP601      0.0000 
     40 O7N         6.8690   45.3620   47.9250 O.2       1 NDP601      0.0000 
     41 N7N         8.9530   46.1470   48.2180 N.am      1 NDP601      0.0000 
     42 C4N         7.4130   43.0140   49.6200 C.3       1 NDP601      0.0000 
     43 C5N         7.6700   41.9450   50.5140 C.2       1 NDP601      0.0000 
     44 C6N         8.8750   41.9120   51.2330 C.2       1 NDP601      0.0000 
     45 P2B        16.1580   54.3030   56.9660 P.3       1 NDP601      0.0000 
     46 O1X        14.8600   54.3000   57.7620 O.co2     1 NDP601      0.0000 
     47 O2X        17.3610   53.9770   57.8400 O.co2     1 NDP601      0.0000 
     48 O3X        16.3590   55.5710   56.1560 O.co2     1 NDP601      0.0000 
     49 H          14.0219   49.0884   53.1548 H         1 NDP601      0.0000 
     50 H          12.8391   49.7800   54.2784 H         1 NDP601      0.0000 
     51 H          15.3530   50.3849   54.5155 H         1 NDP601      0.0000 
     52 H          13.1264   52.3612   54.4783 H         1 NDP601      0.0000 
     53 H          14.5255   54.0581   54.7724 H         1 NDP601      0.0000 
     54 H          16.7924   52.7476   53.6204 H         1 NDP601      0.0000 
     55 H          17.5601   54.2695   51.8991 H         1 NDP601      0.0000 
     56 H          15.4602   57.3363   49.3396 H         1 NDP601      0.0000 
     57 H          13.7915   57.9743   49.1558 H         1 NDP601      0.0000 
     58 H          11.2403   55.5315   51.9132 H         1 NDP601      0.0000 
     59 H          12.1182   46.2800   53.6101 H         1 NDP601      0.0000 
     60 H          13.7462   46.0864   52.9377 H         1 NDP601      0.0000 
     61 H          12.9177   44.0230   53.9651 H         1 NDP601      0.0000 
     62 H          14.0307   44.1438   51.4257 H         1 NDP601      0.0000 
     63 H          12.1712   43.7906   50.2566 H         1 NDP601      0.0000 
     64 H          11.1147   41.8829   52.3137 H         1 NDP601      0.0000 
     65 H          10.2302   44.7801   50.0021 H         1 NDP601      0.0000 
     66 H           8.7185   46.9068   47.6115 H         1 NDP601      0.0000 
     67 H           9.8255   45.9746   48.6751 H         1 NDP601      0.0000 
     68 H           7.1337   42.5587   48.5806 H         1 NDP601      0.0000 
     69 H           6.3745   43.4745   49.8940 H         1 NDP601      0.0000 
     70 H           6.9778   41.2048   50.6304 H         1 NDP601      0.0000 
     71 H           9.0805   41.1643   51.8785 H         1 NDP601      0.0000 
     72 H          14.1070   52.2564   56.8778 H         1 NDP601      0.0000 
     73 H          14.0989   41.6348   51.9123 H         1 NDP601      0.0000 
     74 H          11.7496   41.3317   50.0275 H         1 NDP601      0.0000 
@<TRIPOS>BOND
     1    2    1 ar   
     2    3    1 ar   
     3    4    1 1    
     4   23    1 1    
     5    5    4 1    
     6    6    5 1    
     7   49    5 1    
     8   50    5 1    
     9    7    6 1    
    10    8    6 1    
    11   51    6 1    
    12   12    7 1    
    13    9    8 1    
    14   10    8 1    
    15   52    8 1    
    16   72    9 1    
    17   11   10 1    
    18   12   10 1    
    19   53   10 1    
    20   45   11 1    
    21   13   12 1    
    22   54   12 1    
    23   14   13 1    
    24   22   13 1    
    25   15   14 2    
    26   55   14 1    
    27   16   15 1    
    28   17   16 ar   
    29   22   16 ar   
    30   18   17 1    
    31   19   17 ar   
    32   56   18 1    
    33   57   18 1    
    34   20   19 ar   
    35   21   20 ar   
    36   58   20 1    
    37   22   21 ar   
    38   24   23 1    
    39   25   24 ar   
    40   26   24 ar   
    41   27   24 1    
    42   28   27 1    
    43   29   28 1    
    44   59   28 1    
    45   60   28 1    
    46   30   29 1    
    47   31   29 1    
    48   61   29 1    
    49   35   30 1    
    50   32   31 1    
    51   33   31 1    
    52   62   31 1    
    53   73   32 1    
    54   34   33 1    
    55   35   33 1    
    56   63   33 1    
    57   74   34 1    
    58   36   35 1    
    59   64   35 1    
    60   37   36 1    
    61   44   36 1    
    62   38   37 2    
    63   65   37 1    
    64   39   38 1    
    65   42   38 1    
    66   40   39 2    
    67   41   39 am   
    68   66   41 1    
    69   67   41 1    
    70   43   42 1    
    71   68   42 1    
    72   69   42 1    
    73   44   43 2    
    74   70   43 1    
    75   71   44 1    
    76   46   45 ar   
    77   47   45 ar   
    78   48   45 ar   
@<TRIPOS>SUBSTRUCTURE
     1 NDP601      1 GROUP   
@<TRIPOS>SET

