#    Name: 4hej_14D_1_INTS_M
#    Modification time : Tue Mar 25 00:55:07 2014

@<TRIPOS>MOLECULE
4hej_14D_1_INTS_M
   68     0     9     0     0
SMALL
NO_CHARGES


@<TRIPOS>ATOM
      1 CA         13.3315   -2.0230    0.4820 C.3       3 GLC5        0.0000 
      2 CA         12.0210   -3.6210    1.0730 C.3       9 GLL5        0.0000 
      3 CA         14.6420   -0.4250   -0.1090 C.3       6 GLP5        0.0000 
      4 CA         10.8480   -4.9485    1.8350 C.3       3 GLC5        0.0000 
      5 CA          9.6750   -6.2760    2.5970 C.3       6 GLP5        0.0000 
      6 N          10.4950    2.3560   -0.6415 N.am      2 SEC2        0.0000 
      7 N          10.1830    1.5530    0.4900 N.am      8 SEL2        0.0000 
      8 N          10.8070    3.1590   -1.7730 N.am      5 SEP2        0.0000 
      9 O          10.8120    0.4030   -1.6150 O.2       1 ALC1        0.0000 
     10 O          10.9020   -0.3320   -0.4830 O.2       7 ALL1        0.0000 
     11 O          10.7220    1.1380   -2.7470 O.2       4 ALP1        0.0000 
     12 N          12.1965   -3.6270   -1.6700 N.am      2 SEC2        0.0000 
     13 N          11.8020   -2.1860   -1.4120 N.am      8 SEL2        0.0000 
     14 N          12.5910   -5.0680   -1.9280 N.am      5 SEP2        0.0000 
     15 N          11.6910   -2.1865   -2.7015 N.am      2 SEC2        0.0000 
     16 N          11.5800   -2.1870   -3.9910 N.am      5 SEP2        0.0000 
     17 CA          8.3935    1.2990    2.2595 C.3       3 GLC5        0.0000 
     18 CA         10.0680    0.4530    3.0050 C.3       9 GLL5        0.0000 
     19 CA          6.7190    2.1450    1.5140 C.3       6 GLP5        0.0000 
     20 CA          9.0925   -2.2795    3.8770 C.3       3 GLC5        0.0000 
     21 CA          9.1670   -0.3900    3.9170 C.3       9 GLL5        0.0000 
     22 CA          9.0180   -4.1690    3.8370 C.3       6 GLP5        0.0000 
     23 CA          7.4005    0.0205    3.3710 C.3       3 GLC5        0.0000 
     24 CA          5.6340    0.4310    2.8250 C.3       6 GLP5        0.0000 
     25 CA          7.4280    1.0570    3.9160 C.3       3 GLC5        0.0000 
     26 CA          8.6640    0.4130    5.1000 C.3       9 GLL5        0.0000 
     27 CA          6.1920    1.7010    2.7320 C.3       6 GLP5        0.0000 
     28 CA         19.1575   -0.9640    3.4185 C.3       3 GLC5        0.0000 
     29 CA         17.3530   -1.1050    2.3780 C.3       9 GLL5        0.0000 
     30 CA         20.9620   -0.8230    4.4590 C.3       6 GLP5        0.0000 
     31 CA         17.2945    1.9450    2.6635 C.3       3 GLC5        0.0000 
     32 CA         17.1860   -0.0580    3.2580 C.3       9 GLL5        0.0000 
     33 CA         17.4030    3.9480    2.0690 C.3       6 GLP5        0.0000 
     34 CA         16.5345   -0.7190    0.6245 C.3       3 GLC5        0.0000 
     35 CA         18.4270   -1.0130    1.3580 C.3       9 GLL5        0.0000 
     36 CA         17.2885   -1.1780   -1.3210 C.3       3 GLC5        0.0000 
     37 CA         17.9990   -1.3290    0.1160 C.3       9 GLL5        0.0000 
     38 CA         16.5780   -1.0270   -2.7580 C.3       6 GLP5        0.0000 
     39 CA         19.2020   -3.3310    3.2710 C.3       3 GLC5        0.0000 
     40 CA         19.4430   -1.8510    1.6600 C.3       9 GLL5        0.0000 
     41 CA         18.9610   -4.8110    4.8820 C.3       6 GLP5        0.0000 
     42 CA         20.2025   -1.3370    3.0595 C.3       3 GLC5        0.0000 
     43 CA         19.0025    1.7730    0.7235 C.3       3 GLC5        0.0000 
     44 CA         18.9860    0.2180    1.2090 C.3       9 GLL5        0.0000 
     45 CA         19.0190    3.3280    0.2380 C.3       6 GLP5        0.0000 
     46 CA         12.7270   -0.7995    1.2313 C.3       3 GLC5        0.0000 
     47 CA         11.4890   -2.2390    0.9260 C.3       9 GLL5        0.0000 
     48 CA         14.1850    0.2880    1.0160 C.3       6 GLP5        0.0000 
     49 CA         10.1435   -3.0280    2.6418 C.3       3 GLC5        0.0000 
     50 CA          9.8215   -3.0423    0.5811 C.3       3 GLC5        0.0000 
     51 CA         11.0490   -1.5350    1.9670 C.3       9 GLL5        0.0000 
     52 CA          8.2410   -3.8520   -0.3210 C.3       6 GLP5        0.0000 
     53 CA         12.1807    1.1975    2.1270 C.3       3 GLC5        0.0000 
     54 CA         13.7360    1.5860    0.8770 C.3       6 GLP5        0.0000 
     55 CA         15.9839    2.6024    6.4280 C.3       3 GLC5        0.0000 
     56 CA         15.0440    1.1660    5.8640 C.3       9 GLL5        0.0000 
     57 CA         17.4660    3.8160    6.9100 C.3       6 GLP5        0.0000 
     58 CA         18.3395   -0.2672    4.6535 C.3       3 GLC5        0.0000 
     59 CA         16.2060   -0.1230    4.2200 C.3       9 GLL5        0.0000 
     60 CA         19.9830   -0.4440    5.5680 C.3       6 GLP5        0.0000 
     61 CA         17.5065   -3.5353    3.9118 C.3       3 GLC5        0.0000 
     62 CA         16.5470   -2.2310    2.4610 C.3       9 GLL5        0.0000 
     63 CA         19.9892   -0.0472    2.3682 C.3       3 GLC5        0.0000 
     64 CA         21.2720    0.3030    3.4530 C.3       6 GLP5        0.0000 
     65 CA         19.2110   -2.6190    0.1422 C.3       3 GLC5        0.0000 
     66 CA         19.5940   -3.7270   -0.9140 C.3       6 GLP5        0.0000 
     67 CA         20.3225   -0.5102    0.0189 C.3       3 GLC5        0.0000 
     68 CA         21.7380   -0.3740   -1.1660 C.3       6 GLP5        0.0000 
@<TRIPOS>BOND
@<TRIPOS>SUBSTRUCTURE
     1 ALC1        9 GROUP        1 X    ALC  0     ROOT ALC X 1
     2 SEC2        6 GROUP        1 X    SEC  0     **** SEC X 2
     3 GLC5        1 GROUP        1 X    GLC  0     **** GLC X 6
     4 ALP1       11 GROUP        1 Y    ALP  0     ROOT ALP Y 8
     5 SEP2        8 GROUP        1 Y    SEP  0     **** SEP Y 9
     6 GLP5        3 GROUP        1 Y    GLP  0     **** GLP Y 13
     7 ALL1       10 GROUP        1 Z    ALL  0     ROOT ALL Z 15
     8 SEL2        7 GROUP        1 Z    SEL  0     **** SEL Z 16
     9 GLL5        2 GROUP        1 Z    GLL  0     **** GLL Z 20
@<TRIPOS>SET

