#    Name: 4hej_14D_1_ligand
#    Modification time : Tue Mar 25 00:55:07 2014

@<TRIPOS>MOLECULE
4hej_14D_1_ligand
   58    61     1     0     0
SMALL
NO_CHARGES


@<TRIPOS>ATOM
      1 C1         12.0210   -3.6210    1.0730 C.3       1 14D301      0.0000 
      2 C2         11.4890   -2.2390    0.9260 C.2       1 14D301      0.0000 
      3 C3         11.0490   -1.5350    1.9670 C.2       1 14D301      0.0000 
      4 N1         10.5530   -0.2600    1.8270 N.am      1 14D301      0.0000 
      5 C4         10.5260    0.3780    0.5950 C.2       1 14D301      0.0000 
      6 O1         10.1830    1.5530    0.4900 O.2       1 14D301      0.0000 
      7 N2         10.9020   -0.3320   -0.4830 N.am      1 14D301      0.0000 
      8 C5         11.4090   -1.5830   -0.4140 C.2       1 14D301      0.0000 
      9 O2         11.8020   -2.1860   -1.4120 O.2       1 14D301      0.0000 
     10 C6         10.0680    0.4530    3.0050 C.3       1 14D301      0.0000 
     11 C7          9.1670   -0.3900    3.9170 C.3       1 14D301      0.0000 
     12 C8          8.6640    0.4130    5.1000 C.3       1 14D301      0.0000 
     13 C9          9.8360    0.9590    5.8930 C.3       1 14D301      0.0000 
     14 N3         10.6450    1.8310    4.9800 N.4       1 14D301      0.0000 
     15 C10        11.1830    1.1650    3.7490 C.3       1 14D301      0.0000 
     16 C11        11.6260    2.7310    5.6730 C.3       1 14D301      0.0000 
     17 C12        12.8470    2.0370    6.1960 C.ar      1 14D301      0.0000 
     18 C13        12.8810    1.5860    7.5050 C.ar      1 14D301      0.0000 
     19 C14        13.9880    0.9260    7.9930 C.ar      1 14D301      0.0000 
     20 C15        15.0850    0.7290    7.1740 C.ar      1 14D301      0.0000 
     21 C16        15.0440    1.1660    5.8640 C.ar      1 14D301      0.0000 
     22 C17        13.9390    1.8300    5.3730 C.ar      1 14D301      0.0000 
     23 O3         16.1520    0.9850    5.0490 O.3       1 14D301      0.0000 
     24 C18        16.2060   -0.1230    4.2200 C.ar      1 14D301      0.0000 
     25 C19        15.3830   -1.2350    4.3050 C.ar      1 14D301      0.0000 
     26 C20        15.5570   -2.2880    3.4220 C.ar      1 14D301      0.0000 
     27 C21        16.5470   -2.2310    2.4610 C.ar      1 14D301      0.0000 
     28 C22        17.3530   -1.1050    2.3780 C.ar      1 14D301      0.0000 
     29 C23        17.1860   -0.0580    3.2580 C.ar      1 14D301      0.0000 
     30 C24        18.4270   -1.0130    1.3580 C.3       1 14D301      0.0000 
     31 F1         17.9990   -1.3290    0.1160 F         1 14D301      0.0000 
     32 F2         19.4430   -1.8510    1.6600 F         1 14D301      0.0000 
     33 F3         18.9860    0.2180    1.2090 F         1 14D301      0.0000 
     34 H          11.0737   -1.9509    2.9357 H         1 14D301      0.0000 
     35 H          10.7956    0.1136   -1.4465 H         1 14D301      0.0000 
     36 H           9.3885    1.2945    2.6200 H         1 14D301      0.0000 
     37 H           9.7349   -1.2522    4.2746 H         1 14D301      0.0000 
     38 H           8.3177   -0.7547    3.3344 H         1 14D301      0.0000 
     39 H           8.0599   -0.2256    5.7409 H         1 14D301      0.0000 
     40 H           8.0524    1.2391    4.7435 H         1 14D301      0.0000 
     41 H          10.4398    0.1371    6.2517 H         1 14D301      0.0000 
     42 H           9.4653    1.5387    6.7269 H         1 14D301      0.0000 
     43 H           9.8419    2.5950    4.5469 H         1 14D301      0.0000 
     44 H          11.6319    1.9104    3.0911 H         1 14D301      0.0000 
     45 H          11.9482    0.4385    4.0257 H         1 14D301      0.0000 
     46 H          11.1130    3.2461    6.5134 H         1 14D301      0.0000 
     47 H          11.9374    3.5346    4.9716 H         1 14D301      0.0000 
     48 H          12.0641    1.7480    8.1215 H         1 14D301      0.0000 
     49 H          14.0006    0.5802    8.9627 H         1 14D301      0.0000 
     50 H          15.9244    0.2608    7.5380 H         1 14D301      0.0000 
     51 H          13.9258    2.1691    4.4026 H         1 14D301      0.0000 
     52 H          14.6462   -1.2778    5.0209 H         1 14D301      0.0000 
     53 H          14.9445   -3.1160    3.4840 H         1 14D301      0.0000 
     54 H          16.6877   -3.0139    1.8120 H         1 14D301      0.0000 
     55 H          17.7956    0.7720    3.1940 H         1 14D301      0.0000 
     56 H          12.3090   -4.0034    0.1950 H         1 14D301      0.0000 
     57 H          12.8150   -3.6507    1.6802 H         1 14D301      0.0000 
     58 H          11.3373   -4.2436    1.4538 H         1 14D301      0.0000 
@<TRIPOS>BOND
     1    2    1 1    
     2   56    1 1    
     3   57    1 1    
     4   58    1 1    
     5    3    2 2    
     6    8    2 1    
     7    4    3 1    
     8   34    3 1    
     9    5    4 am   
    10   10    4 1    
    11    6    5 2    
    12    7    5 am   
    13    8    7 am   
    14   35    7 1    
    15    9    8 2    
    16   11   10 1    
    17   15   10 1    
    18   36   10 1    
    19   12   11 1    
    20   37   11 1    
    21   38   11 1    
    22   13   12 1    
    23   39   12 1    
    24   40   12 1    
    25   14   13 1    
    26   41   13 1    
    27   42   13 1    
    28   15   14 1    
    29   16   14 1    
    30   43   14 1    
    31   44   15 1    
    32   45   15 1    
    33   17   16 1    
    34   46   16 1    
    35   47   16 1    
    36   18   17 ar   
    37   22   17 ar   
    38   19   18 ar   
    39   48   18 1    
    40   20   19 ar   
    41   49   19 1    
    42   21   20 ar   
    43   50   20 1    
    44   22   21 ar   
    45   23   21 1    
    46   51   22 1    
    47   24   23 1    
    48   25   24 ar   
    49   29   24 ar   
    50   26   25 ar   
    51   52   25 1    
    52   27   26 ar   
    53   53   26 1    
    54   28   27 ar   
    55   54   27 1    
    56   29   28 ar   
    57   30   28 1    
    58   55   29 1    
    59   31   30 1    
    60   32   30 1    
    61   33   30 1    
@<TRIPOS>SUBSTRUCTURE
     1 14D301      1 GROUP   
@<TRIPOS>SET

