#    Name: 1mwm_ADP_1_INTS_M
#    Modification time : Tue Mar 25 12:10:46 2014

@<TRIPOS>MOLECULE
1mwm_ADP_1_INTS_M
   48     0    15     0     0
SMALL
NO_CHARGES


@<TRIPOS>ATOM
      1 NZ         34.5885  -14.2805  111.6935 N.4       3 LYC4        0.0000 
      2 NZ         35.7520  -14.8010  113.0060 N.4      13 LYL4        0.0000 
      3 NZ         33.4250  -13.7600  110.3810 N.4       8 LYP4        0.0000 
      4 N          37.1395  -14.9455  113.2720 N.am      2 SEC2        0.0000 
      5 N          35.7520  -14.8010  113.0060 N.am     12 SEL2        0.0000 
      6 N          38.5270  -15.0900  113.5380 N.am      7 SEP2        0.0000 
      7 N          36.5510  -15.3630  112.0545 N.am      2 SEC2        0.0000 
      8 N          37.3500  -15.9250  111.1030 N.am      7 SEP2        0.0000 
      9 NZ         33.5140  -13.6635  111.8135 N.4       3 LYC4        0.0000 
     10 NZ         33.6030  -13.5670  113.2460 N.4      13 LYL4        0.0000 
     11 Zn         32.8595  -12.7835  113.6280 Zn        4 ZIC7        0.0000 
     12 Zn         33.6030  -13.5670  113.2460 Zn       14 ZIL7        0.0000 
     13 Zn         32.1160  -12.0000  114.0100 Zn        9 ZIP7        0.0000 
     14 N          34.1495  -15.7365  116.0370 N.am      2 SEC2        0.0000 
     15 N          34.6160  -14.7150  115.2650 N.am     12 SEL2        0.0000 
     16 N          33.6830  -16.7580  116.8090 N.am      7 SEP2        0.0000 
     17 N          30.0215  -16.5765  113.6680 N.am      2 SEC2        0.0000 
     18 N          31.3380  -15.9880  113.9530 N.am     12 SEL2        0.0000 
     19 N          28.7050  -17.1650  113.3830 N.am      7 SEP2        0.0000 
     20 NZ         32.7410  -14.9315  110.9385 N.4       3 LYC4        0.0000 
     21 NZ         32.0570  -16.1030  111.4960 N.4      13 LYL4        0.0000 
     22 N          32.7410  -14.9315  110.9385 N.am      2 SEC2        0.0000 
     23 N          32.0570  -16.1030  111.4960 N.am     12 SEL2        0.0000 
     24 N          33.4250  -13.7600  110.3810 N.am      7 SEP2        0.0000 
     25 N          33.6915  -16.4155  115.1325 N.am      2 SEC2        0.0000 
     26 N          33.7000  -16.0730  113.4560 N.am     12 SEL2        0.0000 
     27 CA         31.0110  -18.6725  112.6000 C.3       5 GLC5        0.0000 
     28 CA         33.0670  -18.8070  112.2210 C.3      15 GLL5        0.0000 
     29 CA         28.9550  -18.5380  112.9790 C.3      10 GLP5        0.0000 
     30 O          33.2620  -23.8775  111.0390 O.2       1 ALC1        0.0000 
     31 O          33.3540  -22.7890  110.3820 O.2      11 ALL1        0.0000 
     32 O          33.1700  -24.9660  111.6960 O.2       6 ALP1        0.0000 
     33 CA         27.7720  -25.0010  110.9165 C.3       5 GLC5        0.0000 
     34 CA         27.2320  -23.0870  111.4600 C.3      15 GLL5        0.0000 
     35 CA         28.3120  -26.9150  110.3730 C.3      10 GLP5        0.0000 
     36 CA         25.2885  -23.1085  112.5855 C.3       5 GLC5        0.0000 
     37 CA         23.3450  -23.1300  113.7110 C.3      10 GLP5        0.0000 
     38 CA         28.9050  -25.8830  114.3650 C.3       5 GLC5        0.0000 
     39 CA         28.4040  -24.2220  113.1800 C.3      15 GLL5        0.0000 
     40 CA         29.4060  -27.5440  115.5500 C.3      10 GLP5        0.0000 
     41 CA         28.3580  -25.5685  111.7765 C.3       5 GLC5        0.0000 
     42 CA         27.4880  -24.7120  114.8195 C.3       5 GLC5        0.0000 
     43 CA         26.5720  -25.2020  116.4590 C.3      10 GLP5        0.0000 
     44 CA         35.4363  -19.4490  112.8098 C.3       5 GLC5        0.0000 
     45 CA         33.3650  -20.1290  112.8170 C.3      15 GLL5        0.0000 
     46 CA         37.1830  -18.6630  113.4210 C.3      10 GLP5        0.0000 
     47 CA         28.9715  -20.5080  112.2675 C.3       5 GLC5        0.0000 
     48 CA         29.5400  -22.6300  111.9540 C.3      15 GLL5        0.0000 
@<TRIPOS>BOND
@<TRIPOS>SUBSTRUCTURE
     1 ALC1       30 GROUP        1 X    ALC  0     ROOT ALC X 1
     2 SEC2        4 GROUP        1 X    SEC  0     **** SEC X 2
     3 LYC4        1 GROUP        1 X    LYC  0     **** LYC X 4
     4 ZIC7       11 GROUP        1 X    ZIC  0     **** ZIC X 5
     5 GLC5       27 GROUP        1 X    GLC  0     **** GLC X 6
     6 ALP1       32 GROUP        1 Y    ALP  0     ROOT ALP Y 8
     7 SEP2        6 GROUP        1 Y    SEP  0     **** SEP Y 9
     8 LYP4        3 GROUP        1 Y    LYP  0     **** LYP Y 11
     9 ZIP7       13 GROUP        1 Y    ZIP  0     **** ZIP Y 12
    10 GLP5       29 GROUP        1 Y    GLP  0     **** GLP Y 13
    11 ALL1       31 GROUP        1 Z    ALL  0     ROOT ALL Z 15
    12 SEL2        5 GROUP        1 Z    SEL  0     **** SEL Z 16
    13 LYL4        2 GROUP        1 Z    LYL  0     **** LYL Z 18
    14 ZIL7       12 GROUP        1 Z    ZIL  0     **** ZIL Z 19
    15 GLL5       28 GROUP        1 Z    GLL  0     **** GLL Z 20
@<TRIPOS>SET

