#    Name: 1mwm_ADP_1_ligand
#    Modification time : Tue Mar 25 12:10:46 2014

@<TRIPOS>MOLECULE
1mwm_ADP_1_ligand
   39    41     1     0     0
SMALL
NO_CHARGES


@<TRIPOS>ATOM
      1 PB         34.4300  -14.7040  113.6450 P.3       1 ADP500      0.0000 
      2 O1B        35.7520  -14.8010  113.0060 O.co2     1 ADP500      0.0000 
      3 O2B        33.6030  -13.5670  113.2460 O.co2     1 ADP500      0.0000 
      4 O3B        34.6160  -14.7150  115.2650 O.co2     1 ADP500      0.0000 
      5 PA         32.2620  -16.4890  112.9220 P.3       1 ADP500      0.0000 
      6 O1A        31.3380  -15.9880  113.9530 O.co2     1 ADP500      0.0000 
      7 O2A        32.0570  -16.1030  111.4960 O.co2     1 ADP500      0.0000 
      8 O3A        33.7000  -16.0730  113.4560 O.3       1 ADP500      0.0000 
      9 O5'        32.3120  -18.0240  113.0850 O.3       1 ADP500      0.0000 
     10 C5'        33.0670  -18.8070  112.2210 C.3       1 ADP500      0.0000 
     11 C4'        33.3650  -20.1290  112.8170 C.3       1 ADP500      0.0000 
     12 O4'        32.1210  -20.8530  113.1070 O.3       1 ADP500      0.0000 
     13 C3'        34.1630  -21.0020  111.8780 C.3       1 ADP500      0.0000 
     14 O3'        34.9800  -21.8840  112.6680 O.3       1 ADP500      0.0000 
     15 C2'        33.0510  -21.6240  111.0950 C.3       1 ADP500      0.0000 
     16 O2'        33.3540  -22.7890  110.3820 O.3       1 ADP500      0.0000 
     17 C1'        31.9200  -21.8510  112.1020 C.3       1 ADP500      0.0000 
     18 N9         30.5510  -21.8260  111.5160 N.pl3     1 ADP500      0.0000 
     19 C8         29.9960  -21.0860  110.4910 C.2       1 ADP500      0.0000 
     20 N7         28.7370  -21.3440  110.2370 N.2       1 ADP500      0.0000 
     21 C5         28.4360  -22.3260  111.1580 C.ar      1 ADP500      0.0000 
     22 C6         27.2320  -23.0870  111.4600 C.ar      1 ADP500      0.0000 
     23 N6         26.1090  -22.9000  110.7830 N.pl3     1 ADP500      0.0000 
     24 N1         27.2580  -24.0230  112.4770 N.ar      1 ADP500      0.0000 
     25 C2         28.4040  -24.2220  113.1800 C.ar      1 ADP500      0.0000 
     26 N3         29.6010  -23.5820  113.0000 N.ar      1 ADP500      0.0000 
     27 C4         29.5400  -22.6300  111.9540 C.ar      1 ADP500      0.0000 
     28 H          34.0323  -18.3203  111.9606 H         1 ADP500      0.0000 
     29 H          32.5449  -18.9743  111.2536 H         1 ADP500      0.0000 
     30 H          33.9277  -20.0101  113.7290 H         1 ADP500      0.0000 
     31 H          34.7169  -20.3488  111.2483 H         1 ADP500      0.0000 
     32 H          32.6589  -20.8267  110.4166 H         1 ADP500      0.0000 
     33 H          32.1083  -22.8418  112.5504 H         1 ADP500      0.0000 
     34 H          30.5513  -20.4025  109.9938 H         1 ADP500      0.0000 
     35 H          26.1366  -22.1996  110.0698 H         1 ADP500      0.0000 
     36 H          25.3353  -23.4761  111.0464 H         1 ADP500      0.0000 
     37 H          28.3708  -24.9668  113.9689 H         1 ADP500      0.0000 
     38 H          35.7497  -22.1231  112.0761 H         1 ADP500      0.0000 
     39 H          33.2613  -23.5305  111.0465 H         1 ADP500      0.0000 
@<TRIPOS>BOND
     1    2    1 ar   
     2    3    1 ar   
     3    4    1 ar   
     4    8    1 1    
     5    6    5 ar   
     6    7    5 ar   
     7    8    5 1    
     8    9    5 1    
     9   10    9 1    
    10   11   10 1    
    11   28   10 1    
    12   29   10 1    
    13   12   11 1    
    14   13   11 1    
    15   30   11 1    
    16   17   12 1    
    17   14   13 1    
    18   15   13 1    
    19   31   13 1    
    20   38   14 1    
    21   16   15 1    
    22   17   15 1    
    23   32   15 1    
    24   39   16 1    
    25   18   17 1    
    26   33   17 1    
    27   19   18 1    
    28   27   18 1    
    29   20   19 2    
    30   34   19 1    
    31   21   20 1    
    32   22   21 ar   
    33   27   21 ar   
    34   23   22 1    
    35   24   22 ar   
    36   35   23 1    
    37   36   23 1    
    38   25   24 ar   
    39   26   25 ar   
    40   37   25 1    
    41   27   26 ar   
@<TRIPOS>SUBSTRUCTURE
     1 ADP500      1 GROUP   
@<TRIPOS>SET

