#    Name: 1uxp_NAP_2_INTS_M
#    Modification time : Tue Mar 25 07:14:13 2014

@<TRIPOS>MOLECULE
1uxp_NAP_2_INTS_M
  111     0    12     0     0
SMALL
NO_CHARGES


@<TRIPOS>ATOM
      1 N         -21.3910   60.0205   11.7445 N.am      2 SEC2        0.0000 
      2 N         -20.1580   59.5830   12.1170 N.am     10 SEL2        0.0000 
      3 N         -22.6240   60.4580   11.3720 N.am      6 SEP2        0.0000 
      4 N         -20.8760   58.6665   11.5425 N.am      2 SEC2        0.0000 
      5 N         -21.5940   57.7500   10.9680 N.am      6 SEP2        0.0000 
      6 CA        -20.6155   60.5425   14.9500 C.3       4 GLC5        0.0000 
      7 CA        -18.7440   60.7360   14.4270 C.3      12 GLL5        0.0000 
      8 CA        -22.4870   60.3490   15.4730 C.3       8 GLP5        0.0000 
      9 CA        -19.7750   59.0465   15.1650 C.3       4 GLC5        0.0000 
     10 CA        -20.8060   57.3570   15.9030 C.3       8 GLP5        0.0000 
     11 CA        -20.1620   61.0655   16.1735 C.3       4 GLC5        0.0000 
     12 CA        -18.3930   61.6020   15.6020 C.3      12 GLL5        0.0000 
     13 CA        -21.9310   60.5290   16.7450 C.3       8 GLP5        0.0000 
     14 CA        -15.2380   63.0010   15.6515 C.3       4 GLC5        0.0000 
     15 CA        -16.8710   61.7790   15.6100 C.3      12 GLL5        0.0000 
     16 CA        -13.6050   64.2230   15.6930 C.3       8 GLP5        0.0000 
     17 N         -15.5310   62.3110   17.7405 N.am      2 SEC2        0.0000 
     18 N         -16.5380   62.8010   16.5770 N.am     10 SEL2        0.0000 
     19 N         -14.5240   61.8210   18.9040 N.am      6 SEP2        0.0000 
     20 O         -16.9065   63.8750   16.1830 O.2       1 ALC1        0.0000 
     21 O         -16.5380   62.8010   16.5770 O.2       9 ALL1        0.0000 
     22 O         -17.2750   64.9490   15.7890 O.2       5 ALP1        0.0000 
     23 N         -14.7950   61.1525   17.7150 N.am      2 SEC2        0.0000 
     24 N         -15.0660   60.4840   16.5260 N.am     10 SEL2        0.0000 
     25 CA        -18.5275   61.2880   18.0475 C.3       4 GLC5        0.0000 
     26 CA        -17.4660   60.0360   17.1110 C.3      12 GLL5        0.0000 
     27 CA        -19.5890   62.5400   18.9840 C.3       8 GLP5        0.0000 
     28 CA        -16.0100   60.6325   18.6935 C.3       4 GLC5        0.0000 
     29 CA        -14.5540   61.2290   20.2760 C.3       8 GLP5        0.0000 
     30 CA        -19.1360   58.6965   16.5070 C.3       4 GLC5        0.0000 
     31 CA        -16.9675   54.8455   19.7040 C.3       4 GLC5        0.0000 
     32 CA        -18.6190   55.7280   18.9660 C.3      12 GLL5        0.0000 
     33 CA        -15.3160   53.9630   20.4420 C.3       8 GLP5        0.0000 
     34 CA        -18.7130   54.7260   20.6155 C.3       4 GLC5        0.0000 
     35 CA        -18.8070   53.7240   22.2650 C.3       8 GLP5        0.0000 
     36 O         -18.7460   53.2570   19.6570 O.2       1 ALC1        0.0000 
     37 O         -18.5880   54.4140   18.7690 O.2       9 ALL1        0.0000 
     38 O         -18.9040   52.1000   20.5450 O.2       5 ALP1        0.0000 
     39 CA        -19.9735   59.4020   20.9160 C.3       4 GLC5        0.0000 
     40 CA        -19.2180   57.5770   20.3650 C.3      12 GLL5        0.0000 
     41 CA        -20.7290   61.2270   21.4670 C.3       8 GLP5        0.0000 
     42 CA        -17.8720   58.2435   21.4025 C.3       4 GLC5        0.0000 
     43 CA        -16.5260   58.9100   22.4400 C.3       8 GLP5        0.0000 
     44 CA        -19.0125   55.6505   21.3150 C.3       4 GLC5        0.0000 
     45 CA        -21.1085   57.6125   19.8175 C.3       4 GLC5        0.0000 
     46 CA        -22.9990   57.6480   19.2700 C.3       8 GLP5        0.0000 
     47 N         -16.5985   64.3390   11.2945 N.am      2 SEC2        0.0000 
     48 N         -16.8770   62.7040   11.0530 N.am     10 SEL2        0.0000 
     49 N         -16.3200   65.9740   11.5360 N.am      6 SEP2        0.0000 
     50 CA        -19.6760   64.8310   10.9925 C.3       4 GLC5        0.0000 
     51 CA        -20.0450   63.7710    9.7530 C.3      12 GLL5        0.0000 
     52 CA        -19.3070   65.8910   12.2320 C.3       8 GLP5        0.0000 
     53 CA        -22.1755   61.1750    9.8470 C.3       4 GLC5        0.0000 
     54 CA        -21.1530   62.8480    9.2680 C.3      12 GLL5        0.0000 
     55 CA        -23.1980   59.5020   10.4260 C.3       8 GLP5        0.0000 
     56 CA        -20.8420   64.2025    6.4940 C.3       4 GLC5        0.0000 
     57 CA        -21.4600   62.8540    7.7470 C.3      12 GLL5        0.0000 
     58 CA        -20.2240   65.5510    5.2410 C.3       8 GLP5        0.0000 
     59 O         -22.6430   61.2800    6.0705 O.2       1 ALC1        0.0000 
     60 O         -22.0110   61.5480    7.3390 O.2       9 ALL1        0.0000 
     61 O         -23.2750   61.0120    4.8020 O.2       5 ALP1        0.0000 
     62 CA        -21.8390   64.4490    5.9760 C.3       4 GLC5        0.0000 
     63 CA        -22.5250   63.9590    7.5720 C.3      12 GLL5        0.0000 
     64 CA        -21.1530   64.9390    4.3800 C.3       8 GLP5        0.0000 
     65 O         -23.3630   62.3270    5.6590 O.2       1 ALC1        0.0000 
     66 O         -23.4510   63.6420    6.5160 O.2       9 ALL1        0.0000 
     67 CA        -22.8495   63.2625   10.7800 C.3       4 GLC5        0.0000 
     68 CA        -23.1850   64.0010    8.9140 C.3      12 GLL5        0.0000 
     69 CA        -22.5140   62.5240   12.6460 C.3       8 GLP5        0.0000 
     70 CA        -25.1890   63.9630    8.3495 C.3       4 GLC5        0.0000 
     71 CA        -27.1930   63.9250    7.7850 C.3       8 GLP5        0.0000 
     72 CA        -26.0980   63.8795   10.4035 C.3       4 GLC5        0.0000 
     73 CA        -24.8610   65.5620    9.6500 C.3      12 GLL5        0.0000 
     74 CA        -27.3350   62.1970   11.1570 C.3       8 GLP5        0.0000 
     75 CA        -24.8620   66.3245    8.2590 C.3       4 GLC5        0.0000 
     76 CA        -24.8630   67.0870    6.8680 C.3       8 GLP5        0.0000 
     77 CA        -26.4300   66.6520   11.7965 C.3       4 GLC5        0.0000 
     78 CA        -25.2760   66.8400   10.0340 C.3      12 GLL5        0.0000 
     79 CA        -27.5840   66.4640   13.5590 C.3       8 GLP5        0.0000 
     80 CA        -21.3400   67.4630   11.2410 C.3       4 GLC5        0.0000 
     81 CA        -22.9130   67.7110    9.7750 C.3      12 GLL5        0.0000 
     82 CA        -19.7670   67.2150   12.7070 C.3       8 GLP5        0.0000 
     83 CA        -20.9160   66.1485   10.8085 C.3       4 GLC5        0.0000 
     84 CA        -22.5250   66.4060    9.3850 C.3      12 GLL5        0.0000 
     85 CA        -23.6940   66.7465    8.1265 C.3       4 GLC5        0.0000 
     86 N         -13.2875   62.4255   14.0905 N.am      2 SEC2        0.0000 
     87 N         -13.4180   61.1970   14.7800 N.am     10 SEL2        0.0000 
     88 N         -13.1570   63.6540   13.4010 N.am      6 SEP2        0.0000 
     89 N         -12.4875   62.0890   15.4655 N.am      2 SEC2        0.0000 
     90 N         -11.5570   62.9810   16.1510 N.am      6 SEP2        0.0000 
     91 NZ        -13.6330   60.7230   17.7830 N.4       3 LYC4        0.0000 
     92 NZ        -12.7420   59.6250   16.6620 N.4      11 LYL4        0.0000 
     93 NZ        -14.5240   61.8210   18.9040 N.4       7 LYP4        0.0000 
     94 N         -12.8850   58.6145   17.4765 N.am      2 SEC2        0.0000 
     95 N         -12.7420   59.6250   16.6620 N.am     10 SEL2        0.0000 
     96 N         -13.0280   57.6040   18.2910 N.am      6 SEP2        0.0000 
     97 CA        -18.6105   62.1153   17.2950 C.3       4 GLC5        0.0000 
     98 CA        -16.1748   57.0460   18.1372 C.3       4 GLC5        0.0000 
     99 CA        -18.1640   57.9970   18.2800 C.3      12 GLL5        0.0000 
    100 CA        -14.2120   56.7790   18.1180 C.3       8 GLP5        0.0000 
    101 CA        -19.5352   57.2224   17.1464 C.3       4 GLC5        0.0000 
    102 CA        -18.1110   56.6290   18.0330 C.3      12 GLL5        0.0000 
    103 CA        -21.5565   62.9168   11.0783 C.3       4 GLC5        0.0000 
    104 CA        -23.8590   65.5335    7.5555 C.3       4 GLC5        0.0000 
    105 CA        -24.2728   66.5775   11.4695 C.3       4 GLC5        0.0000 
    106 CA        -23.4770   66.9540   13.0970 C.3       8 GLP5        0.0000 
    107 CA        -26.1307   65.0630    8.8135 C.3       4 GLC5        0.0000 
    108 CA        -24.5834   68.1233    8.7389 C.3       4 GLC5        0.0000 
    109 CA        -25.3140   68.7000    7.5560 C.3       8 GLP5        0.0000 
    110 CA        -23.2725   67.0329   11.3795 C.3       4 GLC5        0.0000 
    111 CA        -24.3090   67.9240   10.1030 C.3      12 GLL5        0.0000 
@<TRIPOS>BOND
@<TRIPOS>SUBSTRUCTURE
     1 ALC1       20 GROUP        1 X    ALC  0     ROOT ALC X 1
     2 SEC2        1 GROUP        1 X    SEC  0     **** SEC X 2
     3 LYC4       91 GROUP        1 X    LYC  0     **** LYC X 4
     4 GLC5        6 GROUP        1 X    GLC  0     **** GLC X 6
     5 ALP1       22 GROUP        1 Y    ALP  0     ROOT ALP Y 8
     6 SEP2        3 GROUP        1 Y    SEP  0     **** SEP Y 9
     7 LYP4       93 GROUP        1 Y    LYP  0     **** LYP Y 11
     8 GLP5        8 GROUP        1 Y    GLP  0     **** GLP Y 13
     9 ALL1       21 GROUP        1 Z    ALL  0     ROOT ALL Z 15
    10 SEL2        2 GROUP        1 Z    SEL  0     **** SEL Z 16
    11 LYL4       92 GROUP        1 Z    LYL  0     **** LYL Z 18
    12 GLL5        7 GROUP        1 Z    GLL  0     **** GLL Z 20
@<TRIPOS>SET

