#    Name: 1uxp_NAP_2_ligand
#    Modification time : Tue Mar 25 07:14:13 2014

@<TRIPOS>MOLECULE
1uxp_NAP_2_ligand
   73    77     1     0     0
SMALL
NO_CHARGES


@<TRIPOS>ATOM
      1 PA        -18.8830   60.3370   12.0530 P.3       1 NAP1503     0.0000 
      2 O1A       -20.1580   59.5830   12.1170 O.co2     1 NAP1503     0.0000 
      3 O2A       -17.7010   59.4540   11.9670 O.co2     1 NAP1503     0.0000 
      4 O5B       -18.6130   61.3140   13.1870 O.3       1 NAP1503     0.0000 
      5 C5B       -18.7440   60.7360   14.4270 C.3       1 NAP1503     0.0000 
      6 C4B       -18.3930   61.6020   15.6020 C.3       1 NAP1503     0.0000 
      7 O4B       -18.6840   60.5920   16.5640 O.3       1 NAP1503     0.0000 
      8 C3B       -16.8710   61.7790   15.6100 C.3       1 NAP1503     0.0000 
      9 O3B       -16.5380   62.8010   16.5770 O.3       1 NAP1503     0.0000 
     10 C2B       -16.4130   60.4360   16.0610 C.3       1 NAP1503     0.0000 
     11 O2B       -15.0660   60.4840   16.5260 O.3       1 NAP1503     0.0000 
     12 C1B       -17.4660   60.0360   17.1110 C.3       1 NAP1503     0.0000 
     13 N9A       -17.6080   58.5840   17.2290 N.pl3     1 NAP1503     0.0000 
     14 C8A       -17.2270   57.5840   16.3530 C.2       1 NAP1503     0.0000 
     15 N7A       -17.5430   56.3660   16.8620 N.2       1 NAP1503     0.0000 
     16 C5A       -18.1110   56.6290   18.0330 C.ar      1 NAP1503     0.0000 
     17 C6A       -18.6190   55.7280   18.9660 C.ar      1 NAP1503     0.0000 
     18 N6A       -18.5880   54.4140   18.7690 N.pl3     1 NAP1503     0.0000 
     19 N1A       -19.1750   56.2340   20.1450 N.ar      1 NAP1503     0.0000 
     20 C2A       -19.2180   57.5770   20.3650 C.ar      1 NAP1503     0.0000 
     21 N3A       -18.7270   58.4440   19.4580 N.ar      1 NAP1503     0.0000 
     22 C4A       -18.1640   57.9970   18.2800 C.ar      1 NAP1503     0.0000 
     23 O3        -18.8500   61.1670   10.6730 O.3       1 NAP1503     0.0000 
     24 PN        -17.8900   62.2260   10.0620 P.3       1 NAP1503     0.0000 
     25 O1N       -17.2110   61.4620    8.9950 O.co2     1 NAP1503     0.0000 
     26 O2N       -16.8770   62.7040   11.0530 O.co2     1 NAP1503     0.0000 
     27 O5D       -18.7770   63.3600    9.3190 O.3       1 NAP1503     0.0000 
     28 C5D       -20.0450   63.7710    9.7530 C.3       1 NAP1503     0.0000 
     29 C4D       -21.1530   62.8480    9.2680 C.3       1 NAP1503     0.0000 
     30 O4D       -22.3280   63.3440    9.8780 O.3       1 NAP1503     0.0000 
     31 C3D       -21.4600   62.8540    7.7470 C.3       1 NAP1503     0.0000 
     32 O3D       -22.0110   61.5480    7.3390 O.3       1 NAP1503     0.0000 
     33 C2D       -22.5250   63.9590    7.5720 C.3       1 NAP1503     0.0000 
     34 O2D       -23.4510   63.6420    6.5160 O.3       1 NAP1503     0.0000 
     35 C1D       -23.1850   64.0010    8.9140 C.3       1 NAP1503     0.0000 
     36 N1N       -23.5050   65.3510    9.3270 N.pl3     1 NAP1503     0.0000 
     37 C2N       -24.8610   65.5620    9.6500 C.ar      1 NAP1503     0.0000 
     38 C3N       -25.2760   66.8400   10.0340 C.ar      1 NAP1503     0.0000 
     39 C7N       -26.7630   67.0890   10.3640 C.2       1 NAP1503     0.0000 
     40 O7N       -27.1440   68.2090   10.6880 O.2       1 NAP1503     0.0000 
     41 N7N       -27.5330   66.0270   10.2550 N.am      1 NAP1503     0.0000 
     42 C4N       -24.3090   67.9240   10.1030 C.ar      1 NAP1503     0.0000 
     43 C5N       -22.9130   67.7110    9.7750 C.ar      1 NAP1503     0.0000 
     44 C6N       -22.5250   66.4060    9.3850 C.ar      1 NAP1503     0.0000 
     45 P2B       -13.7770   60.0230   15.6210 P.3       1 NAP1503     0.0000 
     46 O1X       -14.2580   58.7610   14.8600 O.co2     1 NAP1503     0.0000 
     47 O2X       -13.4180   61.1970   14.7800 O.co2     1 NAP1503     0.0000 
     48 O3X       -12.7420   59.6250   16.6620 O.co2     1 NAP1503     0.0000 
     49 H         -18.1199   59.7947   14.5182 H         1 NAP1503     0.0000 
     50 H         -19.7976   60.3586   14.6038 H         1 NAP1503     0.0000 
     51 H         -18.9187   62.4119   15.6585 H         1 NAP1503     0.0000 
     52 H         -16.5528   61.9762   14.6443 H         1 NAP1503     0.0000 
     53 H         -16.5392   59.7575   15.2194 H         1 NAP1503     0.0000 
     54 H         -17.2211   60.5007   18.0227 H         1 NAP1503     0.0000 
     55 H         -16.7959   57.7449   15.4991 H         1 NAP1503     0.0000 
     56 H         -18.1473   54.1057   17.9259 H         1 NAP1503     0.0000 
     57 H         -19.0081   53.8522   19.4816 H         1 NAP1503     0.0000 
     58 H         -19.6399   57.9349   21.2537 H         1 NAP1503     0.0000 
     59 H         -20.2931   64.7954    9.4001 H         1 NAP1503     0.0000 
     60 H         -20.1122   63.8102   10.8618 H         1 NAP1503     0.0000 
     61 H         -20.9655   61.8499    9.5843 H         1 NAP1503     0.0000 
     62 H         -20.5959   63.1211    7.2259 H         1 NAP1503     0.0000 
     63 H         -22.0036   64.8765    7.4161 H         1 NAP1503     0.0000 
     64 H         -24.1212   63.4172    8.8311 H         1 NAP1503     0.0000 
     65 H         -25.5234   64.7915    9.6025 H         1 NAP1503     0.0000 
     66 H         -28.5023   66.1635   10.4593 H         1 NAP1503     0.0000 
     67 H         -27.0784   65.1805    9.9778 H         1 NAP1503     0.0000 
     68 H         -24.6204   68.8501   10.3875 H         1 NAP1503     0.0000 
     69 H         -22.2633   68.4644    9.8269 H         1 NAP1503     0.0000 
     70 H         -21.5598   66.2027    9.1443 H         1 NAP1503     0.0000 
     71 H         -16.4172   63.6358   16.0399 H         1 NAP1503     0.0000 
     72 H         -22.3580   61.6918    6.4122 H         1 NAP1503     0.0000 
     73 H         -23.1747   62.7370    6.1927 H         1 NAP1503     0.0000 
@<TRIPOS>BOND
     1    2    1 ar   
     2    3    1 ar   
     3    4    1 1    
     4   23    1 1    
     5    5    4 1    
     6    6    5 1    
     7   49    5 1    
     8   50    5 1    
     9    7    6 1    
    10    8    6 1    
    11   51    6 1    
    12   12    7 1    
    13    9    8 1    
    14   10    8 1    
    15   52    8 1    
    16   71    9 1    
    17   11   10 1    
    18   12   10 1    
    19   53   10 1    
    20   45   11 1    
    21   13   12 1    
    22   54   12 1    
    23   14   13 1    
    24   22   13 1    
    25   15   14 2    
    26   55   14 1    
    27   16   15 1    
    28   17   16 ar   
    29   22   16 ar   
    30   18   17 1    
    31   19   17 ar   
    32   56   18 1    
    33   57   18 1    
    34   20   19 ar   
    35   21   20 ar   
    36   58   20 1    
    37   22   21 ar   
    38   24   23 1    
    39   25   24 ar   
    40   26   24 ar   
    41   27   24 1    
    42   28   27 1    
    43   29   28 1    
    44   59   28 1    
    45   60   28 1    
    46   30   29 1    
    47   31   29 1    
    48   61   29 1    
    49   35   30 1    
    50   32   31 1    
    51   33   31 1    
    52   62   31 1    
    53   72   32 1    
    54   34   33 1    
    55   35   33 1    
    56   63   33 1    
    57   73   34 1    
    58   36   35 1    
    59   64   35 1    
    60   37   36 ar   
    61   44   36 ar   
    62   38   37 ar   
    63   65   37 1    
    64   39   38 1    
    65   42   38 ar   
    66   40   39 2    
    67   41   39 am   
    68   66   41 1    
    69   67   41 1    
    70   43   42 ar   
    71   68   42 1    
    72   44   43 ar   
    73   69   43 1    
    74   70   44 1    
    75   46   45 ar   
    76   47   45 ar   
    77   48   45 ar   
@<TRIPOS>SUBSTRUCTURE
     1 NAP1503     1 GROUP   
@<TRIPOS>SET

