#    Name: 3myg_EML_1_INTS_M
#    Modification time : Tue Mar 25 00:18:00 2014

@<TRIPOS>MOLECULE
3myg_EML_1_INTS_M
   61     0     9     0     0
SMALL
NO_CHARGES


@<TRIPOS>ATOM
      1 O          -2.8160   33.9315   78.1220 O.2       1 ALC1        0.0000 
      2 O          -2.8040   32.8750   78.9790 O.2       7 ALL1        0.0000 
      3 O          -2.8280   34.9880   77.2650 O.2       4 ALP1        0.0000 
      4 CA         -1.9305   31.0430   81.3375 C.3       3 GLC5        0.0000 
      5 CA         -2.4400   33.0800   81.7570 C.3       9 GLL5        0.0000 
      6 CA         -1.4210   29.0060   80.9180 C.3       6 GLP5        0.0000 
      7 CA         -4.6325   28.0580   78.4750 C.3       3 GLC5        0.0000 
      8 CA         -5.6390   29.7710   79.1770 C.3       9 GLL5        0.0000 
      9 CA         -3.6260   26.3450   77.7730 C.3       6 GLP5        0.0000 
     10 CA         -2.4725   30.3340   78.1960 C.3       3 GLC5        0.0000 
     11 CA         -4.2480   31.2730   77.8630 C.3       9 GLL5        0.0000 
     12 CA         -0.6970   29.3950   78.5290 C.3       6 GLP5        0.0000 
     13 CA         -4.7070   33.0760   76.6925 C.3       3 GLC5        0.0000 
     14 CA         -5.1660   34.8790   75.5220 C.3       6 GLP5        0.0000 
     15 CA         -5.6175   32.2970   78.1750 C.3       3 GLC5        0.0000 
     16 CA         -6.9870   33.3210   78.4870 C.3       6 GLP5        0.0000 
     17 N          -0.1375   33.2690   82.7925 N.am      2 SEC2        0.0000 
     18 N          -1.4840   34.1490   82.3750 N.am      8 SEL2        0.0000 
     19 N           1.2090   32.3890   83.2100 N.am      5 SEP2        0.0000 
     20 CA         -3.4165   31.4510   74.5530 C.3       3 GLC5        0.0000 
     21 CA         -4.8200   30.7450   75.8730 C.3       9 GLL5        0.0000 
     22 CA         -2.0130   32.1570   73.2330 C.3       6 GLP5        0.0000 
     23 CA         -4.9930   32.8120   75.6975 C.3       3 GLC5        0.0000 
     24 CA         -4.5165   28.1835   74.9115 C.3       3 GLC5        0.0000 
     25 CA         -6.6150   27.9960   75.2040 C.3       9 GLL5        0.0000 
     26 CA         -2.4180   28.3710   74.6190 C.3       6 GLP5        0.0000 
     27 CA         -7.2080   29.3305   74.2920 C.3       3 GLC5        0.0000 
     28 CA         -7.8010   30.6650   73.3800 C.3       6 GLP5        0.0000 
     29 CA         -6.5320   26.5785   73.9765 C.3       3 GLC5        0.0000 
     30 CA         -6.4490   25.1610   72.7490 C.3       6 GLP5        0.0000 
     31 CA         -0.7655   31.9225   80.2400 C.3       3 GLC5        0.0000 
     32 CA         -2.1950   33.4680   80.0870 C.3       9 GLL5        0.0000 
     33 CA          0.6640   30.3770   80.3930 C.3       6 GLP5        0.0000 
     34 CA         -1.0770   35.7700   78.4300 C.3       3 GLC5        0.0000 
     35 CA         -1.2640   34.5130   80.0930 C.3       9 GLL5        0.0000 
     36 CA         -0.8900   37.0270   76.7670 C.3       6 GLP5        0.0000 
     37 CA         -3.5030   37.0905   85.8375 C.3       3 GLC5        0.0000 
     38 CA         -1.7150   37.6350   84.6330 C.3       9 GLL5        0.0000 
     39 CA         -5.2910   36.5460   87.0420 C.3       6 GLP5        0.0000 
     40 CA         -2.5650   38.6070   86.3815 C.3       3 GLC5        0.0000 
     41 CA         -3.4150   39.5790   88.1300 C.3       6 GLP5        0.0000 
     42 CA         -2.4500   38.5565   80.7625 C.3       3 GLC5        0.0000 
     43 CA         -1.8400   38.0430   82.3480 C.3       9 GLL5        0.0000 
     44 CA         -3.0600   39.0700   79.1770 C.3       6 GLP5        0.0000 
     45 CA         -3.2695   36.9900   81.5360 C.3       3 GLC5        0.0000 
     46 CA         -4.6990   35.9370   80.7240 C.3       6 GLP5        0.0000 
     47 CA         -4.8610   28.3240   82.7605 C.3       3 GLC5        0.0000 
     48 CA         -5.5830   29.8750   81.6780 C.3       9 GLL5        0.0000 
     49 CA         -4.1390   26.7730   83.8430 C.3       6 GLP5        0.0000 
     50 CA         -6.1935   31.6900   79.1202 C.3       3 GLC5        0.0000 
     51 CA         -5.1610   30.3470   80.3300 C.3       9 GLL5        0.0000 
     52 CA         -3.3965   29.5585   80.9610 C.3       3 GLC5        0.0000 
     53 CA         -6.8620   31.4460   81.5120 C.3       3 GLC5        0.0000 
     54 CA         -8.3520   32.7810   82.0200 C.3       6 GLP5        0.0000 
     55 CA         -3.8035   29.3412   75.4580 C.3       3 GLC5        0.0000 
     56 CA         -5.5580   29.8780   76.7210 C.3       9 GLL5        0.0000 
     57 CA         -6.6264   30.3596   74.7920 C.3       3 GLC5        0.0000 
     58 CA         -6.8674   31.0216   76.5730 C.3       3 GLC5        0.0000 
     59 CA         -8.2830   31.9890   76.9420 C.3       6 GLP5        0.0000 
     60 CA         -4.9876   27.5124   76.8212 C.3       3 GLC5        0.0000 
     61 CA         -3.2449   34.9153   80.6158 C.3       3 GLC5        0.0000 
@<TRIPOS>BOND
@<TRIPOS>SUBSTRUCTURE
     1 ALC1        1 GROUP        1 X    ALC  0     ROOT ALC X 1
     2 SEC2       17 GROUP        1 X    SEC  0     **** SEC X 2
     3 GLC5        4 GROUP        1 X    GLC  0     **** GLC X 6
     4 ALP1        3 GROUP        1 Y    ALP  0     ROOT ALP Y 8
     5 SEP2       19 GROUP        1 Y    SEP  0     **** SEP Y 9
     6 GLP5        6 GROUP        1 Y    GLP  0     **** GLP Y 13
     7 ALL1        2 GROUP        1 Z    ALL  0     ROOT ALL Z 15
     8 SEL2       18 GROUP        1 Z    SEL  0     **** SEL Z 16
     9 GLL5        5 GROUP        1 Z    GLL  0     **** GLL Z 20
@<TRIPOS>SET

