#    Name: 3myg_EML_1_ligand
#    Modification time : Tue Mar 25 00:18:00 2014

@<TRIPOS>MOLECULE
3myg_EML_1_ligand
   58    61     1     0     0
SMALL
NO_CHARGES


@<TRIPOS>ATOM
      1 C1         -6.6090   28.8490   76.3490 C.2       1 EML1        0.0000 
      2 N1         -2.8040   32.8750   78.9790 N.pl3     1 EML1        0.0000 
      3 O1         -1.9810   36.2590   84.9640 O.3       1 EML1        0.0000 
      4 S1         -2.4400   33.0800   81.7570 S.3       1 EML1        0.0000 
      5 C2         -5.6390   29.7710   79.1770 C.2       1 EML1        0.0000 
      6 N2         -4.0140   31.6090   76.5240 N.pl3     1 EML1        0.0000 
      7 C3         -5.1610   30.3470   80.3300 C.2       1 EML1        0.0000 
      8 N3         -5.1630   30.2680   77.9830 N.pl3     1 EML1        0.0000 
      9 C4          1.1490   36.3440   84.0230 C.3       1 EML1        0.0000 
     10 N4         -7.7370   27.2780   75.2780 N.pl3     1 EML1        0.0000 
     11 C5         -3.7390   31.8510   79.0280 C.2       1 EML1        0.0000 
     12 N5         -8.4020   27.6320   76.3930 N.2       1 EML1        0.0000 
     13 C6         -4.2480   31.2730   77.8630 C.2       1 EML1        0.0000 
     14 N6         -1.4840   34.1490   82.3750 N.2       1 EML1        0.0000 
     15 C7         -5.5580   29.8780   76.7210 C.2       1 EML1        0.0000 
     16 N7         -4.2480   31.3870   80.2250 N.2       1 EML1        0.0000 
     17 C8         -7.7640   28.5980   77.0850 C.2       1 EML1        0.0000 
     18 N8         -0.0080   36.5430   83.1470 N.4       1 EML1        0.0000 
     19 C9         -4.8200   30.7450   75.8730 C.2       1 EML1        0.0000 
     20 C10        -6.6150   27.9960   75.2040 C.2       1 EML1        0.0000 
     21 C11        -2.1950   33.4680   80.0870 C.2       1 EML1        0.0000 
     22 C12        -1.2640   34.5130   80.0930 C.2       1 EML1        0.0000 
     23 C13         0.1020   35.9410   81.7610 C.3       1 EML1        0.0000 
     24 C14        -0.8930   34.8650   81.3910 C.2       1 EML1        0.0000 
     25 C15        -0.8090   37.7650   83.3870 C.3       1 EML1        0.0000 
     26 C16         1.9300   35.0620   84.0150 C.3       1 EML1        0.0000 
     27 C17        -1.7150   37.6350   84.6330 C.3       1 EML1        0.0000 
     28 C18        -1.8400   38.0430   82.3480 C.3       1 EML1        0.0000 
     29 C19        -5.5830   29.8750   81.6780 C.3       1 EML1        0.0000 
     30 C20         0.0680   39.0490   83.4020 C.3       1 EML1        0.0000 
     31 H          -2.5251   33.2419   78.0176 H         1 EML1        0.0000 
     32 H          -6.3118   29.0141   79.2021 H         1 EML1        0.0000 
     33 H          -3.4504   32.2563   76.2056 H         1 EML1        0.0000 
     34 H           0.8296   36.5435   85.1066 H         1 EML1        0.0000 
     35 H           1.8935   37.1995   83.8504 H         1 EML1        0.0000 
     36 H          -8.0307   26.6099   74.6376 H         1 EML1        0.0000 
     37 H          -8.0161   29.0194   77.8779 H         1 EML1        0.0000 
     38 H          -0.7897   35.6786   83.6669 H         1 EML1        0.0000 
     39 H          -4.9144   30.6916   74.8864 H         1 EML1        0.0000 
     40 H          -5.9334   27.9848   74.5557 H         1 EML1        0.0000 
     41 H          -0.9209   34.9380   79.2930 H         1 EML1        0.0000 
     42 H           1.1371   35.5312   81.6324 H         1 EML1        0.0000 
     43 H           0.0322   36.7677   81.0076 H         1 EML1        0.0000 
     44 H          -1.2108   38.1597   85.4607 H         1 EML1        0.0000 
     45 H          -2.6451   38.1867   84.4206 H         1 EML1        0.0000 
     46 H           2.3271   34.8746   83.1165 H         1 EML1        0.0000 
     47 H           2.6849   35.0829   84.6705 H         1 EML1        0.0000 
     48 H           1.3577   34.2770   84.2520 H         1 EML1        0.0000 
     49 H          -1.4323   38.1614   81.4426 H         1 EML1        0.0000 
     50 H          -2.5041   37.2989   82.2754 H         1 EML1        0.0000 
     51 H          -2.3546   38.8766   82.5491 H         1 EML1        0.0000 
     52 H          -5.3497   28.9137   81.8248 H         1 EML1        0.0000 
     53 H          -5.1443   30.3980   82.4088 H         1 EML1        0.0000 
     54 H          -6.5707   29.9602   81.8089 H         1 EML1        0.0000 
     55 H           0.7655   39.0140   84.1177 H         1 EML1        0.0000 
     56 H           0.5455   39.1827   82.5336 H         1 EML1        0.0000 
     57 H          -0.4787   39.8703   83.5654 H         1 EML1        0.0000 
     58 H          -2.8675   36.0592   84.5466 H         1 EML1        0.0000 
@<TRIPOS>BOND
     1   15    1 1    
     2   17    1 1    
     3   20    1 2    
     4   11    2 1    
     5   21    2 1    
     6   31    2 1    
     7   27    3 1    
     8   58    3 1    
     9   14    4 1    
    10   21    4 1    
    11    7    5 2    
    12    8    5 1    
    13   32    5 1    
    14   13    6 2    
    15   19    6 1    
    16   33    6 1    
    17   16    7 1    
    18   29    7 1    
    19   13    8 1    
    20   15    8 1    
    21   18    9 1    
    22   26    9 1    
    23   34    9 1    
    24   35    9 1    
    25   12   10 1    
    26   20   10 1    
    27   36   10 1    
    28   13   11 1    
    29   16   11 2    
    30   17   12 2    
    31   24   14 2    
    32   19   15 2    
    33   37   17 1    
    34   23   18 1    
    35   25   18 1    
    36   38   18 1    
    37   39   19 1    
    38   40   20 1    
    39   22   21 2    
    40   24   22 1    
    41   41   22 1    
    42   24   23 1    
    43   42   23 1    
    44   43   23 1    
    45   27   25 1    
    46   28   25 1    
    47   30   25 1    
    48   46   26 1    
    49   47   26 1    
    50   48   26 1    
    51   44   27 1    
    52   45   27 1    
    53   49   28 1    
    54   50   28 1    
    55   51   28 1    
    56   52   29 1    
    57   53   29 1    
    58   54   29 1    
    59   55   30 1    
    60   56   30 1    
    61   57   30 1    
@<TRIPOS>SUBSTRUCTURE
     1 EML1        1 GROUP   
@<TRIPOS>SET

