#    Name: 1hdc_CBO_2_INTS_M
#    Modification time : Tue Mar 25 05:21:32 2014

@<TRIPOS>MOLECULE
1hdc_CBO_2_INTS_M
   76     0     6     0     0
SMALL
NO_CHARGES


@<TRIPOS>ATOM
      1 CA         11.8985  -18.7025   -1.6745 C.3       2 GLC5        0.0000 
      2 CA         10.4530  -18.1050   -0.1730 C.3       6 GLL5        0.0000 
      3 CA         13.3440  -19.3000   -3.1760 C.3       4 GLP5        0.0000 
      4 CA          5.5250  -18.4965   -1.9125 C.3       2 GLC5        0.0000 
      5 CA          7.4360  -18.4220   -2.7350 C.3       6 GLL5        0.0000 
      6 CA          3.6140  -18.5710   -1.0900 C.3       4 GLP5        0.0000 
      7 CA          6.0645  -18.7675   -5.5760 C.3       2 GLC5        0.0000 
      8 CA          7.2020  -19.4500   -3.8490 C.3       6 GLL5        0.0000 
      9 CA          4.9270  -18.0850   -7.3030 C.3       4 GLP5        0.0000 
     10 CA          5.8735  -19.8975   -6.5685 C.3       2 GLC5        0.0000 
     11 CA          6.8200  -21.7100   -5.8340 C.3       6 GLL5        0.0000 
     12 CA          5.9605  -22.4285   -8.4880 C.3       2 GLC5        0.0000 
     13 CA          6.4570  -22.9040   -6.7120 C.3       6 GLL5        0.0000 
     14 CA          5.4640  -21.9530  -10.2640 C.3       4 GLP5        0.0000 
     15 CA          7.4990  -21.0925    1.5845 C.3       2 GLC5        0.0000 
     16 CA          7.2030  -19.9520   -0.0080 C.3       6 GLL5        0.0000 
     17 CA          7.7950  -22.2330    3.1770 C.3       4 GLP5        0.0000 
     18 CA          5.4085  -19.2615   -0.5490 C.3       2 GLC5        0.0000 
     19 CA          6.5815  -18.4930    1.3270 C.3       2 GLC5        0.0000 
     20 CA          5.9600  -17.0340    2.6620 C.3       4 GLP5        0.0000 
     21 CA          5.3165  -24.4185   -8.8230 C.3       2 GLC5        0.0000 
     22 CA          6.0620  -25.3840   -7.0190 C.3       6 GLL5        0.0000 
     23 CA          4.5710  -23.4530  -10.6270 C.3       4 GLP5        0.0000 
     24 CA          8.4275  -15.0750    1.2890 C.3       2 GLC5        0.0000 
     25 CA          8.2270  -16.7670   -0.1260 C.3       6 GLL5        0.0000 
     26 CA          8.6280  -13.3830    2.7040 C.3       4 GLP5        0.0000 
     27 CA          6.3895  -15.6445    0.4060 C.3       2 GLC5        0.0000 
     28 CA          4.5520  -14.5220    0.9380 C.3       4 GLP5        0.0000 
     29 CA          6.6470  -16.3395   -1.6205 C.3       2 GLC5        0.0000 
     30 CA          5.0670  -15.9120   -3.1150 C.3       4 GLP5        0.0000 
     31 CA          7.0935  -16.9005    1.2680 C.3       2 GLC5        0.0000 
     32 CA         11.2220  -17.3610   -3.1415 C.3       2 GLC5        0.0000 
     33 CA          9.9060  -16.4700   -1.9900 C.3       6 GLL5        0.0000 
     34 CA         12.5380  -18.2520   -4.2930 C.3       4 GLP5        0.0000 
     35 CA          9.5200  -15.2420   -3.1270 C.3       2 GLC5        0.0000 
     36 CA          9.1340  -14.0140   -4.2640 C.3       4 GLP5        0.0000 
     37 CA          4.7590  -22.8790   -2.1140 C.3       2 GLC5        0.0000 
     38 CA          5.5810  -21.3630   -2.6090 C.3       6 GLL5        0.0000 
     39 CA          3.9370  -24.3950   -1.6190 C.3       4 GLP5        0.0000 
     40 CA          4.5975  -19.9670   -1.8495 C.3       2 GLC5        0.0000 
     41 CA         10.4335  -23.1610   -5.4390 C.3       2 GLC5        0.0000 
     42 CA          9.2050  -21.8340   -4.8050 C.3       6 GLL5        0.0000 
     43 CA         11.6620  -24.4880   -6.0730 C.3       4 GLP5        0.0000 
     44 CA          4.2965  -24.3065   -3.5115 C.3       2 GLC5        0.0000 
     45 CA          4.6560  -24.2180   -5.4040 C.3       6 GLL5        0.0000 
     46 CA         14.5505  -15.5975    1.1095 C.3       2 GLC5        0.0000 
     47 CA         12.4510  -15.7780    1.7710 C.3       6 GLL5        0.0000 
     48 CA         16.6500  -15.4170    0.4480 C.3       4 GLP5        0.0000 
     49 CA         10.0510  -14.5465    2.8510 C.3       2 GLC5        0.0000 
     50 CA         11.4740  -15.7100    2.9980 C.3       6 GLL5        0.0000 
     51 N           7.5240  -22.3610    0.8060 N.am      1 SEC2        0.0000 
     52 N           7.7870  -23.0020   -0.3540 N.am      5 SEL2        0.0000 
     53 N           7.2610  -21.7200    1.9660 N.am      3 SEP2        0.0000 
     54 N          14.1910  -16.7410   -0.6470 N.am      1 SEC2        0.0000 
     55 N          13.0620  -17.6180    0.2610 N.am      5 SEL2        0.0000 
     56 N          15.3200  -15.8640   -1.5550 N.am      3 SEP2        0.0000 
     57 N           9.1790  -16.9500    3.9265 N.am      1 SEC2        0.0000 
     58 N          10.2940  -17.4590    4.3120 N.am      5 SEL2        0.0000 
     59 N           8.0640  -16.4410    3.5410 N.am      3 SEP2        0.0000 
     60 CA          8.8513  -21.0235    1.8682 C.3       2 GLC5        0.0000 
     61 CA         10.2100  -19.2040    0.8970 C.3       6 GLL5        0.0000 
     62 CA         10.4767  -21.4545    1.1047 C.3       2 GLC5        0.0000 
     63 CA          9.6050  -20.4240    0.2220 C.3       6 GLL5        0.0000 
     64 CA         11.0460  -23.0950    1.6500 C.3       4 GLP5        0.0000 
     65 CA         11.9733  -20.4100    0.1467 C.3       2 GLC5        0.0000 
     66 CA         14.0390  -21.0060   -0.2660 C.3       4 GLP5        0.0000 
     67 CA          6.1930  -17.4240   -3.2035 C.3       2 GLC5        0.0000 
     68 CA          5.8308  -23.9872   -2.4270 C.3       2 GLC5        0.0000 
     69 CA          7.5580  -23.4470   -3.8960 C.3       6 GLL5        0.0000 
     70 CA          3.9544  -23.2120   -6.6070 C.3       2 GLC5        0.0000 
     71 CA          6.0740  -24.2560   -5.9520 C.3       6 GLL5        0.0000 
     72 CA          2.4480  -22.5250   -7.3460 C.3       4 GLP5        0.0000 
     73 CA         12.3008  -13.8655    3.1718 C.3       2 GLC5        0.0000 
     74 CA         12.6390  -11.9870    3.9590 C.3       4 GLP5        0.0000 
     75 CA         10.3126  -25.5012   -6.1232 C.3       2 GLC5        0.0000 
     76 CA          8.5020  -25.2990   -5.2870 C.3       6 GLL5        0.0000 
@<TRIPOS>BOND
@<TRIPOS>SUBSTRUCTURE
     1 SEC2       51 GROUP        1 X    SEC  0     ROOT SEC X 2
     2 GLC5        1 GROUP        1 X    GLC  0     **** GLC X 6
     3 SEP2       53 GROUP        1 Y    SEP  0     ROOT SEP Y 9
     4 GLP5        3 GROUP        1 Y    GLP  0     **** GLP Y 13
     5 SEL2       52 GROUP        1 Z    SEL  0     ROOT SEL Z 16
     6 GLL5        2 GROUP        1 Z    GLL  0     **** GLL Z 20
@<TRIPOS>SET

