#    Name: 1hdc_CBO_2_ligand
#    Modification time : Tue Mar 25 05:21:33 2014

@<TRIPOS>MOLECULE
1hdc_CBO_2_ligand
   89    93     1     0     0
SMALL
NO_CHARGES


@<TRIPOS>ATOM
      1 C1          9.6050  -20.4240    0.2220 C.3       1 CBO301      0.0000 
      2 C2         10.2100  -19.2040    0.8970 C.3       1 CBO301      0.0000 
      3 C3         10.4530  -18.1050   -0.1730 C.3       1 CBO301      0.0000 
      4 C4          9.3120  -17.5280   -1.0110 C.3       1 CBO301      0.0000 
      5 C5          8.6710  -18.7580   -1.8050 C.3       1 CBO301      0.0000 
      6 C6          7.4360  -18.4220   -2.7350 C.3       1 CBO301      0.0000 
      7 C7          7.2020  -19.4500   -3.8490 C.3       1 CBO301      0.0000 
      8 C8          7.1370  -21.0070   -3.2980 C.3       1 CBO301      0.0000 
      9 C9          8.1350  -21.2680   -2.0740 C.3       1 CBO301      0.0000 
     10 C10         8.4130  -20.0930   -0.9510 C.3       1 CBO301      0.0000 
     11 C11         7.9450  -22.6970   -1.5640 C.2       1 CBO301      0.0000 
     12 C12         7.8910  -23.7120   -2.5740 C.2       1 CBO301      0.0000 
     13 C13         7.5580  -23.4470   -3.8960 C.2       1 CBO301      0.0000 
     14 C14         7.6820  -22.0200   -4.4510 C.3       1 CBO301      0.0000 
     15 C15         6.8200  -21.7100   -5.8340 C.3       1 CBO301      0.0000 
     16 C16         6.4570  -22.9040   -6.7120 C.3       1 CBO301      0.0000 
     17 C17         6.0740  -24.2560   -5.9520 C.3       1 CBO301      0.0000 
     18 C18         7.1540  -24.6300   -4.8040 C.3       1 CBO301      0.0000 
     19 C19         7.2030  -19.9520   -0.0080 C.3       1 CBO301      0.0000 
     20 C20         8.5020  -25.2990   -5.2870 C.3       1 CBO301      0.0000 
     21 C21         8.2230  -26.4790   -6.2170 C.3       1 CBO301      0.0000 
     22 C22         7.4290  -25.9220   -7.4270 C.3       1 CBO301      0.0000 
     23 C23         6.0620  -25.3840   -7.0190 C.3       1 CBO301      0.0000 
     24 C24         8.2270  -16.7670   -0.1260 C.3       1 CBO301      0.0000 
     25 C25         9.9060  -16.4700   -1.9900 C.3       1 CBO301      0.0000 
     26 C26         5.5810  -21.3630   -2.6090 C.3       1 CBO301      0.0000 
     27 C27         9.2050  -21.8340   -4.8050 C.3       1 CBO301      0.0000 
     28 C28         4.6560  -24.2180   -5.4040 C.3       1 CBO301      0.0000 
     29 C29        12.2110  -16.9080    0.7710 C.2       1 CBO301      0.0000 
     30 C30        12.4510  -15.7780    1.7710 C.3       1 CBO301      0.0000 
     31 C31        11.4740  -15.7100    2.9980 C.3       1 CBO301      0.0000 
     32 C32        11.3630  -17.0570    3.7170 C.2       1 CBO301      0.0000 
     33 C33         7.3840  -27.5110   -5.4420 C.2       1 CBO301      0.0000 
     34 C34         9.5640  -27.1400   -6.5950 C.3       1 CBO301      0.0000 
     35 O3         10.9160  -17.0130    0.5470 O.3       1 CBO301      0.0000 
     36 O11         7.7870  -23.0020   -0.3540 O.2       1 CBO301      0.0000 
     37 O29        13.0620  -17.6180    0.2610 O.2       1 CBO301      0.0000 
     38 O32        12.4330  -17.7650    3.6690 O.co2     1 CBO301      0.0000 
     39 O33        10.2940  -17.4590    4.3120 O.co2     1 CBO301      0.0000 
     40 O34         6.5160  -28.1390   -6.0270 O.co2     1 CBO301      0.0000 
     41 O35         7.5140  -27.7640   -4.1630 O.co2     1 CBO301      0.0000 
     42 H           9.1079  -21.0803    0.9413 H         1 CBO301      0.0000 
     43 H          10.3599  -21.0085   -0.3107 H         1 CBO301      0.0000 
     44 H          11.1553  -19.4621    1.3486 H         1 CBO301      0.0000 
     45 H           9.5305  -18.8182    1.6410 H         1 CBO301      0.0000 
     46 H          11.2445  -18.4432   -0.8390 H         1 CBO301      0.0000 
     47 H           9.4982  -19.0826   -2.5550 H         1 CBO301      0.0000 
     48 H           7.6081  -17.4339   -3.1753 H         1 CBO301      0.0000 
     49 H           6.5463  -18.3583   -2.0992 H         1 CBO301      0.0000 
     50 H           8.0071  -19.4204   -4.5779 H         1 CBO301      0.0000 
     51 H           6.2563  -19.2672   -4.3515 H         1 CBO301      0.0000 
     52 H           9.1896  -21.3373   -2.6375 H         1 CBO301      0.0000 
     53 H           8.1151  -24.6890   -2.2848 H         1 CBO301      0.0000 
     54 H           7.4236  -20.9786   -6.4008 H         1 CBO301      0.0000 
     55 H           5.9097  -21.1792   -5.5022 H         1 CBO301      0.0000 
     56 H           7.3000  -23.1412   -7.3888 H         1 CBO301      0.0000 
     57 H           5.5994  -22.6441   -7.3616 H         1 CBO301      0.0000 
     58 H           6.6680  -25.3793   -4.1357 H         1 CBO301      0.0000 
     59 H           9.0416  -25.6360   -4.4098 H         1 CBO301      0.0000 
     60 H           9.0826  -24.5455   -5.8059 H         1 CBO301      0.0000 
     61 H           7.3033  -26.7235   -8.1584 H         1 CBO301      0.0000 
     62 H           8.0139  -25.1229   -7.8879 H         1 CBO301      0.0000 
     63 H           5.5383  -25.0020   -7.9173 H         1 CBO301      0.0000 
     64 H           5.4437  -26.2175   -6.6313 H         1 CBO301      0.0000 
     65 H          12.3961  -14.8039    1.2431 H         1 CBO301      0.0000 
     66 H          13.4843  -15.8532    2.1677 H         1 CBO301      0.0000 
     67 H          10.4937  -15.4046    2.6356 H         1 CBO301      0.0000 
     68 H          11.8465  -14.9544    3.6878 H         1 CBO301      0.0000 
     69 H           7.1351  -20.7218    0.6267 H         1 CBO301      0.0000 
     70 H           7.2578  -19.1204    0.5447 H         1 CBO301      0.0000 
     71 H           6.3410  -19.9118   -0.5133 H         1 CBO301      0.0000 
     72 H           8.6278  -15.9994    0.3742 H         1 CBO301      0.0000 
     73 H           7.4850  -16.3971   -0.6851 H         1 CBO301      0.0000 
     74 H           7.8096  -17.3725    0.5516 H         1 CBO301      0.0000 
     75 H          10.3579  -15.7239   -1.5010 H         1 CBO301      0.0000 
     76 H          10.5854  -16.8721   -2.6038 H         1 CBO301      0.0000 
     77 H           9.1992  -16.0579   -2.5649 H         1 CBO301      0.0000 
     78 H           5.5309  -22.3026   -2.2704 H         1 CBO301      0.0000 
     79 H           5.3699  -20.7620   -1.8381 H         1 CBO301      0.0000 
     80 H           4.8450  -21.2525   -3.2769 H         1 CBO301      0.0000 
     81 H           9.7920  -21.9818   -4.0090 H         1 CBO301      0.0000 
     82 H           9.5030  -22.4753   -5.5121 H         1 CBO301      0.0000 
     83 H           9.3976  -20.9133   -5.1444 H         1 CBO301      0.0000 
     84 H           4.4184  -25.0656   -4.9295 H         1 CBO301      0.0000 
     85 H           4.5301  -23.4713   -4.7509 H         1 CBO301      0.0000 
     86 H           3.9806  -24.0893   -6.1301 H         1 CBO301      0.0000 
     87 H          10.1752  -26.5001   -7.0607 H         1 CBO301      0.0000 
     88 H          10.0515  -27.4778   -5.7899 H         1 CBO301      0.0000 
     89 H           9.4341  -27.9197   -7.2075 H         1 CBO301      0.0000 
@<TRIPOS>BOND
     1    2    1 1    
     2   10    1 1    
     3   42    1 1    
     4   43    1 1    
     5    3    2 1    
     6   44    2 1    
     7   45    2 1    
     8    4    3 1    
     9   35    3 1    
    10   46    3 1    
    11    5    4 1    
    12   24    4 1    
    13   25    4 1    
    14    6    5 1    
    15   10    5 1    
    16   47    5 1    
    17    7    6 1    
    18   48    6 1    
    19   49    6 1    
    20    8    7 1    
    21   50    7 1    
    22   51    7 1    
    23    9    8 1    
    24   14    8 1    
    25   26    8 1    
    26   10    9 1    
    27   11    9 1    
    28   52    9 1    
    29   19   10 1    
    30   12   11 1    
    31   36   11 2    
    32   13   12 2    
    33   53   12 1    
    34   14   13 1    
    35   18   13 1    
    36   15   14 1    
    37   27   14 1    
    38   16   15 1    
    39   54   15 1    
    40   55   15 1    
    41   17   16 1    
    42   56   16 1    
    43   57   16 1    
    44   18   17 1    
    45   23   17 1    
    46   28   17 1    
    47   20   18 1    
    48   58   18 1    
    49   69   19 1    
    50   70   19 1    
    51   71   19 1    
    52   21   20 1    
    53   59   20 1    
    54   60   20 1    
    55   22   21 1    
    56   33   21 1    
    57   34   21 1    
    58   23   22 1    
    59   61   22 1    
    60   62   22 1    
    61   63   23 1    
    62   64   23 1    
    63   72   24 1    
    64   73   24 1    
    65   74   24 1    
    66   75   25 1    
    67   76   25 1    
    68   77   25 1    
    69   78   26 1    
    70   79   26 1    
    71   80   26 1    
    72   81   27 1    
    73   82   27 1    
    74   83   27 1    
    75   84   28 1    
    76   85   28 1    
    77   86   28 1    
    78   30   29 1    
    79   35   29 1    
    80   37   29 2    
    81   31   30 1    
    82   65   30 1    
    83   66   30 1    
    84   32   31 1    
    85   67   31 1    
    86   68   31 1    
    87   38   32 ar   
    88   39   32 ar   
    89   40   33 ar   
    90   41   33 ar   
    91   87   34 1    
    92   88   34 1    
    93   89   34 1    
@<TRIPOS>SUBSTRUCTURE
     1 CBO301      1 GROUP   
@<TRIPOS>SET

