#    Name: 1xv9_CI2_1_ligand
#    Modification time : Tue Mar 25 10:42:32 2014

@<TRIPOS>MOLECULE
1xv9_CI2_1_ligand
   55    58     1     0     0
SMALL
NO_CHARGES


@<TRIPOS>ATOM
      1 C1         33.3870   63.7460   74.7760 C.3       1 CI21001     0.0000 
      2 C2         32.1140   62.9380   74.6120 C.2       1 CI21001     0.0000 
      3 O3         32.1240   61.7530   74.5030 O.2       1 CI21001     0.0000 
      4 C4         30.8310   63.7300   74.5420 C.3       1 CI21001     0.0000 
      5 C5         29.5860   63.0390   73.8710 C.3       1 CI21001     0.0000 
      6 C6         28.3460   63.7410   74.4600 C.3       1 CI21001     0.0000 
      7 C7         28.9950   64.7750   75.4030 C.3       1 CI21001     0.0000 
      8 C8         28.1460   65.4740   76.4790 C.3       1 CI21001     0.0000 
      9 C9         26.9140   66.1090   75.8000 C.3       1 CI21001     0.0000 
     10 C10        26.1150   66.9230   76.8340 C.3       1 CI21001     0.0000 
     11 C11        26.9130   67.9700   77.6060 C.3       1 CI21001     0.0000 
     12 C12        27.2180   69.0950   76.6070 C.3       1 CI21001     0.0000 
     13 C13        28.2210   70.1210   77.1240 C.2       1 CI21001     0.0000 
     14 O14        28.2330   71.2180   76.6670 O.2       1 CI21001     0.0000 
     15 C15        29.3090   69.6850   78.0780 C.3       1 CI21001     0.0000 
     16 C16        28.9580   68.5180   78.9990 C.3       1 CI21001     0.0000 
     17 C17        28.1560   67.3800   78.3080 C.3       1 CI21001     0.0000 
     18 C18        27.6770   66.4700   79.4470 C.3       1 CI21001     0.0000 
     19 C19        29.0030   66.5620   77.2550 C.3       1 CI21001     0.0000 
     20 C20        30.3920   66.0130   77.7570 C.3       1 CI21001     0.0000 
     21 C21        31.1750   65.2360   76.6300 C.3       1 CI21001     0.0000 
     22 C22        30.3240   64.1780   75.8990 C.3       1 CI21001     0.0000 
     23 C23        30.1990   62.9940   76.8390 C.3       1 CI21001     0.0000 
     24 H          30.9973   64.6611   73.9590 H         1 CI21001     0.0000 
     25 H          29.5824   62.0109   74.1361 H         1 CI21001     0.0000 
     26 H          29.6310   63.1991   72.8224 H         1 CI21001     0.0000 
     27 H          27.7826   63.0560   75.0193 H         1 CI21001     0.0000 
     28 H          27.8228   64.2359   73.6978 H         1 CI21001     0.0000 
     29 H          29.3496   65.6200   74.6814 H         1 CI21001     0.0000 
     30 H          27.8130   64.7418   77.1891 H         1 CI21001     0.0000 
     31 H          26.2865   65.3258   75.3988 H         1 CI21001     0.0000 
     32 H          27.2441   66.7642   75.0064 H         1 CI21001     0.0000 
     33 H          25.6544   66.2181   77.5547 H         1 CI21001     0.0000 
     34 H          25.2747   67.4234   76.3124 H         1 CI21001     0.0000 
     35 H          26.2421   68.3865   78.3677 H         1 CI21001     0.0000 
     36 H          26.2769   69.6069   76.3529 H         1 CI21001     0.0000 
     37 H          27.6056   68.6478   75.6785 H         1 CI21001     0.0000 
     38 H          29.6089   70.5518   78.7076 H         1 CI21001     0.0000 
     39 H          30.2159   69.4118   77.4944 H         1 CI21001     0.0000 
     40 H          28.3662   68.8901   79.8491 H         1 CI21001     0.0000 
     41 H          29.8837   68.0873   79.4101 H         1 CI21001     0.0000 
     42 H          29.2701   67.3305   76.4372 H         1 CI21001     0.0000 
     43 H          30.2203   65.3385   78.5896 H         1 CI21001     0.0000 
     44 H          30.9986   66.8495   78.0885 H         1 CI21001     0.0000 
     45 H          32.0406   64.7506   77.0920 H         1 CI21001     0.0000 
     46 H          31.5436   65.9698   75.9061 H         1 CI21001     0.0000 
     47 H          33.8953   63.4763   75.5939 H         1 CI21001     0.0000 
     48 H          34.0030   63.6307   73.9968 H         1 CI21001     0.0000 
     49 H          33.1978   64.7245   74.8578 H         1 CI21001     0.0000 
     50 H          28.4431   66.0610   79.9428 H         1 CI21001     0.0000 
     51 H          27.1283   66.9706   80.1166 H         1 CI21001     0.0000 
     52 H          27.1118   65.7176   79.1086 H         1 CI21001     0.0000 
     53 H          31.0769   62.5358   76.9779 H         1 CI21001     0.0000 
     54 H          29.8661   63.2693   77.7409 H         1 CI21001     0.0000 
     55 H          29.5622   62.3072   76.4886 H         1 CI21001     0.0000 
@<TRIPOS>BOND
     1    2    1 1    
     2   47    1 1    
     3   48    1 1    
     4   49    1 1    
     5    3    2 2    
     6    4    2 1    
     7    5    4 1    
     8   22    4 1    
     9   24    4 1    
    10    6    5 1    
    11   25    5 1    
    12   26    5 1    
    13    7    6 1    
    14   27    6 1    
    15   28    6 1    
    16    8    7 1    
    17   22    7 1    
    18   29    7 1    
    19    9    8 1    
    20   19    8 1    
    21   30    8 1    
    22   10    9 1    
    23   31    9 1    
    24   32    9 1    
    25   11   10 1    
    26   33   10 1    
    27   34   10 1    
    28   12   11 1    
    29   17   11 1    
    30   35   11 1    
    31   13   12 1    
    32   36   12 1    
    33   37   12 1    
    34   14   13 2    
    35   15   13 1    
    36   16   15 1    
    37   38   15 1    
    38   39   15 1    
    39   17   16 1    
    40   40   16 1    
    41   41   16 1    
    42   18   17 1    
    43   19   17 1    
    44   50   18 1    
    45   51   18 1    
    46   52   18 1    
    47   20   19 1    
    48   42   19 1    
    49   21   20 1    
    50   43   20 1    
    51   44   20 1    
    52   22   21 1    
    53   45   21 1    
    54   46   21 1    
    55   23   22 1    
    56   53   23 1    
    57   54   23 1    
    58   55   23 1    
@<TRIPOS>SUBSTRUCTURE
     1 CI21001     1 GROUP   
@<TRIPOS>SET

