#    Name: 1qf5_RPL_1_INTS_M
#    Modification time : Mon Mar 24 23:23:49 2014

@<TRIPOS>MOLECULE
1qf5_RPL_1_INTS_M
   86     0    15     0     0
SMALL
NO_CHARGES


@<TRIPOS>ATOM
      1 N          28.0275   12.5215   21.9005 N.am      2 SEC2        0.0000 
      2 N          27.2260   12.7610   23.0160 N.am     12 SEL2        0.0000 
      3 N          28.8290   12.2820   20.7850 N.am      7 SEP2        0.0000 
      4 N          28.2330   11.8630   23.5640 N.am      2 SEC2        0.0000 
      5 N          29.2400   10.9650   24.1120 N.am      7 SEP2        0.0000 
      6 N          24.4030   14.8235   22.1770 N.am      2 SEC2        0.0000 
      7 N          25.0750   13.5570   22.2830 N.am     12 SEL2        0.0000 
      8 N          23.7310   16.0900   22.0710 N.am      7 SEP2        0.0000 
      9 N          25.2045   14.3675   21.0480 N.am      2 SEC2        0.0000 
     10 N          25.3340   15.1780   19.8130 N.am      7 SEP2        0.0000 
     11 N          24.2975   12.9390   21.4190 N.am      2 SEC2        0.0000 
     12 N          23.5200   12.3210   20.5550 N.am      7 SEP2        0.0000 
     13 CA         24.2815   13.7035   25.6270 C.3       5 GLC5        0.0000 
     14 CA         26.3270   13.8490   25.9290 C.3      15 GLL5        0.0000 
     15 CA         22.2360   13.5580   25.3250 C.3      10 GLP5        0.0000 
     16 CA         26.6400   16.8775   22.8755 C.3       5 GLC5        0.0000 
     17 CA         27.0050   16.6590   24.8400 C.3      15 GLL5        0.0000 
     18 CA         26.2750   17.0960   20.9110 C.3      10 GLP5        0.0000 
     19 N          26.4045   19.0635   24.0395 N.am      2 SEC2        0.0000 
     20 N          27.0320   18.0710   24.6620 N.am     12 SEL2        0.0000 
     21 N          25.7770   20.0560   23.4170 N.am      7 SEP2        0.0000 
     22 O          27.5665   19.1750   25.5275 O.2       1 ALC1        0.0000 
     23 O          27.0320   18.0710   24.6620 O.2      11 ALL1        0.0000 
     24 O          28.1010   20.2790   26.3930 O.2       6 ALP1        0.0000 
     25 CA         30.4075   15.8445   25.6245 C.3       5 GLC5        0.0000 
     26 CA         28.4450   16.0750   24.7460 C.3      15 GLL5        0.0000 
     27 CA         32.3700   15.6140   26.5030 C.3      10 GLP5        0.0000 
     28 N          31.0795   14.7070   21.2660 N.am      2 SEC2        0.0000 
     29 N          29.9260   15.5830   21.7460 N.am     12 SEL2        0.0000 
     30 N          32.2330   13.8310   20.7860 N.am      7 SEP2        0.0000 
     31 CA         31.9655   15.6405   23.1910 C.3       5 GLC5        0.0000 
     32 CA         31.4080   17.7670   23.2140 C.3      15 GLL5        0.0000 
     33 CA         32.5230   13.5140   23.1680 C.3      10 GLP5        0.0000 
     34 CA         31.8890   16.6905   24.8585 C.3       5 GLC5        0.0000 
     35 CA         27.9265   18.5060   20.7105 C.3       5 GLC5        0.0000 
     36 CA         29.5780   19.9160   20.5100 C.3      15 GLL5        0.0000 
     37 CA         28.9175   19.6485   18.6195 C.3       5 GLC5        0.0000 
     38 CA         28.2570   19.3810   16.7290 C.3      10 GLP5        0.0000 
     39 N          28.5365   21.5945   17.9775 N.am      2 SEC2        0.0000 
     40 N          27.9690   21.5230   19.5170 N.am     12 SEL2        0.0000 
     41 N          29.1040   21.6660   16.4380 N.am      7 SEP2        0.0000 
     42 N          27.1860   21.6755   18.4075 N.am      2 SEC2        0.0000 
     43 N          26.4030   21.8280   17.2980 N.am      7 SEP2        0.0000 
     44 N          26.6675   21.8545   19.7540 N.am      2 SEC2        0.0000 
     45 N          25.3660   22.1860   19.9910 N.am      7 SEP2        0.0000 
     46 NZ         26.6035   20.3370   22.5070 N.4       3 LYC4        0.0000 
     47 NZ         27.4300   20.6180   21.5970 N.4      13 LYL4        0.0000 
     48 NZ         24.8580   20.9740   23.6920 N.4       8 LYP4        0.0000 
     49 N          26.0880   21.3385   22.2645 N.am      2 SEC2        0.0000 
     50 N          27.4300   20.6180   21.5970 N.am     12 SEL2        0.0000 
     51 N          24.7460   22.0590   22.9320 N.am      7 SEP2        0.0000 
     52 N          26.6035   20.3370   22.5070 N.am      2 SEC2        0.0000 
     53 N          32.7540   21.1625   20.6645 N.am      2 SEC2        0.0000 
     54 N          31.1570   21.7600   20.7650 N.am     12 SEL2        0.0000 
     55 N          34.3510   20.5650   20.5640 N.am      7 SEP2        0.0000 
     56 N          32.1755   22.9885   20.5955 N.am      2 SEC2        0.0000 
     57 N          33.1940   24.2170   20.4260 N.am      7 SEP2        0.0000 
     58 O          32.7540   21.1625   20.6645 O.2       1 ALC1        0.0000 
     59 O          31.1570   21.7600   20.7650 O.2      11 ALL1        0.0000 
     60 O          34.3510   20.5650   20.5640 O.2       6 ALP1        0.0000 
     61 O          32.2020   21.7585   21.3950 O.2       1 ALC1        0.0000 
     62 O          33.2470   21.7570   22.0250 O.2       6 ALP1        0.0000 
     63 CA         32.2990   19.4010   17.4100 C.3       5 GLC5        0.0000 
     64 CA         31.6790   19.9990   19.2370 C.3      15 GLL5        0.0000 
     65 CA         32.9190   18.8030   15.5830 C.3      10 GLP5        0.0000 
     66 CA         32.0040   21.3745   17.6090 C.3       5 GLC5        0.0000 
     67 CA         32.3290   22.7500   15.9810 C.3      10 GLP5        0.0000 
     68 CA         29.9680   19.6900   17.9830 C.3       5 GLC5        0.0000 
     69 Zn         33.4295   20.3580   18.4760 Zn        4 ZIC7        0.0000 
     70 Zn         32.3850   20.7200   18.2300 Zn       14 ZIL7        0.0000 
     71 Zn         34.4740   19.9960   18.7220 Zn        9 ZIP7        0.0000 
     72 N          33.3680   20.6425   19.3970 N.am      2 SEC2        0.0000 
     73 N          32.3850   20.7200   18.2300 N.am     12 SEL2        0.0000 
     74 N          31.5290   22.1165   17.9180 N.am      2 SEC2        0.0000 
     75 N          30.6730   23.5130   17.6060 N.am      7 SEP2        0.0000 
     76 CA         27.7928   12.6235   26.3425 C.3       5 GLC5        0.0000 
     77 CA         28.8380   10.8260   26.4740 C.3      10 GLP5        0.0000 
     78 CA         25.1806   14.8462   27.6792 C.3       5 GLC5        0.0000 
     79 CA         27.1680   14.9930   26.4930 C.3      15 GLL5        0.0000 
     80 CA         23.7120   14.3020   29.1070 C.3      10 GLP5        0.0000 
     81 CA         24.8750   16.1258   24.9575 C.3       5 GLC5        0.0000 
     82 CA         26.5510   16.3600   26.2920 C.3      15 GLL5        0.0000 
     83 CA         22.9720   15.7420   24.3490 C.3      10 GLP5        0.0000 
     84 CA         29.8035   20.6009   22.7526 C.3       5 GLC5        0.0000 
     85 CA         30.0270   19.5020   21.9470 C.3      15 GLL5        0.0000 
     86 CA         29.5190   21.7540   24.2980 C.3      10 GLP5        0.0000 
@<TRIPOS>BOND
@<TRIPOS>SUBSTRUCTURE
     1 ALC1       22 GROUP        1 X    ALC  0     ROOT ALC X 1
     2 SEC2        1 GROUP        1 X    SEC  0     **** SEC X 2
     3 LYC4       46 GROUP        1 X    LYC  0     **** LYC X 4
     4 ZIC7       69 GROUP        1 X    ZIC  0     **** ZIC X 5
     5 GLC5       13 GROUP        1 X    GLC  0     **** GLC X 6
     6 ALP1       24 GROUP        1 Y    ALP  0     ROOT ALP Y 8
     7 SEP2        3 GROUP        1 Y    SEP  0     **** SEP Y 9
     8 LYP4       48 GROUP        1 Y    LYP  0     **** LYP Y 11
     9 ZIP7       71 GROUP        1 Y    ZIP  0     **** ZIP Y 12
    10 GLP5       15 GROUP        1 Y    GLP  0     **** GLP Y 13
    11 ALL1       23 GROUP        1 Z    ALL  0     ROOT ALL Z 15
    12 SEL2        2 GROUP        1 Z    SEL  0     **** SEL Z 16
    13 LYL4       47 GROUP        1 Z    LYL  0     **** LYL Z 18
    14 ZIL7       70 GROUP        1 Z    ZIL  0     **** ZIL Z 19
    15 GLL5       14 GROUP        1 Z    GLL  0     **** GLL Z 20
@<TRIPOS>SET

