#    Name: 1qf5_RPL_1_ligand
#    Modification time : Mon Mar 24 23:23:49 2014

@<TRIPOS>MOLECULE
1qf5_RPL_1_ligand
   49    50     1     0     0
SMALL
NO_CHARGES


@<TRIPOS>ATOM
      1 O1P        25.2110   11.8440   23.9120 O.co2     1 RPL435      0.0000 
      2 O2P        27.2260   12.7610   23.0160 O.co2     1 RPL435      0.0000 
      3 O3P        25.0750   13.5570   22.2830 O.co2     1 RPL435      0.0000 
      4 P          25.8210   13.0640   23.4200 P.3       1 RPL435      0.0000 
      5 O5'        25.8650   14.1420   24.6270 O.3       1 RPL435      0.0000 
      6 C5'        26.3270   13.8490   25.9290 C.3       1 RPL435      0.0000 
      7 C4'        27.1680   14.9930   26.4930 C.3       1 RPL435      0.0000 
      8 O4'        28.4210   15.0700   25.8250 O.3       1 RPL435      0.0000 
      9 C3'        26.5510   16.3600   26.2920 C.3       1 RPL435      0.0000 
     10 O3'        27.1360   17.3120   27.1880 O.3       1 RPL435      0.0000 
     11 C2'        27.0050   16.6590   24.8400 C.3       1 RPL435      0.0000 
     12 O2'        27.0320   18.0710   24.6620 O.3       1 RPL435      0.0000 
     13 C1'        28.4450   16.0750   24.7460 C.3       1 RPL435      0.0000 
     14 N1         28.5530   15.4530   23.5410 N.am      1 RPL435      0.0000 
     15 C2         29.6160   15.9590   22.8240 C.2       1 RPL435      0.0000 
     16 O2         29.9260   15.5830   21.7460 O.2       1 RPL435      0.0000 
     17 N3         30.2370   16.9470   23.5760 N.am      1 RPL435      0.0000 
     18 C4         29.5210   17.0280   24.7520 C.2       1 RPL435      0.0000 
     19 O4         29.8460   17.8340   25.6210 O.2       1 RPL435      0.0000 
     20 C5A        31.4080   17.7670   23.2140 C.3       1 RPL435      0.0000 
     21 C6A        31.1690   18.4570   21.8620 C.3       1 RPL435      0.0000 
     22 C7A        30.0270   19.5020   21.9470 C.3       1 RPL435      0.0000 
     23 C8A        29.5780   19.9160   20.5100 C.3       1 RPL435      0.0000 
     24 C9A        28.2700   20.7080   20.5480 C.2       1 RPL435      0.0000 
     25 OJA        27.9690   21.5230   19.5170 O.co2     1 RPL435      0.0000 
     26 OKA        27.4300   20.6180   21.5970 O.co2     1 RPL435      0.0000 
     27 NAA        30.5980   20.7990   19.8170 N.4       1 RPL435      0.0000 
     28 OAA        31.1570   21.7600   20.7650 O.3       1 RPL435      0.0000 
     29 CBA        31.6790   19.9990   19.2370 C.3       1 RPL435      0.0000 
     30 OBA        32.3850   20.7200   18.2300 O.3       1 RPL435      0.0000 
     31 H          26.9534   12.9388   25.9500 H         1 RPL435      0.0000 
     32 H          25.4936   13.6748   26.6336 H         1 RPL435      0.0000 
     33 H          27.3169   14.8420   27.5493 H         1 RPL435      0.0000 
     34 H          25.5231   16.2916   26.3096 H         1 RPL435      0.0000 
     35 H          26.3841   16.1445   24.1813 H         1 RPL435      0.0000 
     36 H          27.9656   14.7468   23.2200 H         1 RPL435      0.0000 
     37 H          32.3019   17.1482   23.1288 H         1 RPL435      0.0000 
     38 H          31.5871   18.5378   23.9644 H         1 RPL435      0.0000 
     39 H          30.9044   17.7083   21.1170 H         1 RPL435      0.0000 
     40 H          32.0821   18.9602   21.5478 H         1 RPL435      0.0000 
     41 H          30.3817   20.3773   22.4680 H         1 RPL435      0.0000 
     42 H          29.1853   19.0701   22.4652 H         1 RPL435      0.0000 
     43 H          29.4213   19.0308   19.9231 H         1 RPL435      0.0000 
     44 H          30.0845   21.3398   19.0217 H         1 RPL435      0.0000 
     45 H          31.2522   19.0622   18.8198 H         1 RPL435      0.0000 
     46 H          32.3697   19.6823   20.0472 H         1 RPL435      0.0000 
     47 H          26.7561   17.0896   28.0859 H         1 RPL435      0.0000 
     48 H          27.2785   18.4400   25.5581 H         1 RPL435      0.0000 
     49 H          32.0513   21.3880   21.0135 H         1 RPL435      0.0000 
@<TRIPOS>BOND
     1    4    1 ar   
     2    4    2 ar   
     3    4    3 ar   
     4    5    4 1    
     5    6    5 1    
     6    7    6 1    
     7   31    6 1    
     8   32    6 1    
     9    8    7 1    
    10    9    7 1    
    11   33    7 1    
    12   13    8 1    
    13   10    9 1    
    14   11    9 1    
    15   34    9 1    
    16   47   10 1    
    17   12   11 1    
    18   13   11 1    
    19   35   11 1    
    20   48   12 1    
    21   14   13 1    
    22   18   13 1    
    23   15   14 am   
    24   36   14 1    
    25   16   15 2    
    26   17   15 am   
    27   18   17 am   
    28   20   17 1    
    29   19   18 2    
    30   21   20 1    
    31   37   20 1    
    32   38   20 1    
    33   22   21 1    
    34   39   21 1    
    35   40   21 1    
    36   23   22 1    
    37   41   22 1    
    38   42   22 1    
    39   24   23 1    
    40   27   23 1    
    41   43   23 1    
    42   25   24 ar   
    43   26   24 ar   
    44   28   27 1    
    45   29   27 1    
    46   44   27 1    
    47   49   28 1    
    48   30   29 1    
    49   45   29 1    
    50   46   29 1    
@<TRIPOS>SUBSTRUCTURE
     1 RPL435      1 GROUP   
@<TRIPOS>SET

