#    Name: 4dn5_AGS_2_INTS_M
#    Modification time : Tue Mar 25 09:58:00 2014

@<TRIPOS>MOLECULE
4dn5_AGS_2_INTS_M
   76     0    15     0     0
SMALL
NO_CHARGES


@<TRIPOS>ATOM
      1 CA        -15.0015   55.2345  -20.5580 C.3       5 GLC5        0.0000 
      2 CA        -14.4260   53.2950  -19.9960 C.3      15 GLL5        0.0000 
      3 CA        -15.5770   57.1740  -21.1200 C.3      10 GLP5        0.0000 
      4 CA        -12.6815   53.3015  -21.2620 C.3       5 GLC5        0.0000 
      5 CA        -10.9370   53.3080  -22.5280 C.3      10 GLP5        0.0000 
      6 CA        -15.3985   52.0085  -21.3140 C.3       5 GLC5        0.0000 
      7 CA        -16.3710   50.7220  -22.6320 C.3      10 GLP5        0.0000 
      8 CA        -15.9925   53.5600  -19.7435 C.3       5 GLC5        0.0000 
      9 CA        -17.5590   53.8250  -19.4910 C.3      10 GLP5        0.0000 
     10 N         -12.3040   49.8655  -15.8910 N.am      2 SEC2        0.0000 
     11 N         -11.4830   50.3200  -16.8880 N.am     12 SEL2        0.0000 
     12 N         -13.1250   49.4110  -14.8940 N.am      7 SEP2        0.0000 
     13 N         -11.4220   49.0455  -16.5975 N.am      2 SEC2        0.0000 
     14 N         -11.3610   47.7710  -16.3070 N.am      7 SEP2        0.0000 
     15 Zn        -10.5290   53.3860  -18.2225 Zn        4 ZIC7        0.0000 
     16 Zn        -10.7900   52.6850  -17.6500 Zn       14 ZIL7        0.0000 
     17 Zn        -10.2680   54.0870  -18.7950 Zn        9 ZIP7        0.0000 
     18 N         -11.8870   50.2690  -19.9740 N.am      2 SEC2        0.0000 
     19 N         -12.4050   51.3000  -19.0400 N.am     12 SEL2        0.0000 
     20 N         -11.3690   49.2380  -20.9080 N.am      7 SEP2        0.0000 
     21 NZ        -10.3415   50.0720  -21.1035 N.4       3 LYC4        0.0000 
     22 NZ         -9.3140   50.9060  -21.2990 N.4      13 LYL4        0.0000 
     23 NZ        -11.3690   49.2380  -20.9080 N.4       8 LYP4        0.0000 
     24 N         -10.3415   50.0720  -21.1035 N.am      2 SEC2        0.0000 
     25 N          -9.3140   50.9060  -21.2990 N.am     12 SEL2        0.0000 
     26 Zn         -9.6960   53.5030  -19.2340 Zn        4 ZIC7        0.0000 
     27 Zn         -9.1240   52.9190  -19.6730 Zn       14 ZIL7        0.0000 
     28 CA         -6.6375   50.6820  -16.2435 C.3       5 GLC5        0.0000 
     29 CA         -7.0080   51.2950  -18.2370 C.3      15 GLL5        0.0000 
     30 CA         -6.2670   50.0690  -14.2500 C.3      10 GLP5        0.0000 
     31 CA         -8.2945   51.5905  -16.4660 C.3       5 GLC5        0.0000 
     32 CA         -9.5810   51.8860  -14.6950 C.3      10 GLP5        0.0000 
     33 CA         -4.2790   51.3500  -17.0840 C.3       5 GLC5        0.0000 
     34 CA         -5.6550   52.0020  -18.2840 C.3      15 GLL5        0.0000 
     35 CA         -2.9030   50.6980  -15.8840 C.3      10 GLP5        0.0000 
     36 O          -6.2525   55.4900  -19.3130 O.2       1 ALC1        0.0000 
     37 O          -5.9810   54.4200  -18.4930 O.2      11 ALL1        0.0000 
     38 O          -6.5240   56.5600  -20.1330 O.2       6 ALP1        0.0000 
     39 CA         -3.0665   55.1065  -19.5135 C.3       5 GLC5        0.0000 
     40 CA         -4.1790   53.2690  -19.6560 C.3      15 GLL5        0.0000 
     41 CA         -1.9540   56.9440  -19.3710 C.3      10 GLP5        0.0000 
     42 CA         -3.9640   53.8940  -21.5715 C.3       5 GLC5        0.0000 
     43 CA         -3.7490   54.5190  -23.4870 C.3      10 GLP5        0.0000 
     44 CA         -3.3265   51.2555  -17.7705 C.3       5 GLC5        0.0000 
     45 CA         -3.7500   51.8130  -19.6570 C.3      15 GLL5        0.0000 
     46 CA         -4.0795   49.6935  -19.4710 C.3       5 GLC5        0.0000 
     47 CA         -4.4090   47.5740  -19.2850 C.3      10 GLP5        0.0000 
     48 CA         -2.0925   48.2175  -24.1670 C.3       5 GLC5        0.0000 
     49 CA         -2.5350   50.2380  -24.1130 C.3      15 GLL5        0.0000 
     50 CA         -1.6500   46.1970  -24.2210 C.3      10 GLP5        0.0000 
     51 O          -2.3805   49.3355  -26.3995 O.2       1 ALC1        0.0000 
     52 O          -3.0280   49.7080  -25.2580 O.2      11 ALL1        0.0000 
     53 O          -1.7330   48.9630  -27.5410 O.2       6 ALP1        0.0000 
     54 N          -0.0605   50.6295  -25.1655 N.am      2 SEC2        0.0000 
     55 N          -1.2110   50.5010  -23.9940 N.am     12 SEL2        0.0000 
     56 N           1.0900   50.7580  -26.3370 N.am      7 SEP2        0.0000 
     57 CA         -0.1885   49.3895  -22.0230 C.3       5 GLC5        0.0000 
     58 CA         -0.7160   51.0280  -22.8610 C.3      15 GLL5        0.0000 
     59 CA          0.3390   47.7510  -21.1850 C.3      10 GLP5        0.0000 
     60 CA          0.4880   51.5560  -24.6750 C.3       5 GLC5        0.0000 
     61 CA          1.6920   52.0840  -26.4890 C.3      10 GLP5        0.0000 
     62 CA         -1.9140   52.5395  -23.8265 C.3       5 GLC5        0.0000 
     63 CA         -3.1120   54.0510  -24.7920 C.3      10 GLP5        0.0000 
     64 CA         -1.4610   50.0670  -20.4890 C.3       5 GLC5        0.0000 
     65 CA         -2.8540   51.0710  -21.8900 C.3      15 GLL5        0.0000 
     66 CA         -0.0680   49.0630  -19.0880 C.3      10 GLP5        0.0000 
     67 CA         -3.3015   52.7950  -22.6885 C.3       5 GLC5        0.0000 
     68 CA         -6.0918   49.8187  -18.8892 C.3       5 GLC5        0.0000 
     69 CA         -5.8520   47.9890  -19.5180 C.3      10 GLP5        0.0000 
     70 CA         -3.4120   49.0938  -21.5455 C.3       5 GLC5        0.0000 
     71 CA         -3.7040   47.3890  -20.6210 C.3      10 GLP5        0.0000 
     72 CA         -4.4283   48.9660  -23.7963 C.3       5 GLC5        0.0000 
     73 CA         -3.3860   50.5260  -23.0500 C.3      15 GLL5        0.0000 
     74 CA         -5.8960   47.5500  -24.0110 C.3      10 GLP5        0.0000 
     75 CA         -3.4923   51.7320  -24.5568 C.3       5 GLC5        0.0000 
     76 CA         -4.0240   53.0820  -25.5320 C.3      10 GLP5        0.0000 
@<TRIPOS>BOND
@<TRIPOS>SUBSTRUCTURE
     1 ALC1       36 GROUP        1 X    ALC  0     ROOT ALC X 1
     2 SEC2       10 GROUP        1 X    SEC  0     **** SEC X 2
     3 LYC4       21 GROUP        1 X    LYC  0     **** LYC X 4
     4 ZIC7       15 GROUP        1 X    ZIC  0     **** ZIC X 5
     5 GLC5        1 GROUP        1 X    GLC  0     **** GLC X 6
     6 ALP1       38 GROUP        1 Y    ALP  0     ROOT ALP Y 8
     7 SEP2       12 GROUP        1 Y    SEP  0     **** SEP Y 9
     8 LYP4       23 GROUP        1 Y    LYP  0     **** LYP Y 11
     9 ZIP7       17 GROUP        1 Y    ZIP  0     **** ZIP Y 12
    10 GLP5        3 GROUP        1 Y    GLP  0     **** GLP Y 13
    11 ALL1       37 GROUP        1 Z    ALL  0     ROOT ALL Z 15
    12 SEL2       11 GROUP        1 Z    SEL  0     **** SEL Z 16
    13 LYL4       22 GROUP        1 Z    LYL  0     **** LYL Z 18
    14 ZIL7       16 GROUP        1 Z    ZIL  0     **** ZIL Z 19
    15 GLL5        2 GROUP        1 Z    GLL  0     **** GLL Z 20
@<TRIPOS>SET

