#    Name: 4dn5_AGS_2_ligand
#    Modification time : Tue Mar 25 09:58:00 2014

@<TRIPOS>MOLECULE
4dn5_AGS_2_ligand
   43    45     1     0     0
SMALL
NO_CHARGES


@<TRIPOS>ATOM
      1 PG        -13.8580   51.9520  -18.6980 P.3       1 AGS1003     0.0000 
      2 S1G       -14.4260   53.2950  -19.9960 S.3       1 AGS1003     0.0000 
      3 O2G       -13.7490   52.6660  -17.3650 O.co2     1 AGS1003     0.0000 
      4 O3G       -14.8660   50.8330  -18.8740 O.co2     1 AGS1003     0.0000 
      5 PB        -11.1560   51.2650  -18.0110 P.3       1 AGS1003     0.0000 
      6 O1B       -11.4830   50.3200  -16.8880 O.co2     1 AGS1003     0.0000 
      7 O2B       -10.7900   52.6850  -17.6500 O.co2     1 AGS1003     0.0000 
      8 O3B       -12.4050   51.3000  -19.0400 O.3       1 AGS1003     0.0000 
      9 PA         -9.0170   51.4410  -19.9230 P.3       1 AGS1003     0.0000 
     10 O1A        -9.3140   50.9060  -21.2990 O.co2     1 AGS1003     0.0000 
     11 O2A        -9.1240   52.9190  -19.6730 O.co2     1 AGS1003     0.0000 
     12 O3A        -9.9380   50.6260  -18.8650 O.3       1 AGS1003     0.0000 
     13 O5'        -7.5150   50.9970  -19.5360 O.3       1 AGS1003     0.0000 
     14 C5'        -7.0080   51.2950  -18.2370 C.3       1 AGS1003     0.0000 
     15 C4'        -5.6550   52.0020  -18.2840 C.3       1 AGS1003     0.0000 
     16 O4'        -4.6370   51.1210  -18.7720 O.3       1 AGS1003     0.0000 
     17 C3'        -5.6180   53.2260  -19.1890 C.3       1 AGS1003     0.0000 
     18 O3'        -5.9810   54.4200  -18.4930 O.3       1 AGS1003     0.0000 
     19 C2'        -4.1790   53.2690  -19.6560 C.3       1 AGS1003     0.0000 
     20 O2'        -3.3710   53.9770  -18.7120 O.3       1 AGS1003     0.0000 
     21 C1'        -3.7500   51.8130  -19.6570 C.3       1 AGS1003     0.0000 
     22 N9         -3.8650   51.2480  -21.0290 N.pl3     1 AGS1003     0.0000 
     23 C8         -4.9990   50.8350  -21.6210 C.2       1 AGS1003     0.0000 
     24 N7         -4.7140   50.3940  -22.8630 N.2       1 AGS1003     0.0000 
     25 C5         -3.3860   50.5260  -23.0500 C.ar      1 AGS1003     0.0000 
     26 C6         -2.5350   50.2380  -24.1130 C.ar      1 AGS1003     0.0000 
     27 N6         -3.0280   49.7080  -25.2580 N.pl3     1 AGS1003     0.0000 
     28 N1         -1.2110   50.5010  -23.9940 N.ar      1 AGS1003     0.0000 
     29 C2         -0.7160   51.0280  -22.8610 C.ar      1 AGS1003     0.0000 
     30 N3         -1.5170   51.3130  -21.8210 N.ar      1 AGS1003     0.0000 
     31 C4         -2.8540   51.0710  -21.8900 C.ar      1 AGS1003     0.0000 
     32 H          -6.8815   50.3762  -17.6303 H         1 AGS1003     0.0000 
     33 H          -7.7030   51.9457  -17.6697 H         1 AGS1003     0.0000 
     34 H          -5.3971   52.3300  -17.2766 H         1 AGS1003     0.0000 
     35 H          -6.2348   53.0246  -20.0376 H         1 AGS1003     0.0000 
     36 H          -4.1309   53.6434  -20.6282 H         1 AGS1003     0.0000 
     37 H          -2.7412   51.7566  -19.3165 H         1 AGS1003     0.0000 
     38 H          -5.8837   50.8507  -21.2201 H         1 AGS1003     0.0000 
     39 H          -4.0058   49.4983  -25.2605 H         1 AGS1003     0.0000 
     40 H          -2.3705   49.5734  -25.9994 H         1 AGS1003     0.0000 
     41 H           0.3149   51.2202  -22.7878 H         1 AGS1003     0.0000 
     42 H          -6.1013   55.1094  -19.2073 H         1 AGS1003     0.0000 
     43 H          -4.0040   54.5881  -18.2366 H         1 AGS1003     0.0000 
@<TRIPOS>BOND
     1    2    1 1    
     2    3    1 ar   
     3    4    1 ar   
     4    8    1 1    
     5    6    5 ar   
     6    7    5 ar   
     7    8    5 1    
     8   12    5 1    
     9   10    9 ar   
    10   11    9 ar   
    11   12    9 1    
    12   13    9 1    
    13   14   13 1    
    14   15   14 1    
    15   32   14 1    
    16   33   14 1    
    17   16   15 1    
    18   17   15 1    
    19   34   15 1    
    20   21   16 1    
    21   18   17 1    
    22   19   17 1    
    23   35   17 1    
    24   42   18 1    
    25   20   19 1    
    26   21   19 1    
    27   36   19 1    
    28   43   20 1    
    29   22   21 1    
    30   37   21 1    
    31   23   22 1    
    32   31   22 1    
    33   24   23 2    
    34   38   23 1    
    35   25   24 1    
    36   26   25 ar   
    37   31   25 ar   
    38   27   26 1    
    39   28   26 ar   
    40   39   27 1    
    41   40   27 1    
    42   29   28 ar   
    43   30   29 ar   
    44   41   29 1    
    45   31   30 ar   
@<TRIPOS>SUBSTRUCTURE
     1 AGS1003     1 GROUP   
@<TRIPOS>SET

