#    Name: 2pk6_O33_1_INTS_M
#    Modification time : Mon Mar 24 19:05:24 2014

@<TRIPOS>MOLECULE
2pk6_O33_1_INTS_M
  122     0     9     0     0
SMALL
NO_CHARGES


@<TRIPOS>ATOM
      1 N          19.2775  -23.0510  -19.3030 N.am      2 SEC2        0.0000 
      2 N          18.6350  -23.3970  -18.0630 N.am      8 SEL2        0.0000 
      3 N          19.9200  -22.7050  -20.5430 N.am      5 SEP2        0.0000 
      4 O          15.9160  -25.1805  -16.5585 O.2       1 ALC1        0.0000 
      5 O          16.7260  -24.2570  -17.2110 O.2       7 ALL1        0.0000 
      6 O          15.1060  -26.1040  -15.9060 O.2       4 ALP1        0.0000 
      7 CA         17.0235  -22.4765  -19.5145 C.3       3 GLC5        0.0000 
      8 CA         15.9530  -23.8890  -18.3860 C.3       9 GLL5        0.0000 
      9 CA         18.0940  -21.0640  -20.6430 C.3       6 GLP5        0.0000 
     10 CA         15.4045  -27.2300  -19.4365 C.3       3 GLC5        0.0000 
     11 CA         15.3020  -25.1590  -18.9590 C.3       9 GLL5        0.0000 
     12 CA         15.5070  -29.3010  -19.9140 C.3       6 GLP5        0.0000 
     13 CA         13.1400  -25.0345  -20.9915 C.3       3 GLC5        0.0000 
     14 CA         14.8720  -24.8170  -20.6480 C.3       9 GLL5        0.0000 
     15 CA         11.4080  -25.2520  -21.3350 C.3       6 GLP5        0.0000 
     16 CA         17.9060  -25.7845  -22.6450 C.3       3 GLC5        0.0000 
     17 CA         16.4100  -25.1930  -21.4310 C.3       9 GLL5        0.0000 
     18 CA         19.4020  -26.3760  -23.8590 C.3       6 GLP5        0.0000 
     19 O          16.7170  -20.9615  -17.8665 O.2       1 ALC1        0.0000 
     20 O          15.3240  -21.6550  -17.7640 O.2       7 ALL1        0.0000 
     21 O          18.1100  -20.2680  -17.9690 O.2       4 ALP1        0.0000 
     22 N          13.8435  -17.3515  -17.2340 N.am      2 SEC2        0.0000 
     23 N          12.8560  -17.9940  -17.9400 N.am      8 SEL2        0.0000 
     24 N          14.8310  -16.7090  -16.5280 N.am      5 SEP2        0.0000 
     25 CA         16.1925  -18.8445  -18.5745 C.3       3 GLC5        0.0000 
     26 CA         14.2200  -19.7600  -18.6590 C.3       9 GLL5        0.0000 
     27 CA         18.1650  -17.9290  -18.4900 C.3       6 GLP5        0.0000 
     28 CA         15.6520  -20.4470  -20.2270 C.3       3 GLC5        0.0000 
     29 CA         17.0840  -21.1340  -21.7950 C.3       6 GLP5        0.0000 
     30 CA         16.5250  -18.9020  -17.3370 C.3       3 GLC5        0.0000 
     31 CA         14.8850  -19.8750  -16.1840 C.3       9 GLL5        0.0000 
     32 N          15.0740  -17.7705  -17.6235 N.am      2 SEC2        0.0000 
     33 N          15.3170  -18.8320  -18.7190 N.am      8 SEL2        0.0000 
     34 O          15.5210  -18.0995  -19.7830 O.2       1 ALC1        0.0000 
     35 O          15.3170  -18.8320  -18.7190 O.2       7 ALL1        0.0000 
     36 O          15.7250  -17.3670  -20.8470 O.2       4 ALP1        0.0000 
     37 O          14.7805  -18.8420  -20.1100 O.2       1 ALC1        0.0000 
     38 O          14.2440  -18.8520  -21.5010 O.2       4 ALP1        0.0000 
     39 CA         17.7210  -19.6215  -14.7785 C.3       3 GLC5        0.0000 
     40 CA         16.4800  -21.1440  -14.7330 C.3       9 GLL5        0.0000 
     41 CA         18.9620  -18.0990  -14.8240 C.3       6 GLP5        0.0000 
     42 CA         17.1255  -20.8200  -12.6160 C.3       3 GLC5        0.0000 
     43 CA         17.7710  -20.4960  -10.4990 C.3       6 GLP5        0.0000 
     44 CA          7.8420  -20.5390  -18.8925 C.3       3 GLC5        0.0000 
     45 CA          8.2690  -19.0930  -20.2450 C.3       9 GLL5        0.0000 
     46 CA          7.4150  -21.9850  -17.5400 C.3       6 GLP5        0.0000 
     47 CA          7.3905  -21.0465  -20.8505 C.3       3 GLC5        0.0000 
     48 CA          6.5120  -23.0000  -21.4560 C.3       6 GLP5        0.0000 
     49 CA         10.6280  -17.5065  -22.6680 C.3       3 GLC5        0.0000 
     50 CA         10.2150  -18.6350  -21.6640 C.3       9 GLL5        0.0000 
     51 CA         11.0410  -16.3780  -23.6720 C.3       6 GLP5        0.0000 
     52 CA          8.7980  -21.5245  -18.9465 C.3       3 GLC5        0.0000 
     53 CA         10.1810  -21.0640  -20.3530 C.3       9 GLL5        0.0000 
     54 CA         10.2475  -23.1650  -20.4190 C.3       3 GLC5        0.0000 
     55 CA         10.3140  -25.2660  -20.4850 C.3       6 GLP5        0.0000 
     56 CA          8.3465  -22.0320  -20.9045 C.3       3 GLC5        0.0000 
     57 O          10.0835  -16.5810  -18.7745 O.2       1 ALC1        0.0000 
     58 O           9.2240  -17.5840  -17.7020 O.2       7 ALL1        0.0000 
     59 O          10.9430  -15.5780  -19.8470 O.2       4 ALP1        0.0000 
     60 N           8.5445  -14.1400  -17.6420 N.am      2 SEC2        0.0000 
     61 N           7.7350  -15.4080  -17.7910 N.am      8 SEL2        0.0000 
     62 N           9.3540  -12.8720  -17.4930 N.am      5 SEP2        0.0000 
     63 CA         12.3600  -15.7225  -13.4180 C.3       3 GLC5        0.0000 
     64 CA         10.4680  -16.4100  -13.5350 C.3       9 GLL5        0.0000 
     65 CA         14.2520  -15.0350  -13.3010 C.3       6 GLP5        0.0000 
     66 CA          7.4075  -14.2955  -11.8270 C.3       3 GLC5        0.0000 
     67 CA          8.3320  -15.2140  -13.6010 C.3       9 GLL5        0.0000 
     68 CA          6.4830  -13.3770  -10.0530 C.3       6 GLP5        0.0000 
     69 CA          6.9575  -13.8115  -16.5760 C.3       3 GLC5        0.0000 
     70 CA          6.7650  -15.7780  -15.6070 C.3       9 GLL5        0.0000 
     71 CA          7.1500  -11.8450  -17.5450 C.3       6 GLP5        0.0000 
     72 CA         14.9980  -25.4058  -11.4210 C.3       3 GLC5        0.0000 
     73 CA         16.4260  -26.2590  -13.1290 C.3       9 GLL5        0.0000 
     74 CA         13.9400  -24.1850  -10.1800 C.3       6 GLP5        0.0000 
     75 CA         15.1425  -27.4662  -14.1455 C.3       3 GLC5        0.0000 
     76 CA         15.6860  -26.9940  -12.1950 C.3       9 GLL5        0.0000 
     77 CA         14.2290  -28.3060  -15.6290 C.3       6 GLP5        0.0000 
     78 CA         16.4288  -25.4292  -10.1768 C.3       3 GLC5        0.0000 
     79 CA         17.3810  -26.7980  -10.5840 C.3       9 GLL5        0.0000 
     80 CA         15.0770  -24.4230   -9.3270 C.3       6 GLP5        0.0000 
     81 CA         16.3625  -23.0695  -21.4172 C.3       3 GLC5        0.0000 
     82 CA         15.0930  -25.5190  -22.7523 C.3       3 GLC5        0.0000 
     83 CA         14.5450  -26.0330  -24.4650 C.3       6 GLP5        0.0000 
     84 CA         14.8325  -26.6690  -21.4187 C.3       3 GLC5        0.0000 
     85 CA         14.0240  -28.3330  -21.7980 C.3       6 GLP5        0.0000 
     86 CA         14.4760  -23.3995  -11.7380 C.3       3 GLC5        0.0000 
     87 CA         14.3480  -22.4880  -13.4600 C.3       9 GLL5        0.0000 
     88 CA         17.3152  -22.1465  -12.0672 C.3       3 GLC5        0.0000 
     89 CA         15.6760  -22.7400  -13.1320 C.3       9 GLL5        0.0000 
     90 CA         18.4240  -21.8770  -10.6890 C.3       6 GLP5        0.0000 
     91 CA         14.8960  -19.4576  -13.8938 C.3       3 GLC5        0.0000 
     92 CA         15.1550  -20.8940  -15.0960 C.3       9 GLL5        0.0000 
     93 CA         14.0420  -18.1510  -12.6010 C.3       6 GLP5        0.0000 
     94 CA         14.1290  -20.0827  -13.2797 C.3       3 GLC5        0.0000 
     95 CA         14.0840  -21.5410  -14.4570 C.3       9 GLL5        0.0000 
     96 CA         13.5780  -23.5173  -14.6088 C.3       3 GLC5        0.0000 
     97 CA         12.6080  -24.9570  -15.3410 C.3       6 GLP5        0.0000 
     98 CA         12.3490  -22.5007  -13.4947 C.3       3 GLC5        0.0000 
     99 CA         10.4820  -22.9870  -13.0310 C.3       6 GLP5        0.0000 
    100 CA         10.9453  -20.4465  -22.0718 C.3       3 GLC5        0.0000 
    101 CA          9.7800  -19.3170  -20.3610 C.3       9 GLL5        0.0000 
    102 CA         11.8930  -21.9170  -23.1310 C.3       6 GLP5        0.0000 
    103 CA         11.4582  -21.4170  -21.6498 C.3       3 GLC5        0.0000 
    104 CA         10.8283  -15.6445  -15.6002 C.3       3 GLC5        0.0000 
    105 CA          8.8980  -16.7880  -15.3180 C.3       9 GLL5        0.0000 
    106 CA         12.1410  -14.3590  -16.1800 C.3       6 GLP5        0.0000 
    107 CA         10.5737  -18.3505  -13.0445 C.3       3 GLC5        0.0000 
    108 CA         10.1330  -17.0720  -14.7230 C.3       9 GLL5        0.0000 
    109 CA         10.8470  -19.9600  -11.9600 C.3       6 GLP5        0.0000 
    110 CA         11.0813  -15.1487  -14.7252 C.3       3 GLC5        0.0000 
    111 CA         10.7188  -16.1928  -11.6337 C.3       3 GLC5        0.0000 
    112 CA         11.4160  -16.4470   -9.9970 C.3       6 GLP5        0.0000 
    113 CA          6.2488  -16.6653  -13.7500 C.3       3 GLC5        0.0000 
    114 CA          8.0200  -15.9010  -14.7710 C.3       9 GLL5        0.0000 
    115 CA          5.1050  -17.4910  -12.3110 C.3       6 GLP5        0.0000 
    116 CA          8.2279  -16.5391  -12.1374 C.3       3 GLC5        0.0000 
    117 CA          7.2790  -17.5020  -10.8390 C.3       6 GLP5        0.0000 
    118 CA          8.3477  -13.6731  -13.2635 C.3       3 GLC5        0.0000 
    119 CA          9.5750  -15.4670  -13.0060 C.3       9 GLL5        0.0000 
    120 CA          7.8200  -11.8340  -12.9310 C.3       6 GLP5        0.0000 
    121 CA         18.8702  -23.4977  -11.6218 C.3       3 GLC5        0.0000 
    122 CA         19.7420  -24.6320  -13.2880 C.3       9 GLL5        0.0000 
@<TRIPOS>BOND
@<TRIPOS>SUBSTRUCTURE
     1 ALC1        4 GROUP        1 X    ALC  0     ROOT ALC X 1
     2 SEC2        1 GROUP        1 X    SEC  0     **** SEC X 2
     3 GLC5        7 GROUP        1 X    GLC  0     **** GLC X 6
     4 ALP1        6 GROUP        1 Y    ALP  0     ROOT ALP Y 8
     5 SEP2        3 GROUP        1 Y    SEP  0     **** SEP Y 9
     6 GLP5        9 GROUP        1 Y    GLP  0     **** GLP Y 13
     7 ALL1        5 GROUP        1 Z    ALL  0     ROOT ALL Z 15
     8 SEL2        2 GROUP        1 Z    SEL  0     **** SEL Z 16
     9 GLL5        8 GROUP        1 Z    GLL  0     **** GLL Z 20
@<TRIPOS>SET

