#    Name: 2pk6_O33_1_ligand
#    Modification time : Mon Mar 24 19:05:24 2014

@<TRIPOS>MOLECULE
2pk6_O33_1_ligand
   99   104     1     0     0
SMALL
NO_CHARGES


@<TRIPOS>ATOM
      1 C30        15.6860  -26.9940  -12.1950 C.ar      1 O33301      0.0000 
      2 C31        16.4260  -26.2590  -13.1290 C.ar      1 O33301      0.0000 
      3 C28        17.6920  -25.8110  -12.7590 C.ar      1 O33301      0.0000 
      4 C27        18.1800  -26.0730  -11.4690 C.ar      1 O33301      0.0000 
      5 C29        17.3810  -26.7980  -10.5840 C.ar      1 O33301      0.0000 
      6 C23        18.4790  -25.1030  -13.6620 C.ar      1 O33301      0.0000 
      7 C24        19.7420  -24.6320  -13.2880 C.ar      1 O33301      0.0000 
      8 C25        20.2290  -24.8940  -11.9930 C.ar      1 O33301      0.0000 
      9 C26        19.4510  -25.6170  -11.0820 C.ar      1 O33301      0.0000 
     10 C21        18.8150  -24.3370  -15.9260 C.3       1 O33301      0.0000 
     11 C1         18.0340  -23.9650  -17.1730 C.2       1 O33301      0.0000 
     12 N5         16.1700  -27.2340  -10.9730 N.ar      1 O33301      0.0000 
     13 O6         17.9720  -24.8750  -14.9170 O.3       1 O33301      0.0000 
     14 O5         18.6350  -23.3970  -18.0630 O.2       1 O33301      0.0000 
     15 N1         16.7260  -24.2570  -17.2110 N.am      1 O33301      0.0000 
     16 C2         15.9530  -23.8890  -18.3860 C.3       1 O33301      0.0000 
     17 C20        15.3020  -25.1590  -18.9590 C.3       1 O33301      0.0000 
     18 S2         14.8720  -24.8170  -20.6480 S.3       1 O33301      0.0000 
     19 C22        16.4100  -25.1930  -21.4310 C.3       1 O33301      0.0000 
     20 C3         14.8850  -22.8850  -18.0680 C.2       1 O33301      0.0000 
     21 O3         13.6970  -23.2180  -18.0810 O.2       1 O33301      0.0000 
     22 C6         12.9240  -19.0080  -18.5910 C.2       1 O33301      0.0000 
     23 N2         15.3240  -21.6550  -17.7640 N.am      1 O33301      0.0000 
     24 O2         12.8560  -17.9940  -17.9400 O.2       1 O33301      0.0000 
     25 C5         14.2200  -19.7600  -18.6590 C.3       1 O33301      0.0000 
     26 C8         15.1550  -20.8940  -15.0960 C.ar      1 O33301      0.0000 
     27 C7         14.8850  -19.8750  -16.1840 C.3       1 O33301      0.0000 
     28 C11        15.6760  -22.7400  -13.1320 C.ar      1 O33301      0.0000 
     29 C4         14.3500  -20.6270  -17.4120 C.3       1 O33301      0.0000 
     30 O1         15.3170  -18.8320  -18.7190 O.3       1 O33301      0.0000 
     31 C9         16.4800  -21.1440  -14.7330 C.ar      1 O33301      0.0000 
     32 C13        14.0840  -21.5410  -14.4570 C.ar      1 O33301      0.0000 
     33 C10        16.7370  -22.0920  -13.7590 C.ar      1 O33301      0.0000 
     34 C12        14.3480  -22.4880  -13.4600 C.ar      1 O33301      0.0000 
     35 C17         9.8800  -18.7330  -17.9150 C.2       1 O33301      0.0000 
     36 N3         11.8850  -19.5130  -19.2340 N.am      1 O33301      0.0000 
     37 O4          9.8570  -19.7290  -17.1390 O.2       1 O33301      0.0000 
     38 C16        10.6470  -18.7390  -19.2290 C.3       1 O33301      0.0000 
     39 C15         9.7800  -19.3170  -20.3610 C.3       1 O33301      0.0000 
     40 C14        11.8660  -20.7700  -19.9840 C.3       1 O33301      0.0000 
     41 C18         8.2690  -19.0930  -20.2450 C.3       1 O33301      0.0000 
     42 C19        10.2150  -18.6350  -21.6640 C.3       1 O33301      0.0000 
     43 S1         10.1810  -21.0640  -20.3530 S.3       1 O33301      0.0000 
     44 N4          9.2240  -17.5840  -17.7020 N.am      1 O33301      0.0000 
     45 O7          7.7350  -15.4080  -17.7910 O.3       1 O33301      0.0000 
     46 C32         8.3460  -17.3970  -16.5450 C.3       1 O33301      0.0000 
     47 C33         8.8980  -16.7880  -15.3180 C.ar      1 O33301      0.0000 
     48 C37        10.1330  -17.0720  -14.7230 C.ar      1 O33301      0.0000 
     49 C38        10.4680  -16.4100  -13.5350 C.ar      1 O33301      0.0000 
     50 C36         7.2160  -16.4220  -16.9170 C.3       1 O33301      0.0000 
     51 C34         8.0200  -15.9010  -14.7710 C.ar      1 O33301      0.0000 
     52 C40         8.3320  -15.2140  -13.6010 C.ar      1 O33301      0.0000 
     53 C39         9.5750  -15.4670  -13.0060 C.ar      1 O33301      0.0000 
     54 C35         6.7650  -15.7780  -15.6070 C.3       1 O33301      0.0000 
     55 H          14.7487  -27.3462  -12.4838 H         1 O33301      0.0000 
     56 H          16.0481  -26.0601  -14.0481 H         1 O33301      0.0000 
     57 H          17.7415  -26.9885   -9.6320 H         1 O33301      0.0000 
     58 H          20.3118  -24.0998  -13.9485 H         1 O33301      0.0000 
     59 H          21.1564  -24.5525  -11.7207 H         1 O33301      0.0000 
     60 H          19.8018  -25.8126  -10.1439 H         1 O33301      0.0000 
     61 H          19.3398  -23.4282  -15.5750 H         1 O33301      0.0000 
     62 H          19.6014  -25.0560  -16.2244 H         1 O33301      0.0000 
     63 H          16.2322  -24.7297  -16.4525 H         1 O33301      0.0000 
     64 H          16.6005  -23.4888  -19.1552 H         1 O33301      0.0000 
     65 H          14.3792  -25.3870  -18.5108 H         1 O33301      0.0000 
     66 H          15.9701  -25.9667  -19.0332 H         1 O33301      0.0000 
     67 H          16.3070  -21.3891  -17.7631 H         1 O33301      0.0000 
     68 H          14.2064  -20.4048  -19.5170 H         1 O33301      0.0000 
     69 H          15.7982  -19.3698  -16.4499 H         1 O33301      0.0000 
     70 H          14.1425  -19.1694  -15.8513 H         1 O33301      0.0000 
     71 H          15.8861  -23.4423  -12.3867 H         1 O33301      0.0000 
     72 H          13.4146  -21.0729  -17.1871 H         1 O33301      0.0000 
     73 H          17.2408  -20.6333  -15.1818 H         1 O33301      0.0000 
     74 H          13.1226  -21.3211  -14.7188 H         1 O33301      0.0000 
     75 H          17.7032  -22.3194  -13.4970 H         1 O33301      0.0000 
     76 H          13.5907  -22.9732  -12.9937 H         1 O33301      0.0000 
     77 H          10.8629  -17.7035  -19.5170 H         1 O33301      0.0000 
     78 H          12.1406  -21.6211  -19.4227 H         1 O33301      0.0000 
     79 H          12.3152  -20.7195  -20.9382 H         1 O33301      0.0000 
     80 H           9.3055  -16.7715  -18.3451 H         1 O33301      0.0000 
     81 H           7.8350  -18.3255  -16.2798 H         1 O33301      0.0000 
     82 H          10.7697  -17.7406  -15.1416 H         1 O33301      0.0000 
     83 H          11.3468  -16.6099  -13.0618 H         1 O33301      0.0000 
     84 H           6.4185  -16.9645  -17.3314 H         1 O33301      0.0000 
     85 H           7.6858  -14.5535  -13.1909 H         1 O33301      0.0000 
     86 H           9.8422  -14.9433  -12.1518 H         1 O33301      0.0000 
     87 H           5.9862  -16.3444  -15.1827 H         1 O33301      0.0000 
     88 H           6.5329  -14.7648  -15.7710 H         1 O33301      0.0000 
     89 H          17.1789  -24.7473  -20.9726 H         1 O33301      0.0000 
     90 H          16.5972  -26.1753  -21.4293 H         1 O33301      0.0000 
     91 H          16.4240  -24.8936  -22.3850 H         1 O33301      0.0000 
     92 H           8.0383  -18.1202  -20.2233 H         1 O33301      0.0000 
     93 H           7.7738  -19.4945  -21.0154 H         1 O33301      0.0000 
     94 H           7.8959  -19.5013  -19.4119 H         1 O33301      0.0000 
     95 H          11.1809  -18.7987  -21.8644 H         1 O33301      0.0000 
     96 H           9.6924  -18.9669  -22.4493 H         1 O33301      0.0000 
     97 H          10.0877  -17.6439  -21.6249 H         1 O33301      0.0000 
     98 H          15.2379  -18.3956  -19.6153 H         1 O33301      0.0000 
     99 H           7.1469  -15.4374  -18.5993 H         1 O33301      0.0000 
@<TRIPOS>BOND
     1    2    1 ar   
     2   12    1 ar   
     3   55    1 1    
     4    3    2 ar   
     5   56    2 1    
     6    4    3 ar   
     7    6    3 ar   
     8    5    4 ar   
     9    9    4 ar   
    10   12    5 ar   
    11   57    5 1    
    12    7    6 ar   
    13   13    6 1    
    14    8    7 ar   
    15   58    7 1    
    16    9    8 ar   
    17   59    8 1    
    18   60    9 1    
    19   11   10 1    
    20   13   10 1    
    21   61   10 1    
    22   62   10 1    
    23   14   11 2    
    24   15   11 am   
    25   16   15 1    
    26   63   15 1    
    27   17   16 1    
    28   20   16 1    
    29   64   16 1    
    30   18   17 1    
    31   65   17 1    
    32   66   17 1    
    33   19   18 1    
    34   89   19 1    
    35   90   19 1    
    36   91   19 1    
    37   21   20 2    
    38   23   20 am   
    39   24   22 2    
    40   25   22 1    
    41   36   22 am   
    42   29   23 1    
    43   67   23 1    
    44   29   25 1    
    45   30   25 1    
    46   68   25 1    
    47   27   26 1    
    48   31   26 ar   
    49   32   26 ar   
    50   29   27 1    
    51   69   27 1    
    52   70   27 1    
    53   33   28 ar   
    54   34   28 ar   
    55   71   28 1    
    56   72   29 1    
    57   98   30 1    
    58   33   31 ar   
    59   73   31 1    
    60   34   32 ar   
    61   74   32 1    
    62   75   33 1    
    63   76   34 1    
    64   37   35 2    
    65   38   35 1    
    66   44   35 am   
    67   38   36 1    
    68   40   36 1    
    69   39   38 1    
    70   77   38 1    
    71   41   39 1    
    72   42   39 1    
    73   43   39 1    
    74   43   40 1    
    75   78   40 1    
    76   79   40 1    
    77   92   41 1    
    78   93   41 1    
    79   94   41 1    
    80   95   42 1    
    81   96   42 1    
    82   97   42 1    
    83   46   44 1    
    84   80   44 1    
    85   50   45 1    
    86   99   45 1    
    87   47   46 1    
    88   50   46 1    
    89   81   46 1    
    90   48   47 ar   
    91   51   47 ar   
    92   49   48 ar   
    93   82   48 1    
    94   53   49 ar   
    95   83   49 1    
    96   54   50 1    
    97   84   50 1    
    98   52   51 ar   
    99   54   51 1    
   100   53   52 ar   
   101   85   52 1    
   102   86   53 1    
   103   87   54 1    
   104   88   54 1    
@<TRIPOS>SUBSTRUCTURE
     1 O33301      1 GROUP   
@<TRIPOS>SET

