#    Name: 2q5g_1FA_1_INTS_M
#    Modification time : Mon Mar 24 20:46:27 2014

@<TRIPOS>MOLECULE
2q5g_1FA_1_INTS_M
  116     0     6     0     0
SMALL
NO_CHARGES


@<TRIPOS>ATOM
      1 CA        -10.4340   -5.0285   44.7870 C.3       2 GLC5        0.0000 
      2 CA        -11.0060   -6.0790   43.0630 C.3       6 GLL5        0.0000 
      3 CA         -9.8620   -3.9780   46.5110 C.3       4 GLP5        0.0000 
      4 CA        -13.8010   -7.6730   41.4065 C.3       2 GLC5        0.0000 
      5 CA        -13.1200   -5.9020   42.5260 C.3       6 GLL5        0.0000 
      6 CA        -14.4820   -9.4440   40.2870 C.3       4 GLP5        0.0000 
      7 CA        -14.5175   -5.3445   41.6280 C.3       2 GLC5        0.0000 
      8 CA        -15.9150   -4.7870   40.7300 C.3       4 GLP5        0.0000 
      9 CA        -12.6820   -9.3075   42.2270 C.3       2 GLC5        0.0000 
     10 CA        -12.0480   -7.7740   42.4750 C.3       6 GLL5        0.0000 
     11 CA        -13.3160  -10.8410   41.9790 C.3       4 GLP5        0.0000 
     12 CA        -11.0660   -9.2615   43.8125 C.3       2 GLC5        0.0000 
     13 CA        -10.0840  -10.7490   45.1500 C.3       4 GLP5        0.0000 
     14 CA         -8.8370   -6.6570   40.9075 C.3       2 GLC5        0.0000 
     15 CA        -10.7620   -6.9070   40.0400 C.3       6 GLL5        0.0000 
     16 CA         -6.9120   -6.4070   41.7750 C.3       4 GLP5        0.0000 
     17 CA         -9.5245   -8.4590   40.6510 C.3       2 GLC5        0.0000 
     18 CA         -8.2870  -10.0110   41.2620 C.3       4 GLP5        0.0000 
     19 CA         -8.1925   -6.2995   38.5380 C.3       2 GLC5        0.0000 
     20 CA        -10.3420   -6.4990   38.7800 C.3       6 GLL5        0.0000 
     21 CA         -6.0430   -6.1000   38.2960 C.3       4 GLP5        0.0000 
     22 CA        -11.5665   -4.7295   35.0665 C.3       2 GLC5        0.0000 
     23 CA         -9.5940   -3.8930   34.9270 C.3       6 GLL5        0.0000 
     24 CA        -13.5390   -5.5660   35.2060 C.3       4 GLP5        0.0000 
     25 CA        -10.7405   -6.0780   34.7405 C.3       2 GLC5        0.0000 
     26 CA         -9.7090   -4.6070   33.7290 C.3       6 GLL5        0.0000 
     27 CA        -11.7720   -7.5490   35.7520 C.3       4 GLP5        0.0000 
     28 CA         -4.8810    0.0145   31.8445 C.3       2 GLC5        0.0000 
     29 CA         -5.5920    1.9860   32.2570 C.3       6 GLL5        0.0000 
     30 CA         -4.1700   -1.9570   31.4320 C.3       4 GLP5        0.0000 
     31 CA         -5.2190    4.8640   33.6400 C.3       2 GLC5        0.0000 
     32 CA         -5.0740    3.4240   32.1570 C.3       6 GLL5        0.0000 
     33 CA         -5.3640    6.3040   35.1230 C.3       4 GLP5        0.0000 
     34 CA         -2.9420    2.8300   32.2775 C.3       2 GLC5        0.0000 
     35 CA         -0.8100    2.2360   32.3980 C.3       4 GLP5        0.0000 
     36 CA         -8.9760    2.6465   29.9380 C.3       2 GLC5        0.0000 
     37 CA         -7.8250    2.8290   31.4440 C.3       6 GLL5        0.0000 
     38 CA        -10.1270    2.4640   28.4320 C.3       4 GLP5        0.0000 
     39 CA         -6.2890    2.1600   29.9930 C.3       2 GLC5        0.0000 
     40 CA         -4.7530    1.4910   28.5420 C.3       4 GLP5        0.0000 
     41 CA         -9.3980   -2.6410   30.3405 C.3       2 GLC5        0.0000 
     42 CA         -8.9420   -2.6700   32.5130 C.3       6 GLL5        0.0000 
     43 CA         -9.8540   -2.6120   28.1680 C.3       4 GLP5        0.0000 
     44 CA         -9.6755   -3.7055   29.5975 C.3       2 GLC5        0.0000 
     45 CA         -9.4970   -4.7990   31.0270 C.3       6 GLL5        0.0000 
     46 CA         -9.1175   -5.9050   29.5980 C.3       2 GLC5        0.0000 
     47 CA         -8.7380   -7.0110   28.1690 C.3       4 GLP5        0.0000 
     48 CA         -7.3670   -5.2065   31.6095 C.3       2 GLC5        0.0000 
     49 CA         -5.2370   -5.6140   32.1920 C.3       4 GLP5        0.0000 
     50 CA         -8.7185   -7.3660   30.1860 C.3       2 GLC5        0.0000 
     51 CA         -8.6990   -7.7210   32.2030 C.3       6 GLL5        0.0000 
     52 CA         -6.9680   -6.6675   32.1975 C.3       2 GLC5        0.0000 
     53 CA         -8.1355  -11.0350   33.1375 C.3       2 GLC5        0.0000 
     54 CA         -8.8890   -9.2410   32.3130 C.3       6 GLL5        0.0000 
     55 CA         -7.3820  -12.8290   33.9620 C.3       4 GLP5        0.0000 
     56 CA        -11.0590   -8.5850   34.1900 C.3       2 GLC5        0.0000 
     57 CA        -10.3460   -9.6210   32.6280 C.3       6 GLL5        0.0000 
     58 CA         -9.8125  -10.9345   34.1800 C.3       2 GLC5        0.0000 
     59 CA         -9.2790  -12.2480   35.7320 C.3       4 GLP5        0.0000 
     60 CA        -14.1825  -11.6245   32.2380 C.3       2 GLC5        0.0000 
     61 CA        -14.0510   -9.9960   30.9990 C.3       6 GLL5        0.0000 
     62 CA        -14.3140  -13.2530   33.4770 C.3       4 GLP5        0.0000 
     63 CA        -12.5720  -11.4265   31.5035 C.3       2 GLC5        0.0000 
     64 CA        -11.0930  -12.8570   32.0080 C.3       4 GLP5        0.0000 
     65 CA        -14.7245  -11.4905   30.4350 C.3       2 GLC5        0.0000 
     66 CA        -15.3980  -12.9850   29.8710 C.3       4 GLP5        0.0000 
     67 N         -13.4850   -9.4890   28.6500 N.am      1 SEC2        0.0000 
     68 N         -14.5640   -8.6390   29.0860 N.am      5 SEL2        0.0000 
     69 N         -12.4060  -10.3390   28.2140 N.am      3 SEP2        0.0000 
     70 CA        -11.9210   -8.2082   40.7347 C.3       2 GLC5        0.0000 
     71 CA        -11.9530   -6.4730   42.2450 C.3       6 GLL5        0.0000 
     72 CA        -12.1160  -10.1550   39.9190 C.3       4 GLP5        0.0000 
     73 CA        -13.3975   -5.6747   40.5373 C.3       2 GLC5        0.0000 
     74 CA        -11.4990   -6.0500   40.8560 C.3       6 GLL5        0.0000 
     75 CA        -15.0690   -5.0880   39.5240 C.3       4 GLP5        0.0000 
     76 CA        -12.8189   -7.0198   44.1082 C.3       2 GLC5        0.0000 
     77 CA        -13.4640   -7.1080   45.6840 C.3       4 GLP5        0.0000 
     78 CA         -9.9114   -7.1655   43.1762 C.3       2 GLC5        0.0000 
     79 CA         -8.0590   -7.3060   43.7880 C.3       4 GLP5        0.0000 
     80 CA        -11.3340   -8.4290   39.6645 C.3       2 GLC5        0.0000 
     81 CA        -11.1620   -7.1260   37.5810 C.3       2 GLC5        0.0000 
     82 CA        -13.3197   -4.8205   39.6440 C.3       2 GLC5        0.0000 
     83 CA        -11.3560   -4.3440   39.1320 C.3       6 GLL5        0.0000 
     84 CA         -9.7211   -3.8230   40.0235 C.3       2 GLC5        0.0000 
     85 CA        -10.6300   -5.2150   38.3120 C.3       6 GLL5        0.0000 
     86 CA         -8.3420   -2.7620   41.0090 C.3       4 GLP5        0.0000 
     87 CA        -10.9741   -6.1480   36.3200 C.3       2 GLC5        0.0000 
     88 CA         -9.9240   -4.4640   36.0500 C.3       6 GLL5        0.0000 
     89 CA        -10.8660   -2.4307   35.6243 C.3       2 GLC5        0.0000 
     90 CA        -11.9730   -0.6830   35.7600 C.3       4 GLP5        0.0000 
     91 CA         -7.6547   -3.9585   34.0135 C.3       2 GLC5        0.0000 
     92 CA         -5.6580   -3.6670   33.6990 C.3       4 GLP5        0.0000 
     93 CA         -8.0424   -4.0184   36.7170 C.3       2 GLC5        0.0000 
     94 CA         -6.2500   -3.7630   37.6730 C.3       4 GLP5        0.0000 
     95 CA         -7.1550   -2.5162   33.6972 C.3       2 GLC5        0.0000 
     96 CA         -8.8510   -1.9780   33.7170 C.3       6 GLL5        0.0000 
     97 CA         -7.1620   -0.9203   34.7242 C.3       2 GLC5        0.0000 
     98 CA         -5.6720   -0.4750   35.7530 C.3       4 GLP5        0.0000 
     99 CA         -6.7727    0.2570   34.7013 C.3       2 GLC5        0.0000 
    100 CA         -8.0740    0.3700   33.6340 C.3       6 GLL5        0.0000 
    101 CA         -5.0430    2.0980   30.3745 C.3       2 GLC5        0.0000 
    102 CA         -4.4960    2.1925   33.8525 C.3       2 GLC5        0.0000 
    103 CA         -3.6590    1.6800   35.4980 C.3       4 GLP5        0.0000 
    104 CA        -10.6010   -1.3799   33.7066 C.3       2 GLC5        0.0000 
    105 CA        -12.4050   -0.7420   34.3090 C.3       4 GLP5        0.0000 
    106 CA         -7.4070   -3.4975   33.1060 C.3       2 GLC5        0.0000 
    107 CA        -12.1627   -6.4527   32.9475 C.3       2 GLC5        0.0000 
    108 CA        -10.5990   -6.0570   31.2710 C.3       6 GLL5        0.0000 
    109 CA        -13.0420   -6.9190   34.7560 C.3       4 GLP5        0.0000 
    110 CA        -12.8595   -7.2540   33.1285 C.3       2 GLC5        0.0000 
    111 CA        -12.8750   -6.9600   31.2460 C.3       6 GLL5        0.0000 
    112 CA        -11.8068   -7.3990   33.3500 C.3       2 GLC5        0.0000 
    113 CA        -11.0420   -8.4170   32.0670 C.3       6 GLL5        0.0000 
    114 CA         -7.4080   -9.3520   31.5055 C.3       2 GLC5        0.0000 
    115 CA         -6.0220  -10.2230   30.7530 C.3       4 GLP5        0.0000 
    116 CA        -10.7114  -10.8905   32.1384 C.3       2 GLC5        0.0000 
@<TRIPOS>BOND
@<TRIPOS>SUBSTRUCTURE
     1 SEC2       67 GROUP        1 X    SEC  0     ROOT SEC X 2
     2 GLC5        1 GROUP        1 X    GLC  0     **** GLC X 6
     3 SEP2       69 GROUP        1 Y    SEP  0     ROOT SEP Y 9
     4 GLP5        3 GROUP        1 Y    GLP  0     **** GLP Y 13
     5 SEL2       68 GROUP        1 Z    SEL  0     ROOT SEL Z 16
     6 GLL5        2 GROUP        1 Z    GLL  0     **** GLL Z 20
@<TRIPOS>SET

