#    Name: 2q5g_1FA_1_ligand
#    Modification time : Mon Mar 24 20:46:27 2014

@<TRIPOS>MOLECULE
2q5g_1FA_1_ligand
   69    73     1     0     0
SMALL
NO_CHARGES


@<TRIPOS>ATOM
      1 F25       -11.0060   -6.0790   43.0630 F         1 1FA501      0.0000 
      2 C24       -11.9530   -6.4730   42.2450 C.3       1 1FA501      0.0000 
      3 F27       -13.1200   -5.9020   42.5260 F         1 1FA501      0.0000 
      4 F26       -12.0480   -7.7740   42.4750 F         1 1FA501      0.0000 
      5 C21       -11.4990   -6.0500   40.8560 C.ar      1 1FA501      0.0000 
      6 C22       -10.7620   -6.9070   40.0400 C.ar      1 1FA501      0.0000 
      7 C23       -10.3420   -6.4990   38.7800 C.ar      1 1FA501      0.0000 
      8 C20       -11.7850   -4.7620   40.3960 C.ar      1 1FA501      0.0000 
      9 C19       -11.3560   -4.3440   39.1320 C.ar      1 1FA501      0.0000 
     10 C18       -10.6300   -5.2150   38.3120 C.ar      1 1FA501      0.0000 
     11 C17       -10.2270   -4.8450   37.1400 C.1       1 1FA501      0.0000 
     12 C16        -9.9240   -4.4640   36.0500 C.1       1 1FA501      0.0000 
     13 C3         -9.5940   -3.8930   34.9270 C.ar      1 1FA501      0.0000 
     14 C4         -9.7090   -4.6070   33.7290 C.ar      1 1FA501      0.0000 
     15 N2         -9.1730   -2.5870   34.8980 N.ar      1 1FA501      0.0000 
     16 C1         -8.8510   -1.9780   33.7170 C.ar      1 1FA501      0.0000 
     17 C7         -8.4530   -0.7530   33.6740 C.1       1 1FA501      0.0000 
     18 C8         -8.0740    0.3700   33.6340 C.1       1 1FA501      0.0000 
     19 C9         -7.6730    1.6080   33.6650 C.3       1 1FA501      0.0000 
     20 N10        -7.0300    2.1230   32.4440 N.4       1 1FA501      0.0000 
     21 C11        -5.5920    1.9860   32.2570 C.3       1 1FA501      0.0000 
     22 C12        -5.0740    3.4240   32.1570 C.3       1 1FA501      0.0000 
     23 O13        -5.8590    4.2370   31.2520 O.3       1 1FA501      0.0000 
     24 C14        -7.2770    4.2530   31.5060 C.3       1 1FA501      0.0000 
     25 C15        -7.8250    2.8290   31.4440 C.3       1 1FA501      0.0000 
     26 C6         -8.9420   -2.6700   32.5130 C.ar      1 1FA501      0.0000 
     27 C5         -9.3700   -3.9860   32.5130 C.ar      1 1FA501      0.0000 
     28 S28        -9.4970   -4.7990   31.0270 S.3       1 1FA501      0.0000 
     29 C29       -10.5990   -6.0570   31.2710 C.ar      1 1FA501      0.0000 
     30 C30       -11.9680   -5.9160   31.0070 C.ar      1 1FA501      0.0000 
     31 C31       -12.8750   -6.9600   31.2460 C.ar      1 1FA501      0.0000 
     32 C34       -10.1010   -7.3410   31.8210 C.ar      1 1FA501      0.0000 
     33 C35        -8.6990   -7.7210   32.2030 C.3       1 1FA501      0.0000 
     34 C36        -8.8890   -9.2410   32.3130 C.3       1 1FA501      0.0000 
     35 C37       -10.3460   -9.6210   32.6280 C.3       1 1FA501      0.0000 
     36 C33       -11.0420   -8.4170   32.0670 C.ar      1 1FA501      0.0000 
     37 C32       -12.4790   -8.2180   31.7560 C.ar      1 1FA501      0.0000 
     38 O38       -13.3820   -9.2450   32.0090 O.3       1 1FA501      0.0000 
     39 C39       -14.0510   -9.9960   30.9990 C.3       1 1FA501      0.0000 
     40 C40       -14.9210   -9.0440   30.2280 C.2       1 1FA501      0.0000 
     41 O42       -14.5640   -8.6390   29.0860 O.co2     1 1FA501      0.0000 
     42 O41       -15.9590   -8.6830   30.8160 O.co2     1 1FA501      0.0000 
     43 H         -10.5269   -7.8542   40.3773 H         1 1FA501      0.0000 
     44 H          -9.8105   -7.1504   38.1801 H         1 1FA501      0.0000 
     45 H         -12.3174   -4.1128   40.9936 H         1 1FA501      0.0000 
     46 H         -11.5742   -3.3956   38.8047 H         1 1FA501      0.0000 
     47 H         -10.0372   -5.5746   33.7338 H         1 1FA501      0.0000 
     48 H          -6.9396    1.8162   34.5218 H         1 1FA501      0.0000 
     49 H          -8.5181    2.3427   33.9126 H         1 1FA501      0.0000 
     50 H          -7.2583    0.8784   31.7763 H         1 1FA501      0.0000 
     51 H          -5.3593    1.4755   31.3435 H         1 1FA501      0.0000 
     52 H          -5.1272    1.5141   33.0999 H         1 1FA501      0.0000 
     53 H          -4.0178    3.3787   31.8343 H         1 1FA501      0.0000 
     54 H          -5.0739    3.8524   33.1760 H         1 1FA501      0.0000 
     55 H          -7.8103    4.8530   30.7627 H         1 1FA501      0.0000 
     56 H          -7.5019    4.6588   32.4968 H         1 1FA501      0.0000 
     57 H          -8.8584    2.8467   31.7055 H         1 1FA501      0.0000 
     58 H          -7.6600    2.4395   30.4654 H         1 1FA501      0.0000 
     59 H          -8.6927   -2.2045   31.6333 H         1 1FA501      0.0000 
     60 H         -12.3202   -5.0194   30.6260 H         1 1FA501      0.0000 
     61 H         -13.8852   -6.8057   31.0401 H         1 1FA501      0.0000 
     62 H          -8.4516   -7.3333   33.1402 H         1 1FA501      0.0000 
     63 H          -8.0328   -7.5096   31.4275 H         1 1FA501      0.0000 
     64 H          -8.2420   -9.6259   33.1043 H         1 1FA501      0.0000 
     65 H          -8.5957   -9.7072   31.3698 H         1 1FA501      0.0000 
     66 H         -10.4726   -9.6759   33.6653 H         1 1FA501      0.0000 
     67 H         -10.6020  -10.4832   32.0931 H         1 1FA501      0.0000 
     68 H         -14.6832  -10.7737   31.4276 H         1 1FA501      0.0000 
     69 H         -13.3464  -10.4588   30.3079 H         1 1FA501      0.0000 
@<TRIPOS>BOND
     1    2    1 1    
     2    3    2 1    
     3    4    2 1    
     4    5    2 1    
     5    6    5 ar   
     6    8    5 ar   
     7    7    6 ar   
     8   43    6 1    
     9   10    7 ar   
    10   44    7 1    
    11    9    8 ar   
    12   45    8 1    
    13   10    9 ar   
    14   46    9 1    
    15   11   10 1    
    16   12   11 3    
    17   13   12 1    
    18   14   13 ar   
    19   15   13 ar   
    20   27   14 ar   
    21   47   14 1    
    22   16   15 ar   
    23   17   16 1    
    24   26   16 ar   
    25   18   17 3    
    26   19   18 1    
    27   20   19 1    
    28   48   19 1    
    29   49   19 1    
    30   21   20 1    
    31   25   20 1    
    32   50   20 1    
    33   22   21 1    
    34   51   21 1    
    35   52   21 1    
    36   23   22 1    
    37   53   22 1    
    38   54   22 1    
    39   24   23 1    
    40   25   24 1    
    41   55   24 1    
    42   56   24 1    
    43   57   25 1    
    44   58   25 1    
    45   27   26 ar   
    46   59   26 1    
    47   28   27 1    
    48   29   28 1    
    49   30   29 ar   
    50   32   29 ar   
    51   31   30 ar   
    52   60   30 1    
    53   37   31 ar   
    54   61   31 1    
    55   33   32 1    
    56   36   32 ar   
    57   34   33 1    
    58   62   33 1    
    59   63   33 1    
    60   35   34 1    
    61   64   34 1    
    62   65   34 1    
    63   36   35 1    
    64   66   35 1    
    65   67   35 1    
    66   37   36 ar   
    67   38   37 1    
    68   39   38 1    
    69   40   39 1    
    70   68   39 1    
    71   69   39 1    
    72   41   40 ar   
    73   42   40 ar   
@<TRIPOS>SUBSTRUCTURE
     1 1FA501      1 GROUP   
@<TRIPOS>SET

