#    Name: 1V25_1_CAVITY_N1_6.mol2
#    Modification time : Tue Mar 11 14:54:31 2014

@<TRIPOS>MOLECULE
1V25_1_CAVITY_N1_6.mol2
   73     0     6     0     0
SMALL
NO_CHARGES


@<TRIPOS>ATOM
      1 O          -2.3922   58.3030  156.3431 O.2       1 ALA2        0.0000 
      2 O          -2.4261   57.1008  157.2395 O.2       1 ALA2        0.0000 
      3 NZ         -2.4601   55.8985  158.1358 N.2       3 LYS4        0.0000 
      4 NZ         -2.4941   54.6963  159.0322 N.2       3 LYS4        0.0000 
      5 CA         -2.7539   58.6476  154.2814 C.3       5 GLY6        0.0000 
      6 O          -2.7879   57.4454  155.1778 O.2       1 ALA2        0.0000 
      7 O          -2.8218   56.2431  156.0742 O.2       1 ALA2        0.0000 
      8 CA         -2.8558   55.0409  156.9705 C.3       5 GLY6        0.0000 
      9 CZ         -2.8898   53.8387  157.8669 C.ar      4 PHE5        0.0000 
     10 O          -3.1157   58.9922  152.2198 O.2       1 ALA2        0.0000 
     11 O          -3.2175   55.3855  154.9089 O.2       1 ALA2        0.0000 
     12 CA         -3.2515   54.1832  155.8053 C.3       5 GLY6        0.0000 
     13 CA         -3.6472   53.3256  154.6400 C.3       5 GLY6        0.0000 
     14 O          -6.7316   59.0915  157.2363 O.2       1 ALA2        0.0000 
     15 N          -6.7655   57.8893  158.1327 N.2       1 ALA2        0.0000 
     16 N          -7.1273   58.2339  156.0710 N.2       1 ALA2        0.0000 
     17 CA         -7.1612   57.0317  156.9674 C.3       5 GLY6        0.0000 
     18 N          -7.5230   57.3763  154.9057 N.2       1 ALA2        0.0000 
     19 N          -7.5569   56.1740  155.8021 N.2       1 ALA2        0.0000 
     20 N          -7.9187   56.5186  153.7405 N.2       1 ALA2        0.0000 
     21 O          -5.2511   60.0309  156.0422 O.2       1 ALA2        0.0000 
     22 O          -5.2851   58.8287  156.9385 O.2       1 ALA2        0.0000 
     23 O          -5.3191   57.6265  157.8349 O.2       1 ALA2        0.0000 
     24 CA         -5.3530   56.4242  158.7313 C.3       5 GLY6        0.0000 
     25 DU         -5.6468   59.1733  154.8769 H         6 CUB7        0.0000 
     26 O          -5.6808   57.9711  155.7733 O.2       1 ALA2        0.0000 
     27 CA         -5.7148   56.7688  156.6696 C.3       5 GLY6        0.0000 
     28 CA         -6.0426   58.3156  153.7116 C.3       5 GLY6        0.0000 
     29 CA         -6.0765   57.1134  154.6080 C.3       5 GLY6        0.0000 
     30 CA         -6.1105   55.9112  155.5044 C.3       5 GLY6        0.0000 
     31 CA         -6.4383   57.4580  152.5463 C.3       5 GLY6        0.0000 
     32 N          -6.5062   55.0535  154.3391 N.2       1 ALA2        0.0000 
     33 N           1.8793   55.1100  157.2426 N.2       1 ALA2        0.0000 
     34 O           1.4836   54.2523  156.0773 O.2       1 ALA2        0.0000 
     35 O           1.4496   53.0501  156.9737 O.2       1 ALA2        0.0000 
     36 CZ         -0.2222   57.3510  160.1686 C.ar      4 PHE5        0.0000 
     37 OD1        -0.2562   56.1487  161.0650 O.3       2 ASP3        0.0000 
     38 N          -0.5840   57.6955  158.1070 N.2       1 ALA2        0.0000 
     39 DU         -0.6179   56.4933  159.0034 H         6 CUB7        0.0000 
     40 NZ         -0.6519   55.2911  159.8997 N.2       3 LYS4        0.0000 
     41 N          -0.9797   56.8379  156.9417 N.2       1 ALA2        0.0000 
     42 N          -1.0136   55.6357  157.8381 N.2       1 ALA2        0.0000 
     43 CZ         -1.0476   54.4334  158.7345 C.ar      4 PHE5        0.0000 
     44 CA         -1.3754   55.9803  155.7764 C.3       5 GLY6        0.0000 
     45 CZ         -1.4093   54.7780  156.6728 C.ar      4 PHE5        0.0000 
     46 O          -1.7711   55.1226  154.6112 O.2       1 ALA2        0.0000 
     47 CZ         -1.8050   53.9204  155.5075 C.ar      4 PHE5        0.0000 
     48 O          -2.2008   53.0628  154.3423 O.2       1 ALA2        0.0000 
     49 CZ         -2.2347   51.8605  155.2386 C.ar      4 PHE5        0.0000 
     50 O          -2.0304   57.9584  158.4047 O.2       1 ALA2        0.0000 
     51 NZ         -2.0644   56.7562  159.3011 N.2       3 LYS4        0.0000 
     52 CZ          1.2242   57.0881  159.8709 C.ar      4 PHE5        0.0000 
     53 OD1         0.8285   56.2305  158.7056 O.3       2 ASP3        0.0000 
     54 N           0.4328   55.3728  157.5404 N.2       1 ALA2        0.0000 
     55 N           0.3989   54.1706  158.4367 N.2       1 ALA2        0.0000 
     56 N           0.0371   54.5152  156.3751 N.2       1 ALA2        0.0000 
     57 O          -0.3246   54.8598  154.3134 O.2       1 ALA2        0.0000 
     58 CZ         -0.3586   53.6575  155.2098 C.ar      4 PHE5        0.0000 
     59 N          -0.7543   52.7999  154.0445 N.2       1 ALA2        0.0000 
     60 CA         -3.5109   57.0190  159.5988 C.3       5 GLY6        0.0000 
     61 O          -3.8047   59.7681  155.7444 O.2       1 ALA2        0.0000 
     62 O          -3.8386   58.5658  156.6408 O.2       1 ALA2        0.0000 
     63 O          -3.8726   57.3636  157.5372 O.2       1 ALA2        0.0000 
     64 CA         -3.9066   56.1614  158.4336 C.3       5 GLY6        0.0000 
     65 DU         -4.1664   60.1127  153.6828 H         6 CUB7        0.0000 
     66 O          -4.2004   58.9104  154.5792 O.2       1 ALA2        0.0000 
     67 O          -4.2343   57.7082  155.4755 O.2       1 ALA2        0.0000 
     68 CA         -4.2683   56.5060  156.3719 C.3       5 GLY6        0.0000 
     69 CA         -4.5621   59.2550  152.5175 C.3       5 GLY6        0.0000 
     70 CA         -4.5961   58.0528  153.4139 C.3       5 GLY6        0.0000 
     71 CA         -4.6301   56.8506  154.3103 C.3       5 GLY6        0.0000 
     72 CA         -4.6640   55.6483  155.2066 C.3       5 GLY6        0.0000 
     73 CA         -4.9578   58.3974  151.3522 C.3       5 GLY6        0.0000 
@<TRIPOS>BOND
@<TRIPOS>SUBSTRUCTURE
     1 ALA2        1 GROUP   
     2 ASP3       37 GROUP   
     3 LYS4        3 GROUP   
     4 PHE5        9 GROUP   
     5 GLY6        5 GROUP   
     6 CUB7       25 GROUP   
@<TRIPOS>SET

