#    Name: 1v25_ANP_1_INTS_M
#    Modification time : Tue Mar 25 07:27:06 2014

@<TRIPOS>MOLECULE
1v25_ANP_1_INTS_M
   68     0    15     0     0
SMALL
NO_CHARGES


@<TRIPOS>ATOM
      1 N          10.5890   56.7310  159.8005 N.am      2 SEC2        0.0000 
      2 N           9.7080   58.0320  160.0990 N.am     12 SEL2        0.0000 
      3 N          11.4700   55.4300  159.5020 N.am      7 SEP2        0.0000 
      4 NZ          3.8915   58.2325  157.5975 N.4       3 LYC4        0.0000 
      5 NZ          5.1330   57.7440  157.6060 N.4      13 LYL4        0.0000 
      6 NZ          2.6500   58.7210  157.5890 N.4       8 LYP4        0.0000 
      7 N           3.8915   58.2325  157.5975 N.am      2 SEC2        0.0000 
      8 N           5.1330   57.7440  157.6060 N.am     12 SEL2        0.0000 
      9 N           2.6500   58.7210  157.5890 N.am      7 SEP2        0.0000 
     10 N           7.3010   54.8515  156.4480 N.am      2 SEC2        0.0000 
     11 N           6.5340   55.6460  157.5000 N.am     12 SEL2        0.0000 
     12 N           8.0680   54.0570  155.3960 N.am      7 SEP2        0.0000 
     13 NZ          3.8495   58.7330  159.0990 N.4       3 LYC4        0.0000 
     14 NZ          5.0490   58.7450  160.6090 N.4      13 LYL4        0.0000 
     15 N           4.2350   59.8460  160.7235 N.am      2 SEC2        0.0000 
     16 N           5.0490   58.7450  160.6090 N.am     12 SEL2        0.0000 
     17 N           3.4210   60.9470  160.8380 N.am      7 SEP2        0.0000 
     18 Zn          4.0925   56.8740  163.2465 Zn        4 ZIC7        0.0000 
     19 Zn          4.6730   56.7480  162.1210 Zn       14 ZIL7        0.0000 
     20 Zn          3.5120   57.0000  164.3720 Zn        9 ZIP7        0.0000 
     21 N           5.4125   55.4565  162.4495 N.am      2 SEC2        0.0000 
     22 N           4.6730   56.7480  162.1210 N.am     12 SEL2        0.0000 
     23 N           6.1520   54.1650  162.7780 N.am      7 SEP2        0.0000 
     24 N           6.0895   56.7000  162.5810 N.am      2 SEC2        0.0000 
     25 N           7.5060   56.6520  163.0410 N.am      7 SEP2        0.0000 
     26 CA          3.2435   54.5725  161.1050 C.3       5 GLC5        0.0000 
     27 CA          2.2710   56.1220  160.3780 C.3      15 GLL5        0.0000 
     28 CA          4.2160   53.0230  161.8320 C.3      10 GLP5        0.0000 
     29 N           1.6845   57.7470  158.1105 N.am      2 SEC2        0.0000 
     30 N           0.7190   56.7730  158.6320 N.am     12 SEL2        0.0000 
     31 CA          0.8240   54.2210  161.5945 C.3       5 GLC5        0.0000 
     32 CA         -0.1030   55.3380  160.3190 C.3      15 GLL5        0.0000 
     33 CA          1.7510   53.1040  162.8700 C.3      10 GLP5        0.0000 
     34 N          -0.9715   56.3325  162.5975 N.am      2 SEC2        0.0000 
     35 N          -0.5530   55.3870  161.6690 N.am     12 SEL2        0.0000 
     36 N          -1.3900   57.2780  163.5260 N.am      7 SEP2        0.0000 
     37 O          -1.6005   54.4635  161.8000 O.2       1 ALC1        0.0000 
     38 O          -0.5530   55.3870  161.6690 O.2      11 ALL1        0.0000 
     39 O          -2.6480   53.5400  161.9310 O.2       6 ALP1        0.0000 
     40 O          -2.8805   55.9960  160.8370 O.2       1 ALC1        0.0000 
     41 O          -2.1580   56.5270  159.8670 O.2      11 ALL1        0.0000 
     42 O          -3.6030   55.4650  161.8070 O.2       6 ALP1        0.0000 
     43 N           1.9590   54.3545  154.8790 N.am      2 SEC2        0.0000 
     44 N           0.7520   53.7650  155.8910 N.am     12 SEL2        0.0000 
     45 N           3.1660   54.9440  153.8670 N.am      7 SEP2        0.0000 
     46 CA          1.3105   55.0435  155.0075 C.3       5 GLC5        0.0000 
     47 CA         -0.5390   53.8720  155.4400 C.3      15 GLL5        0.0000 
     48 CA          3.1600   56.2150  154.5750 C.3      10 GLP5        0.0000 
     49 CA         -2.2185   54.4210  152.9455 C.3       5 GLC5        0.0000 
     50 CA         -1.2640   53.2560  154.4130 C.3      15 GLL5        0.0000 
     51 CA         -3.1730   55.5860  151.4780 C.3      10 GLP5        0.0000 
     52 O           0.5210   51.5645  153.4835 O.2       1 ALC1        0.0000 
     53 O          -0.6760   52.3360  153.6180 O.2      11 ALL1        0.0000 
     54 O           1.7180   50.7930  153.3490 O.2       6 ALP1        0.0000 
     55 CA         -1.7185   55.8725  154.1710 C.3       5 GLC5        0.0000 
     56 CA         -3.1460   54.5040  155.0160 C.3      15 GLL5        0.0000 
     57 CA         -0.2910   57.2410  153.3260 C.3      10 GLP5        0.0000 
     58 CA         -3.1595   55.0450  153.2470 C.3       5 GLC5        0.0000 
     59 CA         -4.6250   53.6415  155.8450 C.3       5 GLC5        0.0000 
     60 CA         -6.1040   52.7790  156.6740 C.3      10 GLP5        0.0000 
     61 CA          1.3320   58.1620  160.4070 C.3       5 GLC5        0.0000 
     62 CA          0.8530   56.5000  160.0320 C.3      15 GLL5        0.0000 
     63 CA          1.1020   60.0130  160.6090 C.3      10 GLP5        0.0000 
     64 CA         -1.1200   53.5625  159.4510 C.3       5 GLC5        0.0000 
     65 CA         -1.5660   51.6680  159.0800 C.3      10 GLP5        0.0000 
     66 CA         -0.5647   51.6025  155.5233 C.3       5 GLC5        0.0000 
     67 CA         -0.2280   49.6410  156.1200 C.3      10 GLP5        0.0000 
     68 CA         -0.6671   55.7155  154.4531 C.3       5 GLC5        0.0000 
@<TRIPOS>BOND
@<TRIPOS>SUBSTRUCTURE
     1 ALC1       37 GROUP        1 X    ALC  0     ROOT ALC X 1
     2 SEC2        1 GROUP        1 X    SEC  0     **** SEC X 2
     3 LYC4        4 GROUP        1 X    LYC  0     **** LYC X 4
     4 ZIC7       18 GROUP        1 X    ZIC  0     **** ZIC X 5
     5 GLC5       26 GROUP        1 X    GLC  0     **** GLC X 6
     6 ALP1       39 GROUP        1 Y    ALP  0     ROOT ALP Y 8
     7 SEP2        3 GROUP        1 Y    SEP  0     **** SEP Y 9
     8 LYP4        6 GROUP        1 Y    LYP  0     **** LYP Y 11
     9 ZIP7       20 GROUP        1 Y    ZIP  0     **** ZIP Y 12
    10 GLP5       28 GROUP        1 Y    GLP  0     **** GLP Y 13
    11 ALL1       38 GROUP        1 Z    ALL  0     ROOT ALL Z 15
    12 SEL2        2 GROUP        1 Z    SEL  0     **** SEL Z 16
    13 LYL4        5 GROUP        1 Z    LYL  0     **** LYL Z 18
    14 ZIL7       19 GROUP        1 Z    ZIL  0     **** ZIL Z 19
    15 GLL5       27 GROUP        1 Z    GLL  0     **** GLL Z 20
@<TRIPOS>SET

