#    Name: 1v25_ANP_1_ligand
#    Modification time : Tue Mar 25 07:27:06 2014

@<TRIPOS>MOLECULE
1v25_ANP_1_ligand
   43    45     1     0     0
SMALL
NO_CHARGES


@<TRIPOS>ATOM
      1 PG          8.2260   57.7330  160.1510 P.3       1 ANP666      0.0000 
      2 O1G         9.7080   58.0320  160.0990 O.co2     1 ANP666      0.0000 
      3 O2G         8.0170   56.3400  160.7040 O.co2     1 ANP666      0.0000 
      4 O3G         7.5850   58.7150  161.1020 O.co2     1 ANP666      0.0000 
      5 PB          6.1460   56.9150  158.3480 P.3       1 ANP666      0.0000 
      6 O1B         5.1330   57.7440  157.6060 O.co2     1 ANP666      0.0000 
      7 O2B         6.5340   55.6460  157.5000 O.co2     1 ANP666      0.0000 
      8 N3B         7.5080   57.8210  158.6510 N.4       1 ANP666      0.0000 
      9 PA          4.5960   57.3070  160.6440 P.3       1 ANP666      0.0000 
     10 O1A         5.0490   58.7450  160.6090 O.co2     1 ANP666      0.0000 
     11 O2A         4.6730   56.7480  162.1210 O.co2     1 ANP666      0.0000 
     12 O3A         5.4900   56.4010  159.6980 O.3       1 ANP666      0.0000 
     13 O5'         3.0890   57.2670  160.1610 O.3       1 ANP666      0.0000 
     14 C5'         2.2710   56.1220  160.3780 C.3       1 ANP666      0.0000 
     15 C4'         0.8530   56.5000  160.0320 C.3       1 ANP666      0.0000 
     16 O4'         0.7190   56.7730  158.6320 O.3       1 ANP666      0.0000 
     17 C3'        -0.1030   55.3380  160.3190 C.3       1 ANP666      0.0000 
     18 O3'        -0.5530   55.3870  161.6690 O.3       1 ANP666      0.0000 
     19 C2'        -1.2450   55.5760  159.3250 C.3       1 ANP666      0.0000 
     20 O2'        -2.1580   56.5270  159.8670 O.3       1 ANP666      0.0000 
     21 C1'        -0.5450   56.2470  158.1400 C.3       1 ANP666      0.0000 
     22 N9         -0.2810   55.2380  157.1120 N.pl3     1 ANP666      0.0000 
     23 C8          0.8950   54.6220  156.9280 C.2       1 ANP666      0.0000 
     24 N7          0.7520   53.7650  155.8910 N.2       1 ANP666      0.0000 
     25 C5         -0.5390   53.8720  155.4400 C.ar      1 ANP666      0.0000 
     26 C6         -1.2640   53.2560  154.4130 C.ar      1 ANP666      0.0000 
     27 N6         -0.6760   52.3360  153.6180 N.pl3     1 ANP666      0.0000 
     28 N1         -2.5520   53.5820  154.2320 N.ar      1 ANP666      0.0000 
     29 C2         -3.1460   54.5040  155.0160 C.ar      1 ANP666      0.0000 
     30 N3         -2.4720   55.1210  156.0050 N.ar      1 ANP666      0.0000 
     31 C4         -1.1850   54.8160  156.2340 C.ar      1 ANP666      0.0000 
     32 H           2.2961   55.7980  161.4187 H         1 ANP666      0.0000 
     33 H           2.5683   55.2862  159.7442 H         1 ANP666      0.0000 
     34 H           0.5406   57.3356  160.6204 H         1 ANP666      0.0000 
     35 H           0.3871   54.4387  160.0549 H         1 ANP666      0.0000 
     36 H          -1.6550   54.6842  159.0288 H         1 ANP666      0.0000 
     37 H          -1.1661   57.0200  157.7737 H         1 ANP666      0.0000 
     38 H           1.6997   54.7592  157.4372 H         1 ANP666      0.0000 
     39 H          -1.2597   51.9192  152.9211 H         1 ANP666      0.0000 
     40 H           0.2908   52.1534  153.7968 H         1 ANP666      0.0000 
     41 H          -4.1562   54.7457  154.8512 H         1 ANP666      0.0000 
     42 H          -1.2813   54.7040  161.7238 H         1 ANP666      0.0000 
     43 H          -2.2937   56.2434  160.8163 H         1 ANP666      0.0000 
@<TRIPOS>BOND
     1    2    1 ar   
     2    3    1 ar   
     3    4    1 ar   
     4    8    1 1    
     5    6    5 ar   
     6    7    5 ar   
     7    8    5 1    
     8   12    5 1    
     9   10    9 ar   
    10   11    9 ar   
    11   12    9 1    
    12   13    9 1    
    13   14   13 1    
    14   15   14 1    
    15   32   14 1    
    16   33   14 1    
    17   16   15 1    
    18   17   15 1    
    19   34   15 1    
    20   21   16 1    
    21   18   17 1    
    22   19   17 1    
    23   35   17 1    
    24   42   18 1    
    25   20   19 1    
    26   21   19 1    
    27   36   19 1    
    28   43   20 1    
    29   22   21 1    
    30   37   21 1    
    31   23   22 1    
    32   31   22 1    
    33   24   23 2    
    34   38   23 1    
    35   25   24 1    
    36   26   25 ar   
    37   31   25 ar   
    38   27   26 1    
    39   28   26 ar   
    40   39   27 1    
    41   40   27 1    
    42   29   28 ar   
    43   30   29 ar   
    44   41   29 1    
    45   31   30 ar   
@<TRIPOS>SUBSTRUCTURE
     1 ANP666      1 GROUP   
@<TRIPOS>SET

