#    Name: 2ovx_4MR_2_INTS_M
#    Modification time : Mon Mar 24 17:53:25 2014

@<TRIPOS>MOLECULE
2ovx_4MR_2_INTS_M
   48     0     9     0     0
SMALL
NO_CHARGES


@<TRIPOS>ATOM
      1 CA         68.6240   21.2885   54.4820 C.3       3 GLC5        0.0000 
      2 CA         69.3940   21.5730   56.4480 C.3       9 GLL5        0.0000 
      3 CA         67.8540   21.0040   52.5160 C.3       6 GLP5        0.0000 
      4 CA         66.8790   22.8015   60.1640 C.3       3 GLC5        0.0000 
      5 CA         68.4350   22.1270   58.9980 C.3       9 GLL5        0.0000 
      6 CA         65.3230   23.4760   61.3300 C.3       6 GLP5        0.0000 
      7 CA         66.0980   21.8505   58.7335 C.3       3 GLC5        0.0000 
      8 CA         67.8770   21.0950   58.2500 C.3       9 GLL5        0.0000 
      9 CA         64.3190   22.6060   59.2170 C.3       6 GLP5        0.0000 
     10 CA         67.4700   21.1710   55.0555 C.3       3 GLC5        0.0000 
     11 CA         68.3440   20.8200   56.9670 C.3       9 GLL5        0.0000 
     12 CA         66.5960   21.5220   53.1440 C.3       6 GLP5        0.0000 
     13 CA         65.9675   19.2435   55.7875 C.3       3 GLC5        0.0000 
     14 CA         68.1400   18.9530   55.5730 C.3       9 GLL5        0.0000 
     15 CA         63.7950   19.5340   56.0020 C.3       6 GLP5        0.0000 
     16 CA         70.0500   18.4410   57.6395 C.3       3 GLC5        0.0000 
     17 CA         69.4790   18.6150   55.7500 C.3       9 GLL5        0.0000 
     18 CA         70.6210   18.2670   59.5290 C.3       6 GLP5        0.0000 
     19 N          66.6745   16.3440   49.6325 N.am      2 SEC2        0.0000 
     20 N          68.2160   16.1220   49.5260 N.am      8 SEL2        0.0000 
     21 N          65.1330   16.5660   49.7390 N.am      5 SEP2        0.0000 
     22 O          67.4405   13.9940   51.1260 O.2       1 ALC1        0.0000 
     23 O          68.2880   14.9520   51.4740 O.2       7 ALL1        0.0000 
     24 O          66.5930   13.0360   50.7780 O.2       4 ALP1        0.0000 
     25 N          67.8455   12.7180   54.1250 N.am      2 SEC2        0.0000 
     26 N          68.3450   13.9310   53.4960 N.am      8 SEL2        0.0000 
     27 N          67.3460   11.5050   54.7540 N.am      5 SEP2        0.0000 
     28 N          66.8960   13.1790   53.2895 N.am      2 SEC2        0.0000 
     29 N          65.4470   12.4270   53.0830 N.am      5 SEP2        0.0000 
     30 CA         72.1500   11.5770   53.0080 C.3       3 GLC5        0.0000 
     31 CA         72.8710   13.3640   53.7670 C.3       9 GLL5        0.0000 
     32 CA         71.4290    9.7900   52.2490 C.3       6 GLP5        0.0000 
     33 CA         72.4360   16.8415   56.2485 C.3       3 GLC5        0.0000 
     34 CA         71.2990   15.1920   55.3210 C.3       9 GLL5        0.0000 
     35 CA         73.5730   18.4910   57.1760 C.3       6 GLP5        0.0000 
     36 CA         68.2821   23.6745   56.5816 C.3       3 GLC5        0.0000 
     37 CA         66.9880   24.8620   55.5180 C.3       6 GLP5        0.0000 
     38 CA         69.4355   19.7413   58.6623 C.3       3 GLC5        0.0000 
     39 CA         71.6598   18.2750   56.3017 C.3       3 GLC5        0.0000 
     40 CA         65.6722   17.3487   54.8678 C.3       3 GLC5        0.0000 
     41 CA         67.8860   17.0320   54.1250 C.3       9 GLL5        0.0000 
     42 CA         63.7270   17.1050   55.2960 C.3       6 GLP5        0.0000 
     43 CA         67.9666   19.7362   53.8619 C.3       3 GLC5        0.0000 
     44 CA         67.3490   18.1530   54.7540 C.3       9 GLL5        0.0000 
     45 CA         67.9620   15.7675   55.9850 C.3       3 GLC5        0.0000 
     46 CA         67.3670   14.6720   57.7640 C.3       6 GLP5        0.0000 
     47 CA         68.3090   18.4265   52.9240 C.3       3 GLC5        0.0000 
     48 CA         68.0610   19.9900   51.6420 C.3       6 GLP5        0.0000 
@<TRIPOS>BOND
@<TRIPOS>SUBSTRUCTURE
     1 ALC1       22 GROUP        1 X    ALC  0     ROOT ALC X 1
     2 SEC2       19 GROUP        1 X    SEC  0     **** SEC X 2
     3 GLC5        1 GROUP        1 X    GLC  0     **** GLC X 6
     4 ALP1       24 GROUP        1 Y    ALP  0     ROOT ALP Y 8
     5 SEP2       21 GROUP        1 Y    SEP  0     **** SEP Y 9
     6 GLP5        3 GROUP        1 Y    GLP  0     **** GLP Y 13
     7 ALL1       23 GROUP        1 Z    ALL  0     ROOT ALL Z 15
     8 SEL2       20 GROUP        1 Z    SEL  0     **** SEL Z 16
     9 GLL5        2 GROUP        1 Z    GLL  0     **** GLL Z 20
@<TRIPOS>SET

