#    Name: 2ovx_4MR_2_ligand
#    Modification time : Mon Mar 24 17:53:25 2014

@<TRIPOS>MOLECULE
2ovx_4MR_2_ligand
   56    60     1     0     0
SMALL
NO_CHARGES


@<TRIPOS>ATOM
      1 CAA        69.3940   21.5730   56.4480 C.ar      1 4MR502      0.0000 
      2 CAB        69.9590   22.6030   57.1950 C.ar      1 4MR502      0.0000 
      3 CAC        69.4760   22.8860   58.4690 C.ar      1 4MR502      0.0000 
      4 CAF        68.4350   22.1270   58.9980 C.ar      1 4MR502      0.0000 
      5 CAE        67.8770   21.0950   58.2500 C.ar      1 4MR502      0.0000 
      6 CAD        68.3440   20.8200   56.9670 C.ar      1 4MR502      0.0000 
      7 OAG        67.5740   20.0570   56.1420 O.3       1 4MR502      0.0000 
      8 CAJ        68.1400   18.9530   55.5730 C.ar      1 4MR502      0.0000 
      9 CAM        69.4790   18.6150   55.7500 C.ar      1 4MR502      0.0000 
     10 CAL        70.0140   17.5030   55.1050 C.ar      1 4MR502      0.0000 
     11 CAI        67.3490   18.1530   54.7540 C.ar      1 4MR502      0.0000 
     12 CAH        67.8860   17.0320   54.1250 C.ar      1 4MR502      0.0000 
     13 CAK        69.2280   16.6940   54.2870 C.ar      1 4MR502      0.0000 
     14 CAY        69.9050   15.7160   53.3160 C.3       1 4MR502      0.0000 
     15 CAZ        70.4980   16.5920   52.2050 C.2       1 4MR502      0.0000 
     16 OAS        71.4760   17.2960   52.4520 O.2       1 4MR502      0.0000 
     17 NBA        69.9290   16.6540   50.9260 N.am      1 4MR502      0.0000 
     18 CBF        68.8220   15.8750   50.5670 C.2       1 4MR502      0.0000 
     19 OBG        68.2160   16.1220   49.5260 O.2       1 4MR502      0.0000 
     20 NBE        68.2880   14.9520   51.4740 N.am      1 4MR502      0.0000 
     21 CBD        68.8450   14.7680   52.7460 C.2       1 4MR502      0.0000 
     22 OBH        68.3450   13.9310   53.4960 O.2       1 4MR502      0.0000 
     23 NAX        70.8900   14.8200   53.9560 N.4       1 4MR502      0.0000 
     24 CAR        72.0430   14.4710   53.1080 C.3       1 4MR502      0.0000 
     25 CAQ        72.8710   13.3640   53.7670 C.3       1 4MR502      0.0000 
     26 CBC        71.2990   15.1920   55.3210 C.3       1 4MR502      0.0000 
     27 CBB        72.1070   14.0590   55.9570 C.3       1 4MR502      0.0000 
     28 NAW        73.2820   13.7980   55.1110 N.3       1 4MR502      0.0000 
     29 CAV        74.2470   12.8910   55.7510 C.ar      1 4MR502      0.0000 
     30 NAU        74.3570   12.8840   57.0880 N.ar      1 4MR502      0.0000 
     31 CAT        75.3730   12.2930   57.6930 C.ar      1 4MR502      0.0000 
     32 CAN        76.3500   11.6530   56.9380 C.ar      1 4MR502      0.0000 
     33 CAO        76.2070   11.6600   55.5550 C.ar      1 4MR502      0.0000 
     34 NAP        75.1710   12.2680   55.0020 N.ar      1 4MR502      0.0000 
     35 H          69.7550   21.3665   55.5051 H         1 4MR502      0.0000 
     36 H          70.7338   23.1550   56.8048 H         1 4MR502      0.0000 
     37 H          69.8850   23.6510   59.0171 H         1 4MR502      0.0000 
     38 H          68.0795   22.3296   59.9407 H         1 4MR502      0.0000 
     39 H          67.1122   20.5293   58.6478 H         1 4MR502      0.0000 
     40 H          70.0764   19.1900   56.3607 H         1 4MR502      0.0000 
     41 H          71.0159   17.2723   55.2356 H         1 4MR502      0.0000 
     42 H          66.3553   18.3918   54.6108 H         1 4MR502      0.0000 
     43 H          67.2803   16.4424   53.5295 H         1 4MR502      0.0000 
     44 H          67.4614   14.3917   51.1983 H         1 4MR502      0.0000 
     45 H          70.3214   13.8024   54.0929 H         1 4MR502      0.0000 
     46 H          72.6881   15.3395   52.9573 H         1 4MR502      0.0000 
     47 H          71.7095   14.1153   52.1305 H         1 4MR502      0.0000 
     48 H          73.7397   13.1658   53.1414 H         1 4MR502      0.0000 
     49 H          72.2610   12.4639   53.8203 H         1 4MR502      0.0000 
     50 H          70.4249   15.3850   55.9466 H         1 4MR502      0.0000 
     51 H          71.9188   16.0911   55.3066 H         1 4MR502      0.0000 
     52 H          71.4750   13.1801   56.0238 H         1 4MR502      0.0000 
     53 H          72.4074   14.3665   56.9527 H         1 4MR502      0.0000 
     54 H          75.4695   12.2893   58.7274 H         1 4MR502      0.0000 
     55 H          77.1386   11.1975   57.3806 H         1 4MR502      0.0000 
     56 H          76.9300   11.1793   54.9832 H         1 4MR502      0.0000 
@<TRIPOS>BOND
     1    2    1 ar   
     2    6    1 ar   
     3   35    1 1    
     4    3    2 ar   
     5   36    2 1    
     6    4    3 ar   
     7   37    3 1    
     8    5    4 ar   
     9   38    4 1    
    10    6    5 ar   
    11   39    5 1    
    12    7    6 1    
    13    8    7 1    
    14    9    8 ar   
    15   11    8 ar   
    16   10    9 ar   
    17   40    9 1    
    18   13   10 ar   
    19   41   10 1    
    20   12   11 ar   
    21   42   11 1    
    22   13   12 ar   
    23   43   12 1    
    24   14   13 1    
    25   15   14 1    
    26   21   14 1    
    27   23   14 1    
    28   16   15 2    
    29   17   15 1    
    30   18   17 1    
    31   19   18 2    
    32   20   18 1    
    33   21   20 1    
    34   44   20 1    
    35   22   21 2    
    36   24   23 1    
    37   26   23 1    
    38   45   23 1    
    39   25   24 1    
    40   46   24 1    
    41   47   24 1    
    42   28   25 1    
    43   48   25 1    
    44   49   25 1    
    45   27   26 1    
    46   50   26 1    
    47   51   26 1    
    48   28   27 1    
    49   52   27 1    
    50   53   27 1    
    51   29   28 1    
    52   30   29 ar   
    53   34   29 ar   
    54   31   30 ar   
    55   32   31 ar   
    56   54   31 1    
    57   33   32 ar   
    58   55   32 1    
    59   34   33 ar   
    60   56   33 1    
@<TRIPOS>SUBSTRUCTURE
     1 4MR502      1 GROUP   
@<TRIPOS>SET

