#    Name: 2qtr_NXX_3_INTS_M
#    Modification time : Mon Mar 24 22:48:50 2014

@<TRIPOS>MOLECULE
2qtr_NXX_3_INTS_M
  114     0    12     0     0
SMALL
NO_CHARGES


@<TRIPOS>ATOM
      1 N          24.2720  136.9805   25.4760 N.am      2 SEC2        0.0000 
      2 N          23.2450  137.1880   24.4390 N.am     10 SEL2        0.0000 
      3 N          25.2990  136.7730   26.5130 N.am      6 SEP2        0.0000 
      4 N          21.9570  139.1710   22.5395 N.am      2 SEC2        0.0000 
      5 N          21.5480  138.0160   23.2650 N.am     10 SEL2        0.0000 
      6 N          22.3660  140.3260   21.8140 N.am      6 SEP2        0.0000 
      7 CA         22.5360  136.7345   21.6280 C.3       4 GLC5        0.0000 
      8 CA         21.7840  135.6450   23.3320 C.3      12 GLL5        0.0000 
      9 CA         23.2880  137.8240   19.9240 C.3       8 GLP5        0.0000 
     10 CA         20.0215  136.0180   24.3400 C.3       4 GLC5        0.0000 
     11 CA         20.6480  135.3990   22.5140 C.3      12 GLL5        0.0000 
     12 CA         19.3950  136.6370   26.1660 C.3       8 GLP5        0.0000 
     13 CA         18.4750  134.9240   22.6910 C.3       4 GLC5        0.0000 
     14 CA         16.3020  134.4490   22.8680 C.3       8 GLP5        0.0000 
     15 CA         21.3465  137.0440   21.2940 C.3       4 GLC5        0.0000 
     16 CA         22.0450  138.6890   20.0740 C.3       8 GLP5        0.0000 
     17 CA         24.5465  134.9615   24.3970 C.3       4 GLC5        0.0000 
     18 CA         22.5240  134.5620   23.8230 C.3      12 GLL5        0.0000 
     19 CA         26.5690  135.3610   24.9710 C.3       8 GLP5        0.0000 
     20 CA         23.9920  132.5505   22.6570 C.3       4 GLC5        0.0000 
     21 CA         22.9750  132.2150   24.0920 C.3      12 GLL5        0.0000 
     22 CA         25.0090  132.8860   21.2220 C.3       8 GLP5        0.0000 
     23 CA         21.1590  133.0105   26.1690 C.3       4 GLC5        0.0000 
     24 CA         22.3970  131.5240   25.3400 C.3      12 GLL5        0.0000 
     25 CA         19.9210  134.4970   26.9980 C.3       8 GLP5        0.0000 
     26 N          21.5420  131.1070   27.4885 N.am      2 SEC2        0.0000 
     27 N          22.4580  132.2380   26.6070 N.am     10 SEL2        0.0000 
     28 N          20.6260  129.9760   28.3700 N.am      6 SEP2        0.0000 
     29 O          23.5655  132.8795   27.0670 O.2       1 ALC1        0.0000 
     30 O          22.4580  132.2380   26.6070 O.2       9 ALL1        0.0000 
     31 O          24.6730  133.5210   27.5270 O.2       5 ALP1        0.0000 
     32 O          24.5085  130.3355   27.1805 O.2       1 ALC1        0.0000 
     33 O          24.4890  130.5260   25.8730 O.2       9 ALL1        0.0000 
     34 O          24.5280  130.1450   28.4880 O.2       5 ALP1        0.0000 
     35 CA         25.4420  130.1355   23.2935 C.3       4 GLC5        0.0000 
     36 CA         23.3040  129.9150   23.8270 C.3      12 GLL5        0.0000 
     37 CA         27.5800  130.3560   22.7600 C.3       8 GLP5        0.0000 
     38 CA         24.1565  131.4005   22.5245 C.3       4 GLC5        0.0000 
     39 CA         21.8340  129.1755   21.3025 C.3       4 GLC5        0.0000 
     40 CA         22.2200  128.9830   23.2880 C.3      12 GLL5        0.0000 
     41 CA         21.4480  129.3680   19.3170 C.3       8 GLP5        0.0000 
     42 NZ         17.4125  127.9450   24.5730 N.4       3 LYC4        0.0000 
     43 NZ         18.6790  128.4450   24.6670 N.4      11 LYL4        0.0000 
     44 NZ         16.1460  127.4450   24.4790 N.4       7 LYP4        0.0000 
     45 N          18.5110  128.1885   26.0580 N.am      2 SEC2        0.0000 
     46 N          18.6790  128.4450   24.6670 N.am     10 SEL2        0.0000 
     47 N          18.3430  127.9320   27.4490 N.am      6 SEP2        0.0000 
     48 N          17.4125  127.9450   24.5730 N.am      2 SEC2        0.0000 
     49 N          16.1460  127.4450   24.4790 N.am      6 SEP2        0.0000 
     50 N          20.5575  126.5220   25.8655 N.am      2 SEC2        0.0000 
     51 N          20.4570  126.7740   24.1760 N.am     10 SEL2        0.0000 
     52 N          20.6580  126.2700   27.5550 N.am      6 SEP2        0.0000 
     53 N          20.3230  125.4190   26.4355 N.am      2 SEC2        0.0000 
     54 N          19.9880  124.5680   25.3160 N.am     10 SEL2        0.0000 
     55 N          19.9405  124.1865   26.7820 N.am      2 SEC2        0.0000 
     56 N          19.8930  123.8050   28.2480 N.am      6 SEP2        0.0000 
     57 NZ         17.3140  126.4200   23.9440 N.4       3 LYC4        0.0000 
     58 NZ         18.4820  125.3950   23.4090 N.4      11 LYL4        0.0000 
     59 CA         22.5480  125.6010   24.8905 C.3       4 GLC5        0.0000 
     60 CA         22.2740  124.6550   23.2210 C.3      12 GLL5        0.0000 
     61 CA         22.8220  126.5470   26.5600 C.3       8 GLP5        0.0000 
     62 CA         24.7920  123.6275   22.5040 C.3       4 GLC5        0.0000 
     63 CA         23.0750  124.7780   21.9300 C.3      12 GLL5        0.0000 
     64 CA         26.5090  122.4770   23.0780 C.3       8 GLP5        0.0000 
     65 CA         21.9865  127.5705   20.1070 C.3       4 GLC5        0.0000 
     66 CA         22.5250  125.7730   20.8970 C.3      12 GLL5        0.0000 
     67 N          24.0255  126.1290   18.8240 N.am      2 SEC2        0.0000 
     68 N          23.6520  126.4200   20.3020 N.am     10 SEL2        0.0000 
     69 N          24.3990  125.8380   17.3460 N.am      6 SEP2        0.0000 
     70 N          23.0730  125.6835   17.9675 N.am      2 SEC2        0.0000 
     71 N          21.7470  125.5290   18.5890 N.am     10 SEL2        0.0000 
     72 O          20.7120  125.6165   17.7765 O.2       1 ALC1        0.0000 
     73 O          21.7470  125.5290   18.5890 O.2       9 ALL1        0.0000 
     74 O          19.6770  125.7040   16.9640 O.2       5 ALP1        0.0000 
     75 CA         22.4880  122.3320   21.7360 C.3       4 GLC5        0.0000 
     76 CA         22.6360  123.6450   19.9170 C.3      12 GLL5        0.0000 
     77 CA         22.3400  121.0190   23.5550 C.3       8 GLP5        0.0000 
     78 CA         24.3365  122.7725   19.7435 C.3       4 GLC5        0.0000 
     79 CA         26.0370  121.9000   19.5700 C.3       8 GLP5        0.0000 
     80 CA         24.0400  121.8040   19.0310 C.3       4 GLC5        0.0000 
     81 CA         22.0430  121.7080   18.4920 C.3      12 GLL5        0.0000 
     82 CA         22.9130  123.3815   17.3920 C.3       4 GLC5        0.0000 
     83 CA         23.7830  125.0550   16.2920 C.3       8 GLP5        0.0000 
     84 CA         21.9070  118.1370   18.8625 C.3       4 GLC5        0.0000 
     85 CA         21.1080  119.7040   17.5050 C.3      12 GLL5        0.0000 
     86 CA         22.7060  116.5700   20.2200 C.3       8 GLP5        0.0000 
     87 O          19.9780  117.7850   16.4585 O.2       1 ALC1        0.0000 
     88 O          20.2350  118.6400   17.5560 O.2       9 ALL1        0.0000 
     89 O          19.7210  116.9300   15.3610 O.2       5 ALP1        0.0000 
     90 O          18.8815  118.3805   18.0895 O.2       1 ALC1        0.0000 
     91 O          17.5280  118.1210   18.6230 O.2       5 ALP1        0.0000 
     92 CA         24.4205  120.2550   17.0370 C.3       4 GLC5        0.0000 
     93 CA         22.8050  120.9430   16.3880 C.3      12 GLL5        0.0000 
     94 CA         26.0360  119.5670   17.6860 C.3       8 GLP5        0.0000 
     95 CA         23.2940  122.9990   16.3400 C.3       4 GLC5        0.0000 
     96 CA         24.6455  121.7415   15.9755 C.3       4 GLC5        0.0000 
     97 CA         26.4860  122.5400   15.5630 C.3       8 GLP5        0.0000 
     98 CA         21.6740  121.5725   14.9815 C.3       4 GLC5        0.0000 
     99 CA         20.5430  122.2020   13.5750 C.3       8 GLP5        0.0000 
    100 CA         21.3295  135.4948   25.2067 C.3       4 GLC5        0.0000 
    101 CA         20.5050  135.8860   26.8360 C.3       8 GLP5        0.0000 
    102 CA         18.7405  133.2978   22.7530 C.3       4 GLC5        0.0000 
    103 CA         20.2710  134.0680   22.2030 C.3      12 GLL5        0.0000 
    104 CA         16.8220  133.0570   23.0400 C.3       8 GLP5        0.0000 
    105 CA         20.5895  132.1963   21.1345 C.3       4 GLC5        0.0000 
    106 CA         20.5200  130.8540   19.8030 C.3       8 GLP5        0.0000 
    107 CA         24.7847  128.9652   25.2523 C.3       4 GLC5        0.0000 
    108 CA         26.3200  127.8530   25.9360 C.3       8 GLP5        0.0000 
    109 CA         22.7784  128.0386   25.2441 C.3       4 GLC5        0.0000 
    110 CA         23.1950  130.2400   25.3100 C.3      12 GLL5        0.0000 
    111 CA         22.5072  122.8678   23.0652 C.3       4 GLC5        0.0000 
    112 CA         23.0040  124.6675   18.0963 C.3       4 GLC5        0.0000 
    113 CA         20.3002  121.4497   16.8485 C.3       4 GLC5        0.0000 
    114 CA         19.2480  122.4630   15.6780 C.3       8 GLP5        0.0000 
@<TRIPOS>BOND
@<TRIPOS>SUBSTRUCTURE
     1 ALC1       29 GROUP        1 X    ALC  0     ROOT ALC X 1
     2 SEC2        1 GROUP        1 X    SEC  0     **** SEC X 2
     3 LYC4       42 GROUP        1 X    LYC  0     **** LYC X 4
     4 GLC5        7 GROUP        1 X    GLC  0     **** GLC X 6
     5 ALP1       31 GROUP        1 Y    ALP  0     ROOT ALP Y 8
     6 SEP2        3 GROUP        1 Y    SEP  0     **** SEP Y 9
     7 LYP4       44 GROUP        1 Y    LYP  0     **** LYP Y 11
     8 GLP5        9 GROUP        1 Y    GLP  0     **** GLP Y 13
     9 ALL1       30 GROUP        1 Z    ALL  0     ROOT ALL Z 15
    10 SEL2        2 GROUP        1 Z    SEL  0     **** SEL Z 16
    11 LYL4       43 GROUP        1 Z    LYL  0     **** LYL Z 18
    12 GLL5        8 GROUP        1 Z    GLL  0     **** GLL Z 20
@<TRIPOS>SET

