#    Name: 2qtr_NXX_3_ligand
#    Modification time : Mon Mar 24 22:48:50 2014

@<TRIPOS>MOLECULE
2qtr_NXX_3_ligand
   68    72     1     0     0
SMALL
NO_CHARGES


@<TRIPOS>ATOM
      1 O7N        23.2450  137.1880   24.4390 O.co2     1 NXX191      0.0000 
      2 C7N        22.2200  137.0430   23.6990 C.2       1 NXX191      0.0000 
      3 O8N        21.5480  138.0160   23.2650 O.co2     1 NXX191      0.0000 
      4 C3N        21.7840  135.6450   23.3320 C.ar      1 NXX191      0.0000 
      5 C4N        20.6480  135.3990   22.5140 C.ar      1 NXX191      0.0000 
      6 C5N        20.2710  134.0680   22.2030 C.ar      1 NXX191      0.0000 
      7 C6N        21.0470  133.0090   22.7290 C.ar      1 NXX191      0.0000 
      8 C2N        22.5240  134.5620   23.8230 C.ar      1 NXX191      0.0000 
      9 N1N        22.1520  133.2930   23.5250 N.pl3     1 NXX191      0.0000 
     10 C1M        22.9750  132.2150   24.0920 C.3       1 NXX191      0.0000 
     11 C2M        22.3970  131.5240   25.3400 C.3       1 NXX191      0.0000 
     12 O2M        22.4580  132.2380   26.6070 O.3       1 NXX191      0.0000 
     13 C3M        23.1950  130.2400   25.3100 C.3       1 NXX191      0.0000 
     14 O3M        24.4890  130.5260   25.8730 O.3       1 NXX191      0.0000 
     15 O4M        23.1530  131.1610   23.1490 O.3       1 NXX191      0.0000 
     16 C4M        23.3040  129.9150   23.8270 C.3       1 NXX191      0.0000 
     17 C5M        22.2200  128.9830   23.2880 C.3       1 NXX191      0.0000 
     18 O5M        21.0130  129.1270   24.0250 O.3       1 NXX191      0.0000 
     19 PN         19.7700  128.1140   23.7510 P.3       1 NXX191      0.0000 
     20 O1N        18.6790  128.4450   24.6670 O.co2     1 NXX191      0.0000 
     21 O2N        19.5400  128.1720   22.2860 O.co2     1 NXX191      0.0000 
     22 O3A        20.4570  126.7740   24.1760 O.3       1 NXX191      0.0000 
     23 PA         19.8580  125.2800   24.0110 P.3       1 NXX191      0.0000 
     24 O1A        19.9880  124.5680   25.3160 O.co2     1 NXX191      0.0000 
     25 O2A        18.4820  125.3950   23.4090 O.co2     1 NXX191      0.0000 
     26 O5B        20.8640  124.6410   22.9610 O.3       1 NXX191      0.0000 
     27 C5B        22.2740  124.6550   23.2210 C.3       1 NXX191      0.0000 
     28 C4B        23.0750  124.7780   21.9300 C.3       1 NXX191      0.0000 
     29 C3B        22.5250  125.7730   20.8970 C.3       1 NXX191      0.0000 
     30 O3B        23.6520  126.4200   20.3020 O.3       1 NXX191      0.0000 
     31 C2B        21.8140  124.9150   19.8840 C.3       1 NXX191      0.0000 
     32 O2P        21.7470  125.5290   18.5890 O.3       1 NXX191      0.0000 
     33 C1B        22.6360  123.6450   19.9170 C.3       1 NXX191      0.0000 
     34 O4B        23.1010  123.5100   21.2710 O.3       1 NXX191      0.0000 
     35 N9A        21.8840  122.4190   19.6000 N.pl3     1 NXX191      0.0000 
     36 C8A        20.9380  121.8360   20.3750 C.2       1 NXX191      0.0000 
     37 N7A        20.4820  120.7330   19.7540 N.2       1 NXX191      0.0000 
     38 C5A        21.1510  120.6300   18.5740 C.ar      1 NXX191      0.0000 
     39 C4A        22.0430  121.7080   18.4920 C.ar      1 NXX191      0.0000 
     40 C6A        21.1080  119.7040   17.5050 C.ar      1 NXX191      0.0000 
     41 N6A        20.2350  118.6400   17.5560 N.pl3     1 NXX191      0.0000 
     42 N1A        21.9340  119.8900   16.4490 N.ar      1 NXX191      0.0000 
     43 C2A        22.8050  120.9430   16.3880 C.ar      1 NXX191      0.0000 
     44 N3A        22.8700  121.8540   17.3920 N.ar      1 NXX191      0.0000 
     45 H          20.1047  136.1813   22.1513 H         1 NXX191      0.0000 
     46 H          19.4689  133.8827   21.6208 H         1 NXX191      0.0000 
     47 H          20.7884  132.0425   22.5191 H         1 NXX191      0.0000 
     48 H          23.3519  134.7517   24.4118 H         1 NXX191      0.0000 
     49 H          23.9596  132.5991   24.3782 H         1 NXX191      0.0000 
     50 H          21.3706  131.2372   25.0699 H         1 NXX191      0.0000 
     51 H          22.6698  129.4925   25.8040 H         1 NXX191      0.0000 
     52 H          24.2671  129.4986   23.6245 H         1 NXX191      0.0000 
     53 H          22.6110  127.9540   23.3404 H         1 NXX191      0.0000 
     54 H          22.0786  129.2204   22.2212 H         1 NXX191      0.0000 
     55 H          22.5979  123.7331   23.7313 H         1 NXX191      0.0000 
     56 H          22.5544  125.4989   23.8725 H         1 NXX191      0.0000 
     57 H          24.0915  125.0782   22.1706 H         1 NXX191      0.0000 
     58 H          21.8608  126.4161   21.3694 H         1 NXX191      0.0000 
     59 H          20.8421  124.6795   20.2897 H         1 NXX191      0.0000 
     60 H          23.4770  123.7542   19.2601 H         1 NXX191      0.0000 
     61 H          20.6413  122.1647   21.2370 H         1 NXX191      0.0000 
     62 H          20.2891  117.9898   16.7982 H         1 NXX191      0.0000 
     63 H          19.6231  118.6104   18.3464 H         1 NXX191      0.0000 
     64 H          23.4268  121.0433   15.5552 H         1 NXX191      0.0000 
     65 H          23.3821  132.6181   26.6455 H         1 NXX191      0.0000 
     66 H          24.3941  130.3346   26.8499 H         1 NXX191      0.0000 
     67 H          24.3633  126.3985   21.0046 H         1 NXX191      0.0000 
     68 H          20.8167  125.3531   18.2671 H         1 NXX191      0.0000 
@<TRIPOS>BOND
     1    2    1 ar   
     2    3    2 ar   
     3    4    2 1    
     4    5    4 ar   
     5    8    4 ar   
     6    6    5 ar   
     7   45    5 1    
     8    7    6 ar   
     9   46    6 1    
    10    9    7 ar   
    11   47    7 1    
    12    9    8 ar   
    13   48    8 1    
    14   10    9 1    
    15   11   10 1    
    16   15   10 1    
    17   49   10 1    
    18   12   11 1    
    19   13   11 1    
    20   50   11 1    
    21   65   12 1    
    22   14   13 1    
    23   16   13 1    
    24   51   13 1    
    25   66   14 1    
    26   16   15 1    
    27   17   16 1    
    28   52   16 1    
    29   18   17 1    
    30   53   17 1    
    31   54   17 1    
    32   19   18 1    
    33   20   19 ar   
    34   21   19 ar   
    35   22   19 1    
    36   23   22 1    
    37   24   23 ar   
    38   25   23 ar   
    39   26   23 1    
    40   27   26 1    
    41   28   27 1    
    42   55   27 1    
    43   56   27 1    
    44   29   28 1    
    45   34   28 1    
    46   57   28 1    
    47   30   29 1    
    48   31   29 1    
    49   58   29 1    
    50   67   30 1    
    51   32   31 1    
    52   33   31 1    
    53   59   31 1    
    54   68   32 1    
    55   34   33 1    
    56   35   33 1    
    57   60   33 1    
    58   36   35 1    
    59   39   35 1    
    60   37   36 2    
    61   61   36 1    
    62   38   37 1    
    63   39   38 ar   
    64   40   38 ar   
    65   44   39 ar   
    66   41   40 1    
    67   42   40 ar   
    68   62   41 1    
    69   63   41 1    
    70   43   42 ar   
    71   44   43 ar   
    72   64   43 1    
@<TRIPOS>SUBSTRUCTURE
     1 NXX191      1 GROUP   
@<TRIPOS>SET

