#    Name: 4f0r_MTA_1_INTS_M
#    Modification time : Mon Mar 24 18:53:06 2014

@<TRIPOS>MOLECULE
4f0r_MTA_1_INTS_M
   45     0     9     0     0
SMALL
NO_CHARGES


@<TRIPOS>ATOM
      1 CA         -1.5620   24.5960   15.9040 C.3       3 GLC5        0.0000 
      2 CA         -0.1880   24.4300   17.3800 C.3       9 GLL5        0.0000 
      3 CA         -2.9360   24.7620   14.4280 C.3       6 GLP5        0.0000 
      4 CA          0.7575   26.2905   17.3390 C.3       3 GLC5        0.0000 
      5 CA          1.7030   28.1510   17.2980 C.3       6 GLP5        0.0000 
      6 CA         -0.0625   24.7910   19.5500 C.3       3 GLC5        0.0000 
      7 CA          0.0630   25.1520   21.7200 C.3       6 GLP5        0.0000 
      8 CA         -1.3595   25.8660   17.8775 C.3       3 GLC5        0.0000 
      9 CA         -2.5310   27.3020   18.3750 C.3       6 GLP5        0.0000 
     10 CA          2.2225   23.3135   15.5060 C.3       3 GLC5        0.0000 
     11 CA          0.7530   22.9920   17.0560 C.3       9 GLL5        0.0000 
     12 CA          3.6920   23.6350   13.9560 C.3       6 GLP5        0.0000 
     13 CA          2.3110   24.5255   17.5795 C.3       3 GLC5        0.0000 
     14 CA          3.8690   26.0590   18.1030 C.3       6 GLP5        0.0000 
     15 CA         -1.0930   21.4830   17.7060 C.3       3 GLC5        0.0000 
     16 CA          0.3800   21.8800   18.3960 C.3       9 GLL5        0.0000 
     17 CA         -2.5660   21.0860   17.0160 C.3       6 GLP5        0.0000 
     18 CA          0.5500   23.7615   20.6955 C.3       3 GLC5        0.0000 
     19 CA          1.0370   22.3710   19.6710 C.3       9 GLL5        0.0000 
     20 N           2.9185   18.5925   21.6980 N.am      2 SEC2        0.0000 
     21 N           3.2470   19.8160   20.9220 N.am      8 SEL2        0.0000 
     22 N           2.5900   17.3690   22.4740 N.am      5 SEP2        0.0000 
     23 O           4.0295   20.3585   21.7485 O.2       1 ALC1        0.0000 
     24 O           3.2470   19.8160   20.9220 O.2       7 ALL1        0.0000 
     25 O           4.8120   20.9010   22.5750 O.2       4 ALP1        0.0000 
     26 O           4.4200   21.0945   21.0280 O.2       1 ALC1        0.0000 
     27 O           5.5930   22.3730   21.1340 O.2       4 ALP1        0.0000 
     28 CA          4.2250   21.9100   18.4160 C.3       3 GLC5        0.0000 
     29 CA          2.4230   21.7610   19.7390 C.3       9 GLL5        0.0000 
     30 CA          6.0270   22.0590   17.0930 C.3       6 GLP5        0.0000 
     31 CA          3.4995   23.4925   19.3560 C.3       3 GLC5        0.0000 
     32 CA          4.5760   25.2240   18.9730 C.3       6 GLP5        0.0000 
     33 CA          1.9260   23.5770   20.6955 C.3       3 GLC5        0.0000 
     34 CA          1.4290   25.3930   21.6520 C.3       6 GLP5        0.0000 
     35 O           4.0160   21.7105   21.6190 O.2       1 ALC1        0.0000 
     36 O           3.2200   22.5200   20.6630 O.2       7 ALL1        0.0000 
     37 CA          0.5565   22.9640   21.5610 C.3       3 GLC5        0.0000 
     38 CA          1.0500   20.7760   21.4020 C.3       9 GLL5        0.0000 
     39 CA          2.2065   17.8020   25.4915 C.3       3 GLC5        0.0000 
     40 CA          0.2460   18.4060   25.1160 C.3       9 GLL5        0.0000 
     41 CA          4.1670   17.1980   25.8670 C.3       6 GLP5        0.0000 
     42 CA         -1.1418   22.3985   17.1170 C.3       3 GLC5        0.0000 
     43 CA          2.5072   19.2210   22.1612 C.3       3 GLC5        0.0000 
     44 CA          2.1050   20.4220   20.3570 C.3       9 GLL5        0.0000 
     45 CA          3.4370   17.8430   23.4430 C.3       6 GLP5        0.0000 
@<TRIPOS>BOND
@<TRIPOS>SUBSTRUCTURE
     1 ALC1       23 GROUP        1 X    ALC  0     ROOT ALC X 1
     2 SEC2       20 GROUP        1 X    SEC  0     **** SEC X 2
     3 GLC5        1 GROUP        1 X    GLC  0     **** GLC X 6
     4 ALP1       25 GROUP        1 Y    ALP  0     ROOT ALP Y 8
     5 SEP2       22 GROUP        1 Y    SEP  0     **** SEP Y 9
     6 GLP5        3 GROUP        1 Y    GLP  0     **** GLP Y 13
     7 ALL1       24 GROUP        1 Z    ALL  0     ROOT ALL Z 15
     8 SEL2       21 GROUP        1 Z    SEL  0     **** SEL Z 16
     9 GLL5        2 GROUP        1 Z    GLL  0     **** GLL Z 20
@<TRIPOS>SET

