#    Name: 4f0r_MTA_1_ligand
#    Modification time : Mon Mar 24 18:53:06 2014

@<TRIPOS>MOLECULE
4f0r_MTA_1_ligand
   35    37     1     0     0
SMALL
NO_CHARGES


@<TRIPOS>ATOM
      1 CS         -0.1880   24.4300   17.3800 C.3       1 MTA503      0.0000 
      2 S5'         0.7530   22.9920   17.0560 S.3       1 MTA503      0.0000 
      3 C5'         0.3800   21.8800   18.3960 C.3       1 MTA503      0.0000 
      4 C4'         1.0370   22.3710   19.6710 C.3       1 MTA503      0.0000 
      5 O4'         0.3060   21.8730   20.8430 O.3       1 MTA503      0.0000 
      6 C2'         2.1050   20.4220   20.3570 C.3       1 MTA503      0.0000 
      7 O2'         3.2470   19.8160   20.9220 O.3       1 MTA503      0.0000 
      8 C3'         2.4230   21.7610   19.7390 C.3       1 MTA503      0.0000 
      9 O3'         3.2200   22.5200   20.6630 O.3       1 MTA503      0.0000 
     10 C1'         1.0500   20.7760   21.4020 C.3       1 MTA503      0.0000 
     11 N9          0.1500   19.6400   21.6610 N.pl3     1 MTA503      0.0000 
     12 C8         -0.7000   19.0570   20.7680 C.2       1 MTA503      0.0000 
     13 N7         -1.4170   18.0540   21.3750 N.2       1 MTA503      0.0000 
     14 C5         -1.0070   17.9920   22.6630 C.ar      1 MTA503      0.0000 
     15 C6         -1.3360   17.1620   23.8590 C.ar      1 MTA503      0.0000 
     16 N6         -2.2630   16.1840   23.7970 N.pl3     1 MTA503      0.0000 
     17 N1         -0.6830   17.4320   25.0190 N.ar      1 MTA503      0.0000 
     18 C2          0.2460   18.4060   25.1160 C.ar      1 MTA503      0.0000 
     19 N3          0.5670   19.2220   24.0880 N.ar      1 MTA503      0.0000 
     20 C4         -0.0120   19.0540   22.8550 C.ar      1 MTA503      0.0000 
     21 H           0.7651   20.9498   18.0507 H         1 MTA503      0.0000 
     22 H          -0.6836   21.8961   18.4327 H         1 MTA503      0.0000 
     23 H           1.1118   23.4157   19.6702 H         1 MTA503      0.0000 
     24 H           1.6228   19.8239   19.6075 H         1 MTA503      0.0000 
     25 H           2.8094   21.6450   18.8033 H         1 MTA503      0.0000 
     26 H           1.5535   21.0792   22.2935 H         1 MTA503      0.0000 
     27 H          -0.7901   19.3102   19.8352 H         1 MTA503      0.0000 
     28 H          -2.7477   16.0916   22.9272 H         1 MTA503      0.0000 
     29 H          -2.3831   15.6384   24.6264 H         1 MTA503      0.0000 
     30 H           0.7483   18.5378   26.0427 H         1 MTA503      0.0000 
     31 H           0.0541   24.8421   18.2584 H         1 MTA503      0.0000 
     32 H          -0.0494   25.1302   16.6796 H         1 MTA503      0.0000 
     33 H          -1.1682   24.2339   17.4084 H         1 MTA503      0.0000 
     34 H           3.6464   20.5171   21.5127 H         1 MTA503      0.0000 
     35 H           3.5645   21.8489   21.3195 H         1 MTA503      0.0000 
@<TRIPOS>BOND
     1    2    1 1    
     2   31    1 1    
     3   32    1 1    
     4   33    1 1    
     5    3    2 1    
     6    4    3 1    
     7   21    3 1    
     8   22    3 1    
     9    5    4 1    
    10    8    4 1    
    11   23    4 1    
    12   10    5 1    
    13    7    6 1    
    14    8    6 1    
    15   10    6 1    
    16   24    6 1    
    17   34    7 1    
    18    9    8 1    
    19   25    8 1    
    20   35    9 1    
    21   11   10 1    
    22   26   10 1    
    23   12   11 1    
    24   20   11 1    
    25   13   12 2    
    26   27   12 1    
    27   14   13 1    
    28   15   14 ar   
    29   20   14 ar   
    30   16   15 1    
    31   17   15 ar   
    32   28   16 1    
    33   29   16 1    
    34   18   17 ar   
    35   19   18 ar   
    36   30   18 1    
    37   20   19 ar   
@<TRIPOS>SUBSTRUCTURE
     1 MTA503      1 GROUP   
@<TRIPOS>SET

