#    Name: 4e5p_NAD_3_INTS_M
#    Modification time : Mon Apr  7 23:25:33 2014

@<TRIPOS>MOLECULE
4e5p_NAD_3_INTS_M
   88     0     9     0     0
SMALL
NO_CHARGES


@<TRIPOS>ATOM
      1 N         -20.3060   65.7835   92.6210 N.am      2 SEC2        0.0000 
      2 N         -20.0100   67.2130   92.3240 N.am      8 SEL2        0.0000 
      3 N         -20.6020   64.3540   92.9180 N.am      5 SEP2        0.0000 
      4 CA        -26.0130   67.7025   94.8280 C.3       3 GLC5        0.0000 
      5 CA        -24.5340   68.4910   93.6580 C.3       9 GLL5        0.0000 
      6 CA        -27.4920   66.9140   95.9980 C.3       6 GLP5        0.0000 
      7 N         -26.2620   66.3355   93.1915 N.am      2 SEC2        0.0000 
      8 N         -25.8810   67.2960   92.0720 N.am      8 SEL2        0.0000 
      9 N         -26.6430   65.3750   94.3110 N.am      5 SEP2        0.0000 
     10 CA        -27.7525   70.8620   91.5815 C.3       3 GLC5        0.0000 
     11 CA        -25.9860   69.7050   92.1840 C.3       9 GLL5        0.0000 
     12 CA        -29.5190   72.0190   90.9790 C.3       6 GLP5        0.0000 
     13 N         -28.3520   69.4340   90.2630 N.am      2 SEC2        0.0000 
     14 N         -27.0610   69.5890   91.2450 N.am      8 SEL2        0.0000 
     15 N         -29.6430   69.2790   89.2810 N.am      5 SEP2        0.0000 
     16 CA        -26.9920   68.3185   94.8070 C.3       3 GLC5        0.0000 
     17 CA        -26.4920   69.7230   93.6160 C.3       9 GLL5        0.0000 
     18 CA        -28.0965   68.2960   93.0590 C.3       3 GLC5        0.0000 
     19 CA        -29.7010   66.8690   92.5020 C.3       6 GLP5        0.0000 
     20 CA        -26.1465   70.1970   95.7465 C.3       3 GLC5        0.0000 
     21 CA        -25.8010   70.6710   97.8770 C.3       6 GLP5        0.0000 
     22 CA        -25.0510   70.8865   94.7160 C.3       3 GLC5        0.0000 
     23 CA        -23.6100   72.0500   95.8160 C.3       6 GLP5        0.0000 
     24 N         -27.0335   74.4970   93.8690 N.am      2 SEC2        0.0000 
     25 N         -27.3490   73.1850   94.2290 N.am      8 SEL2        0.0000 
     26 N         -26.7180   75.8090   93.5090 N.am      5 SEP2        0.0000 
     27 CA        -29.4460   73.7270   93.2425 C.3       3 GLC5        0.0000 
     28 CA        -29.6090   72.9670   95.3120 C.3       9 GLL5        0.0000 
     29 CA        -29.2830   74.4870   91.1730 C.3       6 GLP5        0.0000 
     30 CA        -30.1350   73.7870   97.1140 C.3       3 GLC5        0.0000 
     31 CA        -30.6610   74.6070   98.9160 C.3       6 GLP5        0.0000 
     32 CA        -31.0205   69.8905   97.2515 C.3       3 GLC5        0.0000 
     33 CA        -30.3120   70.7360   95.5440 C.3       9 GLL5        0.0000 
     34 CA        -31.7290   69.0450   98.9590 C.3       6 GLP5        0.0000 
     35 CA        -30.5215   69.2775   94.3010 C.3       3 GLC5        0.0000 
     36 CA        -30.7310   67.8190   93.0580 C.3       6 GLP5        0.0000 
     37 CA        -29.0150   71.2970   97.2405 C.3       3 GLC5        0.0000 
     38 CA        -27.7180   71.8580   98.9370 C.3       6 GLP5        0.0000 
     39 N         -29.7520   70.0855   93.4020 N.am      2 SEC2        0.0000 
     40 N         -29.1800   70.3000   94.9690 N.am      8 SEL2        0.0000 
     41 N         -30.3240   69.8710   91.8350 N.am      5 SEP2        0.0000 
     42 CA        -29.4835   69.5035   93.8050 C.3       3 GLC5        0.0000 
     43 CA        -28.2360   71.1880   94.5520 C.3       9 GLL5        0.0000 
     44 CA        -27.0185   70.9295   96.2145 C.3       3 GLC5        0.0000 
     45 N         -20.0820   64.8745   95.5390 N.am      2 SEC2        0.0000 
     46 N         -20.2860   66.2890   95.4000 N.am      8 SEL2        0.0000 
     47 N         -19.8780   63.4600   95.6780 N.am      5 SEP2        0.0000 
     48 CA        -20.5010   66.7795   97.8675 C.3       3 GLC5        0.0000 
     49 CA        -20.2920   68.7350   97.3990 C.3       9 GLL5        0.0000 
     50 CA        -20.7100   64.8240   98.3360 C.3       6 GLP5        0.0000 
     51 CA        -22.3545   69.3720   97.5985 C.3       3 GLC5        0.0000 
     52 CA        -24.4170   70.0090   97.7980 C.3       6 GLP5        0.0000 
     53 CA        -20.6955   69.5660  100.3420 C.3       3 GLC5        0.0000 
     54 CA        -19.7120   69.5290   98.5650 C.3       9 GLL5        0.0000 
     55 CA        -21.6790   69.6030  102.1190 C.3       6 GLP5        0.0000 
     56 CA        -19.0585   69.2585  101.2870 C.3       3 GLC5        0.0000 
     57 CA        -17.7860   69.3070   99.8590 C.3       9 GLL5        0.0000 
     58 CA        -20.3310   69.2100  102.7150 C.3       6 GLP5        0.0000 
     59 CA        -18.3315   68.7370  102.0965 C.3       3 GLC5        0.0000 
     60 CA        -16.3320   68.2640  101.4780 C.3       9 GLL5        0.0000 
     61 O         -17.1885   67.2860  103.9340 O.2       1 ALC1        0.0000 
     62 O         -15.8020   67.4170  104.2620 O.2       7 ALL1        0.0000 
     63 O         -18.5750   67.1550  103.6060 O.2       4 ALP1        0.0000 
     64 O         -15.4720   67.0170  105.6710 O.2       1 ALC1        0.0000 
     65 O         -15.1420   66.6170  107.0800 O.2       4 ALP1        0.0000 
     66 CA        -15.3545   64.9235  100.7145 C.3       3 GLC5        0.0000 
     67 CA        -15.1250   66.7010   99.5360 C.3       9 GLL5        0.0000 
     68 CA        -15.5840   63.1460  101.8930 C.3       6 GLP5        0.0000 
     69 CA        -24.1190   69.3833   95.7477 C.3       3 GLC5        0.0000 
     70 CA        -23.7155   70.4038   94.7567 C.3       3 GLC5        0.0000 
     71 CA        -23.1080   69.0240   93.7370 C.3       9 GLL5        0.0000 
     72 CA        -23.6653   66.7766   92.6216 C.3       3 GLC5        0.0000 
     73 CA        -22.8730   64.9320   92.2760 C.3       6 GLP5        0.0000 
     74 CA        -28.9270   71.9425   92.8070 C.3       3 GLC5        0.0000 
     75 CA        -28.3697   72.3067   96.9760 C.3       3 GLC5        0.0000 
     76 CA        -28.4340   72.5440   94.7180 C.3       9 GLL5        0.0000 
     77 CA        -27.9603   74.1093   96.1025 C.3       3 GLC5        0.0000 
     78 CA        -26.8990   75.4630   97.1900 C.3       6 GLP5        0.0000 
     79 CA        -20.6382   71.3657   97.6933 C.3       3 GLC5        0.0000 
     80 CA        -18.7230   70.5790   98.0790 C.3       9 GLL5        0.0000 
     81 CA        -21.9140   72.8760   97.3560 C.3       6 GLP5        0.0000 
     82 CA        -13.0328   65.9563   99.3808 C.3       3 GLC5        0.0000 
     83 CA        -14.7100   66.6040  100.8610 C.3       9 GLL5        0.0000 
     84 CA        -11.1480   65.2600   98.5630 C.3       6 GLP5        0.0000 
     85 CA        -15.9779   65.6172  101.8966 C.3       3 GLC5        0.0000 
     86 CA        -16.6890   64.0200  102.5310 C.3       6 GLP5        0.0000 
     87 CA        -16.9390   65.6215   98.8252 C.3       3 GLC5        0.0000 
     88 CA        -18.2440   64.0900   98.2670 C.3       6 GLP5        0.0000 
@<TRIPOS>BOND
@<TRIPOS>SUBSTRUCTURE
     1 ALC1       61 GROUP        1 X    ALC  0     ROOT ALC X 1
     2 SEC2        1 GROUP        1 X    SEC  0     **** SEC X 2
     3 GLC5        4 GROUP        1 X    GLC  0     **** GLC X 6
     4 ALP1       63 GROUP        1 Y    ALP  0     ROOT ALP Y 8
     5 SEP2        3 GROUP        1 Y    SEP  0     **** SEP Y 9
     6 GLP5        6 GROUP        1 Y    GLP  0     **** GLP Y 13
     7 ALL1       62 GROUP        1 Z    ALL  0     ROOT ALL Z 15
     8 SEL2        2 GROUP        1 Z    SEL  0     **** SEL Z 16
     9 GLL5        5 GROUP        1 Z    GLL  0     **** GLL Z 20
@<TRIPOS>SET

