#    Name: 4e5p_NAD_3_ligand
#    Modification time : Mon Apr  7 23:25:33 2014

@<TRIPOS>MOLECULE
4e5p_NAD_3_ligand
   70    74     1     0     0
SMALL
NO_CHARGES


@<TRIPOS>ATOM
      1 PA        -20.6730   68.4260   92.9240 P.3       1 NAD800      0.0000 
      2 O1A       -20.0100   67.2130   92.3240 O.co2     1 NAD800      0.0000 
      3 O2A       -20.5990   69.7810   92.2640 O.co2     1 NAD800      0.0000 
      4 O5B       -22.2300   68.0820   93.1330 O.3       1 NAD800      0.0000 
      5 C5B       -23.1080   69.0240   93.7370 C.3       1 NAD800      0.0000 
      6 C4B       -24.5340   68.4910   93.6580 C.3       1 NAD800      0.0000 
      7 O4B       -25.3810   69.3460   94.4230 O.3       1 NAD800      0.0000 
      8 C3B       -25.0940   68.4850   92.2370 C.3       1 NAD800      0.0000 
      9 O3B       -25.8810   67.2960   92.0720 O.3       1 NAD800      0.0000 
     10 C2B       -25.9860   69.7050   92.1840 C.3       1 NAD800      0.0000 
     11 O2B       -27.0610   69.5890   91.2450 O.3       1 NAD800      0.0000 
     12 C1B       -26.4920   69.7230   93.6160 C.3       1 NAD800      0.0000 
     13 N9A       -27.0500   71.0390   93.9730 N.pl3     1 NAD800      0.0000 
     14 C8A       -26.5010   72.2480   93.7610 C.2       1 NAD800      0.0000 
     15 N7A       -27.3490   73.1850   94.2290 N.2       1 NAD800      0.0000 
     16 C5A       -28.4340   72.5440   94.7180 C.ar      1 NAD800      0.0000 
     17 C6A       -29.6090   72.9670   95.3120 C.ar      1 NAD800      0.0000 
     18 N6A       -29.8260   74.2890   95.4830 N.pl3     1 NAD800      0.0000 
     19 N1A       -30.5260   72.0540   95.7150 N.ar      1 NAD800      0.0000 
     20 C2A       -30.3120   70.7360   95.5440 C.ar      1 NAD800      0.0000 
     21 N3A       -29.1800   70.3000   94.9690 N.ar      1 NAD800      0.0000 
     22 C4A       -28.2360   71.1880   94.5520 C.ar      1 NAD800      0.0000 
     23 O3        -20.1150   68.6350   94.4290 O.3       1 NAD800      0.0000 
     24 PN        -19.3650   67.4690   95.2580 P.3       1 NAD800      0.0000 
     25 O1N       -17.9670   67.2740   94.7250 O.co2     1 NAD800      0.0000 
     26 O2N       -20.2860   66.2890   95.4000 O.co2     1 NAD800      0.0000 
     27 O5D       -19.1920   68.1920   96.6800 O.3       1 NAD800      0.0000 
     28 C5D       -20.2920   68.7350   97.3990 C.3       1 NAD800      0.0000 
     29 C4D       -19.7120   69.5290   98.5650 C.3       1 NAD800      0.0000 
     30 O4D       -18.9770   68.6480   99.4180 O.3       1 NAD800      0.0000 
     31 C3D       -18.7230   70.5790   98.0790 C.3       1 NAD800      0.0000 
     32 O3D       -19.1730   71.8690   98.5050 O.3       1 NAD800      0.0000 
     33 C2D       -17.3900   70.2410   98.7210 C.3       1 NAD800      0.0000 
     34 O2D       -16.7120   71.4030   99.2090 O.3       1 NAD800      0.0000 
     35 C1D       -17.7860   69.3070   99.8590 C.3       1 NAD800      0.0000 
     36 N1N       -16.7220   68.3520  100.1920 N.pl3     1 NAD800      0.0000 
     37 C2N       -16.3320   68.2640  101.4780 C.ar      1 NAD800      0.0000 
     38 C3N       -15.3150   67.3860  101.8490 C.ar      1 NAD800      0.0000 
     39 C7N       -14.8880   67.2620  103.2910 C.2       1 NAD800      0.0000 
     40 O7N       -13.7250   66.9840  103.5460 O.2       1 NAD800      0.0000 
     41 N7N       -15.8020   67.4170  104.2620 N.am      1 NAD800      0.0000 
     42 C4N       -14.7100   66.6040  100.8610 C.ar      1 NAD800      0.0000 
     43 C5N       -15.1250   66.7010   99.5360 C.ar      1 NAD800      0.0000 
     44 C6N       -16.1430   67.6050   99.2310 C.ar      1 NAD800      0.0000 
     45 H         -23.0834   69.9914   93.2272 H         1 NAD800      0.0000 
     46 H         -22.8696   69.1874   94.7918 H         1 NAD800      0.0000 
     47 H         -24.5606   67.4903   94.0417 H         1 NAD800      0.0000 
     48 H         -24.3127   68.5787   91.5584 H         1 NAD800      0.0000 
     49 H         -25.3732   70.5598   92.0497 H         1 NAD800      0.0000 
     50 H         -27.2714   68.9608   93.6788 H         1 NAD800      0.0000 
     51 H         -25.6458   72.4176   93.3449 H         1 NAD800      0.0000 
     52 H         -29.0908   74.8978   95.1849 H         1 NAD800      0.0000 
     53 H         -30.7026   74.5417   95.8925 H         1 NAD800      0.0000 
     54 H         -31.0338   70.0481   95.8620 H         1 NAD800      0.0000 
     55 H         -20.9366   67.9625   97.8073 H         1 NAD800      0.0000 
     56 H         -20.8834   69.4141   96.7924 H         1 NAD800      0.0000 
     57 H         -20.4987   70.0144   99.0931 H         1 NAD800      0.0000 
     58 H         -18.6342   70.4994   97.0268 H         1 NAD800      0.0000 
     59 H         -16.8179   69.6754   98.0209 H         1 NAD800      0.0000 
     60 H         -18.0124   69.9346  100.7178 H         1 NAD800      0.0000 
     61 H         -16.7787   68.8450  102.2135 H         1 NAD800      0.0000 
     62 H         -15.4774   67.2796  105.1978 H         1 NAD800      0.0000 
     63 H         -16.7257   67.6560  103.9627 H         1 NAD800      0.0000 
     64 H         -13.9542   65.9541  101.1171 H         1 NAD800      0.0000 
     65 H         -14.7007   66.1318   98.8121 H         1 NAD800      0.0000 
     66 H         -16.4462   67.6889   98.2371 H         1 NAD800      0.0000 
     67 H         -26.7843   67.6205   91.7914 H         1 NAD800      0.0000 
     68 H         -26.6797   69.9025   90.3753 H         1 NAD800      0.0000 
     69 H         -18.3628   72.3118   98.8890 H         1 NAD800      0.0000 
     70 H         -16.6648   71.2779  100.2000 H         1 NAD800      0.0000 
@<TRIPOS>BOND
     1    2    1 ar   
     2    3    1 ar   
     3    4    1 1    
     4   23    1 1    
     5    5    4 1    
     6    6    5 1    
     7   45    5 1    
     8   46    5 1    
     9    7    6 1    
    10    8    6 1    
    11   47    6 1    
    12   12    7 1    
    13    9    8 1    
    14   10    8 1    
    15   48    8 1    
    16   67    9 1    
    17   11   10 1    
    18   12   10 1    
    19   49   10 1    
    20   68   11 1    
    21   13   12 1    
    22   50   12 1    
    23   14   13 1    
    24   22   13 1    
    25   15   14 2    
    26   51   14 1    
    27   16   15 1    
    28   17   16 ar   
    29   22   16 ar   
    30   18   17 1    
    31   19   17 ar   
    32   52   18 1    
    33   53   18 1    
    34   20   19 ar   
    35   21   20 ar   
    36   54   20 1    
    37   22   21 ar   
    38   24   23 1    
    39   25   24 ar   
    40   26   24 ar   
    41   27   24 1    
    42   28   27 1    
    43   29   28 1    
    44   55   28 1    
    45   56   28 1    
    46   30   29 1    
    47   31   29 1    
    48   57   29 1    
    49   35   30 1    
    50   32   31 1    
    51   33   31 1    
    52   58   31 1    
    53   69   32 1    
    54   34   33 1    
    55   35   33 1    
    56   59   33 1    
    57   70   34 1    
    58   36   35 1    
    59   60   35 1    
    60   37   36 ar   
    61   44   36 ar   
    62   38   37 ar   
    63   61   37 1    
    64   39   38 1    
    65   42   38 ar   
    66   40   39 2    
    67   41   39 am   
    68   62   41 1    
    69   63   41 1    
    70   43   42 ar   
    71   64   42 1    
    72   44   43 ar   
    73   65   43 1    
    74   66   44 1    
@<TRIPOS>SUBSTRUCTURE
     1 NAD800      1 GROUP   
@<TRIPOS>SET

