#    Name: 4ihq_ADP_2_INTS_M
#    Modification time : Tue Mar 25 03:58:33 2014

@<TRIPOS>MOLECULE
4ihq_ADP_2_INTS_M
   51     0    15     0     0
SMALL
NO_CHARGES


@<TRIPOS>ATOM
      1 Zn         28.2325  201.3935  119.7670 Zn        4 ZIC7        0.0000 
      2 Zn         29.3470  201.8160  120.1160 Zn       14 ZIL7        0.0000 
      3 Zn         27.1180  200.9710  119.4180 Zn        9 ZIP7        0.0000 
      4 NZ         28.4940  204.7835  120.5465 N.4       3 LYC4        0.0000 
      5 NZ         29.2890  204.0150  121.4070 N.4      13 LYL4        0.0000 
      6 NZ         27.6990  205.5520  119.6860 N.4       8 LYP4        0.0000 
      7 N          30.3535  204.3925  122.4380 N.am      2 SEC2        0.0000 
      8 N          29.2890  204.0150  121.4070 N.am     12 SEL2        0.0000 
      9 N          31.4180  204.7700  123.4690 N.am      7 SEP2        0.0000 
     10 N          29.0370  204.3575  122.8790 N.am      2 SEC2        0.0000 
     11 N          28.7850  204.7000  124.3510 N.am      7 SEP2        0.0000 
     12 N          28.4940  204.7835  120.5465 N.am      2 SEC2        0.0000 
     13 N          27.6990  205.5520  119.6860 N.am      7 SEP2        0.0000 
     14 N          27.3815  202.4110  123.5570 N.am      2 SEC2        0.0000 
     15 N          27.9740  202.1150  122.2140 N.am     12 SEL2        0.0000 
     16 N          26.7890  202.7070  124.9000 N.am      7 SEP2        0.0000 
     17 N          26.4650  202.2880  121.5220 N.am      2 SEC2        0.0000 
     18 N          24.9560  202.4610  120.8300 N.am      7 SEP2        0.0000 
     19 N          28.8630  201.1420  125.9005 N.am      2 SEC2        0.0000 
     20 N          29.7710  200.9860  124.8390 N.am     12 SEL2        0.0000 
     21 N          27.9550  201.2980  126.9620 N.am      7 SEP2        0.0000 
     22 N          30.1415  200.5310  126.0175 N.am      2 SEC2        0.0000 
     23 N          30.5120  200.0760  127.1960 N.am      7 SEP2        0.0000 
     24 N          30.8690  203.4465  122.9770 N.am      2 SEC2        0.0000 
     25 N          30.3200  202.1230  122.4850 N.am     12 SEL2        0.0000 
     26 CA         32.9115  202.1370  121.0820 C.3       5 GLC5        0.0000 
     27 CA         32.9470  200.7130  122.5740 C.3      15 GLL5        0.0000 
     28 CA         32.8760  203.5610  119.5900 C.3      10 GLP5        0.0000 
     29 CA         32.0305  202.4405  123.6705 C.3       5 GLC5        0.0000 
     30 CA         31.1140  204.1680  124.7670 C.3      10 GLP5        0.0000 
     31 O          33.2695  197.9920  127.1320 O.2       1 ALC1        0.0000 
     32 O          34.5320  198.1220  126.0730 O.2      11 ALL1        0.0000 
     33 O          32.0070  197.8620  128.1910 O.2       6 ALP1        0.0000 
     34 CA         32.7130  201.9900  128.6375 C.3       5 GLC5        0.0000 
     35 CA         34.5240  203.0460  127.8220 C.3      15 GLL5        0.0000 
     36 CA         30.9020  200.9340  129.4530 C.3      10 GLP5        0.0000 
     37 CA         33.9270  203.7635  130.4810 C.3       5 GLC5        0.0000 
     38 CA         35.1730  203.9230  128.7980 C.3      15 GLL5        0.0000 
     39 CA         32.6810  203.6040  132.1640 C.3      10 GLP5        0.0000 
     40 CA         35.3335  205.4105  127.6350 C.3       5 GLC5        0.0000 
     41 CA         35.4940  206.8980  126.4720 C.3      10 GLP5        0.0000 
     42 O          34.9145  205.9850  130.0885 O.2       1 ALC1        0.0000 
     43 O          34.4120  204.7990  129.4880 O.2      11 ALL1        0.0000 
     44 O          35.4170  207.1710  130.6890 O.2       6 ALP1        0.0000 
     45 O          33.0420  204.8150  129.0625 O.2       1 ALC1        0.0000 
     46 O          31.6720  204.8310  128.6370 O.2       6 ALP1        0.0000 
     47 CA         36.5045  203.8670  126.6795 C.3       5 GLC5        0.0000 
     48 CA         37.2350  202.8960  128.2800 C.3      15 GLL5        0.0000 
     49 CA         35.7740  204.8380  125.0790 C.3      10 GLP5        0.0000 
     50 CA         35.3593  203.7043  126.2705 C.3       5 GLC5        0.0000 
     51 CA         35.3650  202.0950  127.1020 C.3      15 GLL5        0.0000 
@<TRIPOS>BOND
@<TRIPOS>SUBSTRUCTURE
     1 ALC1       31 GROUP        1 X    ALC  0     ROOT ALC X 1
     2 SEC2        7 GROUP        1 X    SEC  0     **** SEC X 2
     3 LYC4        4 GROUP        1 X    LYC  0     **** LYC X 4
     4 ZIC7        1 GROUP        1 X    ZIC  0     **** ZIC X 5
     5 GLC5       26 GROUP        1 X    GLC  0     **** GLC X 6
     6 ALP1       33 GROUP        1 Y    ALP  0     ROOT ALP Y 8
     7 SEP2        9 GROUP        1 Y    SEP  0     **** SEP Y 9
     8 LYP4        6 GROUP        1 Y    LYP  0     **** LYP Y 11
     9 ZIP7        3 GROUP        1 Y    ZIP  0     **** ZIP Y 12
    10 GLP5       28 GROUP        1 Y    GLP  0     **** GLP Y 13
    11 ALL1       32 GROUP        1 Z    ALL  0     ROOT ALL Z 15
    12 SEL2        8 GROUP        1 Z    SEL  0     **** SEL Z 16
    13 LYL4        5 GROUP        1 Z    LYL  0     **** LYL Z 18
    14 ZIL7        2 GROUP        1 Z    ZIL  0     **** ZIL Z 19
    15 GLL5       27 GROUP        1 Z    GLL  0     **** GLL Z 20
@<TRIPOS>SET

