#    Name: 4ihq_ADP_2_ligand
#    Modification time : Tue Mar 25 03:58:33 2014

@<TRIPOS>MOLECULE
4ihq_ADP_2_ligand
   39    41     1     0     0
SMALL
NO_CHARGES


@<TRIPOS>ATOM
      1 PB         29.1250  202.5060  121.4160 P.3       1 ADP601      0.0000 
      2 O1B        29.3470  201.8160  120.1160 O.co2     1 ADP601      0.0000 
      3 O2B        29.2890  204.0150  121.4070 O.co2     1 ADP601      0.0000 
      4 O3B        27.9740  202.1150  122.2140 O.co2     1 ADP601      0.0000 
      5 PA         30.4190  200.8160  123.4660 P.3       1 ADP601      0.0000 
      6 O1A        30.0520  199.5540  122.7140 O.co2     1 ADP601      0.0000 
      7 O2A        29.7710  200.9860  124.8390 O.co2     1 ADP601      0.0000 
      8 O3A        30.3200  202.1230  122.4850 O.3       1 ADP601      0.0000 
      9 O5'        32.0300  200.7780  123.6780 O.3       1 ADP601      0.0000 
     10 C5'        32.9470  200.7130  122.5740 C.3       1 ADP601      0.0000 
     11 C4'        34.2990  200.1450  123.0660 C.3       1 ADP601      0.0000 
     12 O4'        34.8370  201.0370  124.0460 O.3       1 ADP601      0.0000 
     13 C3'        34.1350  198.8210  123.7820 C.3       1 ADP601      0.0000 
     14 O3'        35.3330  198.0580  123.5840 O.3       1 ADP601      0.0000 
     15 C2'        34.0470  199.1820  125.2480 C.3       1 ADP601      0.0000 
     16 O2'        34.5320  198.1220  126.0730 O.3       1 ADP601      0.0000 
     17 C1'        34.9460  200.4020  125.3220 C.3       1 ADP601      0.0000 
     18 N9         34.5270  201.4390  126.2830 N.pl3     1 ADP601      0.0000 
     19 C8         33.2760  201.9130  126.4420 C.2       1 ADP601      0.0000 
     20 N7         33.2580  202.8840  127.3840 N.2       1 ADP601      0.0000 
     21 C5         34.5240  203.0460  127.8220 C.ar      1 ADP601      0.0000 
     22 C6         35.1730  203.9230  128.7980 C.ar      1 ADP601      0.0000 
     23 N6         34.4120  204.7990  129.4880 N.pl3     1 ADP601      0.0000 
     24 N1         36.5120  203.7910  128.9820 N.ar      1 ADP601      0.0000 
     25 C2         37.2350  202.8960  128.2800 C.ar      1 ADP601      0.0000 
     26 N3         36.7000  202.0670  127.3620 N.ar      1 ADP601      0.0000 
     27 C4         35.3650  202.0950  127.1020 C.ar      1 ADP601      0.0000 
     28 H          33.1413  201.6983  122.1471 H         1 ADP601      0.0000 
     29 H          32.5845  200.0563  121.7814 H         1 ADP601      0.0000 
     30 H          34.9549  200.0290  122.2451 H         1 ADP601      0.0000 
     31 H          33.2720  198.3471  123.4728 H         1 ADP601      0.0000 
     32 H          33.0574  199.4823  125.4612 H         1 ADP601      0.0000 
     33 H          35.9498  200.1041  125.4932 H         1 ADP601      0.0000 
     34 H          32.4913  201.6020  125.9489 H         1 ADP601      0.0000 
     35 H          33.4389  204.8129  129.2580 H         1 ADP601      0.0000 
     36 H          34.8890  205.3561  130.1678 H         1 ADP601      0.0000 
     37 H          38.2840  202.8411  128.4602 H         1 ADP601      0.0000 
     38 H          35.6211  197.7859  124.5022 H         1 ADP601      0.0000 
     39 H          33.8280  197.9952  126.7718 H         1 ADP601      0.0000 
@<TRIPOS>BOND
     1    2    1 ar   
     2    3    1 ar   
     3    4    1 ar   
     4    8    1 1    
     5    6    5 ar   
     6    7    5 ar   
     7    8    5 1    
     8    9    5 1    
     9   10    9 1    
    10   11   10 1    
    11   28   10 1    
    12   29   10 1    
    13   12   11 1    
    14   13   11 1    
    15   30   11 1    
    16   17   12 1    
    17   14   13 1    
    18   15   13 1    
    19   31   13 1    
    20   38   14 1    
    21   16   15 1    
    22   17   15 1    
    23   32   15 1    
    24   39   16 1    
    25   18   17 1    
    26   33   17 1    
    27   19   18 1    
    28   27   18 1    
    29   20   19 2    
    30   34   19 1    
    31   21   20 1    
    32   22   21 ar   
    33   27   21 ar   
    34   23   22 1    
    35   24   22 ar   
    36   35   23 1    
    37   36   23 1    
    38   25   24 ar   
    39   26   25 ar   
    40   37   25 1    
    41   27   26 ar   
@<TRIPOS>SUBSTRUCTURE
     1 ADP601      1 GROUP   
@<TRIPOS>SET

