#    Name: 4bkj_STI_1_INTS_M
#    Modification time : Tue Mar 25 07:50:38 2014

@<TRIPOS>MOLECULE
4bkj_STI_1_INTS_M
   93     0     9     0     0
SMALL
NO_CHARGES


@<TRIPOS>ATOM
      1 CA        -24.1620   28.9695   31.5870 C.3       3 GLC5        0.0000 
      2 CA        -22.4770   30.1870   32.3750 C.3       9 GLL5        0.0000 
      3 CA        -25.8470   27.7520   30.7990 C.3       6 GLP5        0.0000 
      4 CA        -24.5790   29.8330   35.9170 C.3       3 GLC5        0.0000 
      5 CA        -22.9950   29.6760   34.6610 C.3       9 GLL5        0.0000 
      6 CA        -26.1630   29.9900   37.1730 C.3       6 GLP5        0.0000 
      7 CA        -21.5490   30.0530   35.6865 C.3       3 GLC5        0.0000 
      8 CA        -20.1030   30.4300   36.7120 C.3       6 GLP5        0.0000 
      9 N         -24.2970   31.5185   35.9420 N.am      2 SEC2        0.0000 
     10 N         -23.5160   30.8850   34.8340 N.am      8 SEL2        0.0000 
     11 N         -25.0780   32.1520   37.0500 N.am      5 SEP2        0.0000 
     12 CA        -23.4455   32.8135   35.6275 C.3       3 GLC5        0.0000 
     13 CA        -23.5370   31.7770   33.8560 C.3       9 GLL5        0.0000 
     14 CA        -23.3540   33.8500   37.3990 C.3       6 GLP5        0.0000 
     15 CA        -21.6970   31.9365   34.3620 C.3       3 GLC5        0.0000 
     16 CA        -19.8570   32.0960   34.8680 C.3       6 GLP5        0.0000 
     17 CA        -23.0325   26.0240   34.5660 C.3       3 GLC5        0.0000 
     18 CA        -21.1200   26.0470   34.3530 C.3       9 GLL5        0.0000 
     19 CA        -24.9450   26.0010   34.7790 C.3       6 GLP5        0.0000 
     20 O         -21.8665   25.4430   36.6675 O.2       1 ALC1        0.0000 
     21 O         -20.9320   25.3820   35.5870 O.2       7 ALL1        0.0000 
     22 O         -22.8010   25.5040   37.7480 O.2       4 ALP1        0.0000 
     23 CA        -21.1300   19.9885   36.3940 C.3       3 GLC5        0.0000 
     24 CA        -20.4550   21.6610   35.6410 C.3       9 GLL5        0.0000 
     25 CA        -21.8050   18.3160   37.1470 C.3       6 GLP5        0.0000 
     26 CA        -19.2725   20.6540   34.1570 C.3       3 GLC5        0.0000 
     27 CA        -19.0860   21.6060   35.9370 C.3       9 GLL5        0.0000 
     28 CA        -19.4590   19.7020   32.3770 C.3       6 GLP5        0.0000 
     29 CA        -19.1185   19.6270   36.5645 C.3       3 GLC5        0.0000 
     30 CA        -19.1510   17.6480   37.1920 C.3       6 GLP5        0.0000 
     31 CA        -17.4290   22.3515   37.9725 C.3       3 GLC5        0.0000 
     32 CA        -18.3440   22.7840   36.0920 C.3       9 GLL5        0.0000 
     33 CA        -16.5140   21.9190   39.8530 C.3       6 GLP5        0.0000 
     34 O         -16.6330   21.3790   35.8100 O.2       1 ALC1        0.0000 
     35 O         -16.9660   22.6370   36.4700 O.2       7 ALL1        0.0000 
     36 O         -16.3000   20.1210   35.1500 O.2       4 ALP1        0.0000 
     37 CA        -14.3835   26.0795   37.5135 C.3       3 GLC5        0.0000 
     38 CA        -14.0050   24.2220   38.0630 C.3       9 GLL5        0.0000 
     39 CA        -14.7620   27.9370   36.9640 C.3       6 GLP5        0.0000 
     40 CA         -7.5680   21.2650   39.8295 C.3       3 GLC5        0.0000 
     41 CA         -8.6850   21.1170   38.1230 C.3       9 GLL5        0.0000 
     42 CA         -6.4510   21.4130   41.5360 C.3       6 GLP5        0.0000 
     43 O          -6.6940   21.7125   36.4835 O.2       1 ALC1        0.0000 
     44 O          -7.7880   21.1270   35.8360 O.2       7 ALL1        0.0000 
     45 O          -5.6000   22.2980   37.1310 O.2       4 ALP1        0.0000 
     46 CA         -5.5275   21.4810   34.0520 C.3       3 GLC5        0.0000 
     47 CA         -7.0320   20.4250   34.7670 C.3       9 GLL5        0.0000 
     48 CA         -4.0230   22.5370   33.3370 C.3       6 GLP5        0.0000 
     49 CA        -11.1965   23.6245   35.5050 C.3       3 GLC5        0.0000 
     50 CA         -9.8900   22.4520   36.4890 C.3       9 GLL5        0.0000 
     51 CA        -12.5030   24.7970   34.5210 C.3       6 GLP5        0.0000 
     52 N         -15.3060   25.6165   35.9005 N.am      2 SEC2        0.0000 
     53 N         -16.3120   24.9010   36.5940 N.am      8 SEL2        0.0000 
     54 N         -14.3000   26.3320   35.2070 N.am      5 SEP2        0.0000 
     55 CA        -23.1300   23.5850   33.0775 C.3       3 GLC5        0.0000 
     56 CA        -22.5390   22.9740   35.1520 C.3       9 GLL5        0.0000 
     57 CA        -23.7210   24.1960   31.0030 C.3       6 GLP5        0.0000 
     58 CA        -23.7420   24.4875   34.9655 C.3       3 GLC5        0.0000 
     59 CA        -24.4155   22.2920   34.6515 C.3       3 GLC5        0.0000 
     60 CA        -26.2920   21.6100   34.1510 C.3       6 GLP5        0.0000 
     61 CA        -21.2378   31.0688   33.9124 C.3       3 GLC5        0.0000 
     62 CA        -22.4770   29.2620   33.4250 C.3       9 GLL5        0.0000 
     63 CA        -23.6295   27.3618   34.2225 C.3       3 GLC5        0.0000 
     64 CA        -22.4443   25.4800   31.5315 C.3       3 GLC5        0.0000 
     65 CA        -21.4730   27.3940   32.0540 C.3       9 GLL5        0.0000 
     66 CA        -20.7112   22.7003   37.3495 C.3       3 GLC5        0.0000 
     67 CA        -21.6520   23.7670   38.9100 C.3       6 GLP5        0.0000 
     68 CA        -20.1465   23.5892   37.4785 C.3       3 GLC5        0.0000 
     69 CA        -18.9380   24.0390   36.0020 C.3       9 GLL5        0.0000 
     70 CA        -15.7460   24.9262   38.6818 C.3       3 GLC5        0.0000 
     71 CA        -14.6850   23.3050   37.2280 C.3       9 GLL5        0.0000 
     72 CA        -17.1470   26.0890   39.7180 C.3       6 GLP5        0.0000 
     73 CA        -13.4578   23.7355   35.7998 C.3       3 GLC5        0.0000 
     74 CA        -14.4633   20.0502   36.7222 C.3       3 GLC5        0.0000 
     75 CA        -14.1400   22.0430   36.9290 C.3       9 GLL5        0.0000 
     76 CA        -15.4210   18.2290   36.2720 C.3       6 GLP5        0.0000 
     77 CA        -15.0779   22.0530   38.5501 C.3       3 GLC5        0.0000 
     78 CA        -12.8710   21.7000   37.4160 C.3       9 GLL5        0.0000 
     79 CA        -12.5183   23.4817   36.1675 C.3       3 GLC5        0.0000 
     80 CA        -14.9420   22.9798   39.0775 C.3       3 GLC5        0.0000 
     81 CA        -12.7350   23.8590   38.5410 C.3       9 GLL5        0.0000 
     82 CA        -12.9365   24.4188   36.4115 C.3       3 GLC5        0.0000 
     83 CA        -11.7451   20.6894   39.5418 C.3       3 GLC5        0.0000 
     84 CA        -11.8090   19.1640   40.8020 C.3       6 GLP5        0.0000 
     85 CA        -12.3481   22.6593   40.3964 C.3       3 GLC5        0.0000 
     86 CA        -10.8290   22.2630   38.7490 C.3       9 GLL5        0.0000 
     87 CA        -13.0490   22.5640   42.2300 C.3       6 GLP5        0.0000 
     88 CA         -7.9040   23.4885   36.2565 C.3       3 GLC5        0.0000 
     89 CA         -6.3240   24.8900   36.5740 C.3       6 GLP5        0.0000 
     90 CA        -21.7686   21.2867   34.1629 C.3       3 GLC5        0.0000 
     91 CA        -21.0480   22.8930   35.4860 C.3       9 GLL5        0.0000 
     92 CA        -21.8920   19.9480   32.9680 C.3       6 GLP5        0.0000 
     93 CA        -21.6309   23.4996   37.1381 C.3       3 GLC5        0.0000 
@<TRIPOS>BOND
@<TRIPOS>SUBSTRUCTURE
     1 ALC1       20 GROUP        1 X    ALC  0     ROOT ALC X 1
     2 SEC2        9 GROUP        1 X    SEC  0     **** SEC X 2
     3 GLC5        1 GROUP        1 X    GLC  0     **** GLC X 6
     4 ALP1       22 GROUP        1 Y    ALP  0     ROOT ALP Y 8
     5 SEP2       11 GROUP        1 Y    SEP  0     **** SEP Y 9
     6 GLP5        3 GROUP        1 Y    GLP  0     **** GLP Y 13
     7 ALL1       21 GROUP        1 Z    ALL  0     ROOT ALL Z 15
     8 SEL2       10 GROUP        1 Z    SEL  0     **** SEL Z 16
     9 GLL5        2 GROUP        1 Z    GLL  0     **** GLL Z 20
@<TRIPOS>SET

