#    Name: 4bkj_STI_1_ligand
#    Modification time : Tue Mar 25 07:50:38 2014

@<TRIPOS>MOLECULE
4bkj_STI_1_ligand
   69    73     1     0     0
SMALL
NO_CHARGES


@<TRIPOS>ATOM
      1 C1        -23.0430   31.4550   32.6020 C.ar      1 STI1000     0.0000 
      2 C6        -22.4770   30.1870   32.3750 C.ar      1 STI1000     0.0000 
      3 C5        -22.4770   29.2620   33.4250 C.ar      1 STI1000     0.0000 
      4 C4        -22.9950   29.6760   34.6610 C.ar      1 STI1000     0.0000 
      5 N3        -23.5160   30.8850   34.8340 N.ar      1 STI1000     0.0000 
      6 C2        -23.5370   31.7770   33.8560 C.ar      1 STI1000     0.0000 
      7 C7        -21.8920   27.9760   33.2890 C.ar      1 STI1000     0.0000 
      8 C12       -21.4730   27.3940   32.0540 C.ar      1 STI1000     0.0000 
      9 C11       -20.8620   26.1340   32.0660 C.ar      1 STI1000     0.0000 
     10 N10       -20.7030   25.4550   33.2370 N.ar      1 STI1000     0.0000 
     11 C9        -21.1200   26.0470   34.3530 C.ar      1 STI1000     0.0000 
     12 N8        -21.6920   27.2420   34.3980 N.ar      1 STI1000     0.0000 
     13 N13       -20.9320   25.3820   35.5870 N.pl3     1 STI1000     0.0000 
     14 C14       -20.3130   24.0880   35.6750 C.ar      1 STI1000     0.0000 
     15 C19       -21.0480   22.8930   35.4860 C.ar      1 STI1000     0.0000 
     16 C18       -20.4550   21.6610   35.6410 C.ar      1 STI1000     0.0000 
     17 C17       -19.0860   21.6060   35.9370 C.ar      1 STI1000     0.0000 
     18 C16       -18.3440   22.7840   36.0920 C.ar      1 STI1000     0.0000 
     19 C15       -18.9380   24.0390   36.0020 C.ar      1 STI1000     0.0000 
     20 N21       -16.9660   22.6370   36.4700 N.am      1 STI1000     0.0000 
     21 C22       -16.0670   23.7280   36.7540 C.2       1 STI1000     0.0000 
     22 C23       -14.6850   23.3050   37.2280 C.ar      1 STI1000     0.0000 
     23 C25       -14.1400   22.0430   36.9290 C.ar      1 STI1000     0.0000 
     24 C26       -12.8710   21.7000   37.4160 C.ar      1 STI1000     0.0000 
     25 C27       -12.1960   22.6330   38.2120 C.ar      1 STI1000     0.0000 
     26 C28       -12.7350   23.8590   38.5410 C.ar      1 STI1000     0.0000 
     27 C29       -14.0050   24.2220   38.0630 C.ar      1 STI1000     0.0000 
     28 C46       -10.8290   22.2630   38.7490 C.3       1 STI1000     0.0000 
     29 N48       -10.0050   21.6380   37.7250 N.3       1 STI1000     0.0000 
     30 C53        -8.6850   21.1170   38.1230 C.3       1 STI1000     0.0000 
     31 C52        -7.9790   20.3430   37.0700 C.3       1 STI1000     0.0000 
     32 N51        -7.7880   21.1270   35.8360 N.4       1 STI1000     0.0000 
     33 C54        -7.0320   20.4250   34.7670 C.3       1 STI1000     0.0000 
     34 C50        -9.0780   21.7220   35.3890 C.3       1 STI1000     0.0000 
     35 C49        -9.8900   22.4520   36.4890 C.3       1 STI1000     0.0000 
     36 O29       -16.3120   24.9010   36.5940 O.2       1 STI1000     0.0000 
     37 C20       -22.5390   22.9740   35.1520 C.3       1 STI1000     0.0000 
     38 H         -23.0855   32.1337   31.8339 H         1 STI1000     0.0000 
     39 H         -22.0806   29.9531   31.4733 H         1 STI1000     0.0000 
     40 H         -22.9547   28.9865   35.4524 H         1 STI1000     0.0000 
     41 H         -23.9220   32.7357   34.0025 H         1 STI1000     0.0000 
     42 H         -21.6217   27.8970   31.1856 H         1 STI1000     0.0000 
     43 H         -20.5349   25.7302   31.1716 H         1 STI1000     0.0000 
     44 H         -21.2473   25.8341   36.4607 H         1 STI1000     0.0000 
     45 H         -20.9904   20.7986   35.5448 H         1 STI1000     0.0000 
     46 H         -18.6231   20.6937   36.0411 H         1 STI1000     0.0000 
     47 H         -18.4182   24.8860   36.1616 H         1 STI1000     0.0000 
     48 H         -16.5831   21.6642   36.5457 H         1 STI1000     0.0000 
     49 H         -14.6690   21.3802   36.3586 H         1 STI1000     0.0000 
     50 H         -12.4557   20.8038   37.1980 H         1 STI1000     0.0000 
     51 H         -12.2151   24.5170   39.1369 H         1 STI1000     0.0000 
     52 H         -14.4221   25.1063   38.3047 H         1 STI1000     0.0000 
     53 H         -10.9654   21.5852   39.6063 H         1 STI1000     0.0000 
     54 H         -10.3480   23.1769   39.1316 H         1 STI1000     0.0000 
     55 H          -8.7980   20.4754   39.0294 H         1 STI1000     0.0000 
     56 H          -8.0346   21.9645   38.4467 H         1 STI1000     0.0000 
     57 H          -8.5540   19.4267   36.8438 H         1 STI1000     0.0000 
     58 H          -6.9979   20.0123   37.4567 H         1 STI1000     0.0000 
     59 H          -7.1390   22.0263   36.1445 H         1 STI1000     0.0000 
     60 H          -9.7305   20.9333   34.9574 H         1 STI1000     0.0000 
     61 H          -8.8969   22.4477   34.5677 H         1 STI1000     0.0000 
     62 H          -9.3905   23.4044   36.7010 H         1 STI1000     0.0000 
     63 H         -10.8829   22.6762   36.0825 H         1 STI1000     0.0000 
     64 H          -6.1129   20.1705   35.0679 H         1 STI1000     0.0000 
     65 H          -7.4898   19.5837   34.4796 H         1 STI1000     0.0000 
     66 H          -6.9263   20.9944   33.9517 H         1 STI1000     0.0000 
     67 H         -22.7023   23.4726   34.3007 H         1 STI1000     0.0000 
     68 H         -22.9449   22.0667   35.0427 H         1 STI1000     0.0000 
     69 H         -23.0554   23.4417   35.8693 H         1 STI1000     0.0000 
@<TRIPOS>BOND
     1    2    1 ar   
     2    6    1 ar   
     3   38    1 1    
     4    3    2 ar   
     5   39    2 1    
     6    4    3 ar   
     7    7    3 1    
     8    5    4 ar   
     9   40    4 1    
    10    6    5 ar   
    11   41    6 1    
    12    8    7 ar   
    13   12    7 ar   
    14    9    8 ar   
    15   42    8 1    
    16   10    9 ar   
    17   43    9 1    
    18   11   10 ar   
    19   12   11 ar   
    20   13   11 1    
    21   14   13 1    
    22   44   13 1    
    23   15   14 ar   
    24   19   14 ar   
    25   16   15 ar   
    26   37   15 1    
    27   17   16 ar   
    28   45   16 1    
    29   18   17 ar   
    30   46   17 1    
    31   19   18 ar   
    32   20   18 1    
    33   47   19 1    
    34   21   20 am   
    35   48   20 1    
    36   22   21 1    
    37   36   21 2    
    38   23   22 ar   
    39   27   22 ar   
    40   24   23 ar   
    41   49   23 1    
    42   25   24 ar   
    43   50   24 1    
    44   26   25 ar   
    45   28   25 1    
    46   27   26 ar   
    47   51   26 1    
    48   52   27 1    
    49   29   28 1    
    50   53   28 1    
    51   54   28 1    
    52   30   29 1    
    53   35   29 1    
    54   31   30 1    
    55   55   30 1    
    56   56   30 1    
    57   32   31 1    
    58   57   31 1    
    59   58   31 1    
    60   33   32 1    
    61   34   32 1    
    62   59   32 1    
    63   64   33 1    
    64   65   33 1    
    65   66   33 1    
    66   35   34 1    
    67   60   34 1    
    68   61   34 1    
    69   62   35 1    
    70   63   35 1    
    71   67   37 1    
    72   68   37 1    
    73   69   37 1    
@<TRIPOS>SUBSTRUCTURE
     1 STI1000     1 GROUP   
@<TRIPOS>SET

