#    Name: 4a9y_RNY_1_ligand
#    Modification time : Tue Mar 25 05:20:35 2014

@<TRIPOS>MOLECULE
4a9y_RNY_1_ligand
   81    86     1     0     0
SMALL
NO_CHARGES


@<TRIPOS>ATOM
      1 C1         -3.9910   -1.7880   26.9670 C.3       1 RNY1354     0.0000 
      2 O2         -3.8760   -0.5170   26.3300 O.3       1 RNY1354     0.0000 
      3 C3         -3.9240   -0.4240   24.9350 C.ar      1 RNY1354     0.0000 
      4 C4         -3.8950   -1.4880   24.0170 C.ar      1 RNY1354     0.0000 
      5 C5         -3.9490   -1.2820   22.6480 C.ar      1 RNY1354     0.0000 
      6 N6         -3.9180   -2.3630   21.8790 N.ar      1 RNY1354     0.0000 
      7 C7         -3.9760   -2.1700   20.5700 C.ar      1 RNY1354     0.0000 
      8 N8         -4.0660   -0.9810   19.9650 N.ar      1 RNY1354     0.0000 
      9 C9         -4.0760    0.1020   20.7500 C.ar      1 RNY1354     0.0000 
     10 N10        -4.1350    1.3720   20.1410 N.pl3     1 RNY1354     0.0000 
     11 C11        -4.4030    1.6230   18.7890 C.ar      1 RNY1354     0.0000 
     12 C12        -3.4230    2.2170   17.9790 C.ar      1 RNY1354     0.0000 
     13 C13        -3.7160    2.5190   16.6400 C.ar      1 RNY1354     0.0000 
     14 N14        -2.7210    3.1140   15.8370 N.am      1 RNY1354     0.0000 
     15 C15        -1.3610    2.8650   15.9100 C.2       1 RNY1354     0.0000 
     16 O16        -0.8250    2.0720   16.7100 O.2       1 RNY1354     0.0000 
     17 C17        -0.4980    3.5800   14.8970 C.ar      1 RNY1354     0.0000 
     18 C18        -0.7710    4.8250   14.2880 C.ar      1 RNY1354     0.0000 
     19 C19         0.1480    5.2990   13.3450 C.ar      1 RNY1354     0.0000 
     20 N20         1.2830    4.6040   12.9770 N.ar      1 RNY1354     0.0000 
     21 C21         1.5260    3.4010   13.5310 C.ar      1 RNY1354     0.0000 
     22 C22         0.6350    2.8700   14.4870 C.ar      1 RNY1354     0.0000 
     23 N23         2.6750    2.6730   13.1370 N.3       1 RNY1354     0.0000 
     24 C28         2.9320    1.4260   13.8580 C.3       1 RNY1354     0.0000 
     25 C27         3.7180    0.6310   12.8450 C.3       1 RNY1354     0.0000 
     26 O26         5.0310    1.2170   12.8090 O.3       1 RNY1354     0.0000 
     27 C25         4.9340    2.4080   12.0260 C.3       1 RNY1354     0.0000 
     28 C24         3.8810    3.3910   12.6360 C.3       1 RNY1354     0.0000 
     29 C29        -4.9690    2.1930   16.1300 C.ar      1 RNY1354     0.0000 
     30 C30        -5.9360    1.6210   16.9270 C.ar      1 RNY1354     0.0000 
     31 C31        -5.6920    1.3110   18.2530 C.ar      1 RNY1354     0.0000 
     32 C32        -6.8440    0.6870   19.0230 C.3       1 RNY1354     0.0000 
     33 C33        -4.0350    0.0250   22.1370 C.ar      1 RNY1354     0.0000 
     34 C34        -4.0460    1.1320   23.0200 C.ar      1 RNY1354     0.0000 
     35 C35        -3.9960    0.8840   24.4260 C.ar      1 RNY1354     0.0000 
     36 O36        -4.0130    1.8410   25.3990 O.3       1 RNY1354     0.0000 
     37 C37        -3.8520    3.1850   24.9290 C.3       1 RNY1354     0.0000 
     38 C38        -3.8090    4.1810   26.1220 C.3       1 RNY1354     0.0000 
     39 N39        -2.9750    3.7180   27.2460 N.4       1 RNY1354     0.0000 
     40 C43        -1.5130    3.7320   27.0630 C.3       1 RNY1354     0.0000 
     41 C42        -1.0010    3.4880   28.4930 C.3       1 RNY1354     0.0000 
     42 C41        -2.2410    3.4330   29.3810 C.3       1 RNY1354     0.0000 
     43 C40        -3.1890    4.3090   28.5760 C.3       1 RNY1354     0.0000 
     44 H          -3.8307   -2.4599   24.3865 H         1 RNY1354     0.0000 
     45 H          -3.9485   -3.0466   19.9310 H         1 RNY1354     0.0000 
     46 H          -3.9594    2.2152   20.7686 H         1 RNY1354     0.0000 
     47 H          -2.4996    2.4289   18.3625 H         1 RNY1354     0.0000 
     48 H          -3.0574    3.8200   15.1088 H         1 RNY1354     0.0000 
     49 H          -1.5968    5.3467   14.5274 H         1 RNY1354     0.0000 
     50 H          -0.0422    6.2321   12.8986 H         1 RNY1354     0.0000 
     51 H           0.8277    1.9384   14.8889 H         1 RNY1354     0.0000 
     52 H           2.0260    0.9157   14.0818 H         1 RNY1354     0.0000 
     53 H           3.5337    1.5947   14.7188 H         1 RNY1354     0.0000 
     54 H           3.2226    0.7043   11.8857 H         1 RNY1354     0.0000 
     55 H           3.7515   -0.4023   13.1646 H         1 RNY1354     0.0000 
     56 H           4.6162    2.2026   10.9961 H         1 RNY1354     0.0000 
     57 H           5.8856    2.9523   11.9792 H         1 RNY1354     0.0000 
     58 H           4.3687    3.9382   13.4480 H         1 RNY1354     0.0000 
     59 H           3.6065    4.1087   11.8574 H         1 RNY1354     0.0000 
     60 H          -5.1727    2.3867   15.1304 H         1 RNY1354     0.0000 
     61 H          -6.8754    1.4157   16.5236 H         1 RNY1354     0.0000 
     62 H          -4.0881    2.0756   22.6702 H         1 RNY1354     0.0000 
     63 H          -4.6798    3.4949   24.2799 H         1 RNY1354     0.0000 
     64 H          -2.9192    3.3145   24.3671 H         1 RNY1354     0.0000 
     65 H          -4.8492    4.3480   26.4520 H         1 RNY1354     0.0000 
     66 H          -3.4392    5.1463   25.7346 H         1 RNY1354     0.0000 
     67 H          -3.2172    2.5887   27.4030 H         1 RNY1354     0.0000 
     68 H          -1.1723    4.6809   26.7358 H         1 RNY1354     0.0000 
     69 H          -1.1920    2.9331   26.4446 H         1 RNY1354     0.0000 
     70 H          -0.3775    4.3027   28.7901 H         1 RNY1354     0.0000 
     71 H          -0.4859    2.5532   28.5303 H         1 RNY1354     0.0000 
     72 H          -2.0370    3.8788   30.3072 H         1 RNY1354     0.0000 
     73 H          -2.6060    2.4517   29.4242 H         1 RNY1354     0.0000 
     74 H          -4.1726    4.1556   28.9102 H         1 RNY1354     0.0000 
     75 H          -2.8571    5.3046   28.6113 H         1 RNY1354     0.0000 
     76 H          -3.2628   -2.4124   26.6843 H         1 RNY1354     0.0000 
     77 H          -3.9403   -1.7103   27.9627 H         1 RNY1354     0.0000 
     78 H          -4.8597   -2.2341   26.7516 H         1 RNY1354     0.0000 
     79 H          -6.6003   -0.2088   19.3946 H         1 RNY1354     0.0000 
     80 H          -7.1272    1.2571   19.7942 H         1 RNY1354     0.0000 
     81 H          -7.6491    0.5552   18.4447 H         1 RNY1354     0.0000 
@<TRIPOS>BOND
     1    2    1 1    
     2   76    1 1    
     3   77    1 1    
     4   78    1 1    
     5    3    2 1    
     6    4    3 ar   
     7   35    3 ar   
     8    5    4 ar   
     9   44    4 1    
    10    6    5 ar   
    11   33    5 ar   
    12    7    6 ar   
    13    8    7 ar   
    14   45    7 1    
    15    9    8 ar   
    16   10    9 1    
    17   33    9 ar   
    18   11   10 1    
    19   46   10 1    
    20   12   11 ar   
    21   31   11 ar   
    22   13   12 ar   
    23   47   12 1    
    24   14   13 1    
    25   29   13 ar   
    26   15   14 am   
    27   48   14 1    
    28   16   15 2    
    29   17   15 1    
    30   18   17 ar   
    31   22   17 ar   
    32   19   18 ar   
    33   49   18 1    
    34   20   19 ar   
    35   50   19 1    
    36   21   20 ar   
    37   22   21 ar   
    38   23   21 1    
    39   51   22 1    
    40   24   23 1    
    41   28   23 1    
    42   25   24 1    
    43   52   24 1    
    44   53   24 1    
    45   26   25 1    
    46   54   25 1    
    47   55   25 1    
    48   27   26 1    
    49   28   27 1    
    50   56   27 1    
    51   57   27 1    
    52   58   28 1    
    53   59   28 1    
    54   30   29 ar   
    55   60   29 1    
    56   31   30 ar   
    57   61   30 1    
    58   32   31 1    
    59   79   32 1    
    60   80   32 1    
    61   81   32 1    
    62   34   33 ar   
    63   35   34 ar   
    64   62   34 1    
    65   36   35 1    
    66   37   36 1    
    67   38   37 1    
    68   63   37 1    
    69   64   37 1    
    70   39   38 1    
    71   65   38 1    
    72   66   38 1    
    73   40   39 1    
    74   43   39 1    
    75   67   39 1    
    76   41   40 1    
    77   68   40 1    
    78   69   40 1    
    79   42   41 1    
    80   70   41 1    
    81   71   41 1    
    82   43   42 1    
    83   72   42 1    
    84   73   42 1    
    85   74   43 1    
    86   75   43 1    
@<TRIPOS>SUBSTRUCTURE
     1 RNY1354     1 GROUP   
@<TRIPOS>SET

