#    Name: 2p4j_23I_4_INTS_M
#    Modification time : Mon Mar 24 18:19:18 2014

@<TRIPOS>MOLECULE
2p4j_23I_4_INTS_M
  119     0     9     0     0
SMALL
NO_CHARGES


@<TRIPOS>ATOM
      1 N          43.3580   40.3765   32.5845 N.am      2 SEC2        0.0000 
      2 N          42.8150   41.3310   31.9200 N.am      8 SEL2        0.0000 
      3 N          43.9010   39.4220   33.2490 N.am      5 SEP2        0.0000 
      4 CA         26.4580   47.2820   34.8140 C.3       3 GLC5        0.0000 
      5 CA         27.2020   45.5010   34.5110 C.3       9 GLL5        0.0000 
      6 CA         25.7140   49.0630   35.1170 C.3       6 GLP5        0.0000 
      7 CA         26.3090   43.3895   33.6490 C.3       3 GLC5        0.0000 
      8 CA         26.3680   44.6090   35.2100 C.3       9 GLL5        0.0000 
      9 CA         26.2500   42.1700   32.0880 C.3       6 GLP5        0.0000 
     10 CA         31.1190   44.0235   36.4070 C.3       3 GLC5        0.0000 
     11 CA         29.1570   44.6380   35.7400 C.3       9 GLL5        0.0000 
     12 CA         33.0810   43.4090   37.0740 C.3       6 GLP5        0.0000 
     13 CA         29.4960   43.1710   31.0225 C.3       3 GLC5        0.0000 
     14 CA         31.2380   43.9860   30.0460 C.3       9 GLL5        0.0000 
     15 CA         27.7540   42.3560   31.9990 C.3       6 GLP5        0.0000 
     16 CA         37.0180   47.2150   36.1265 C.3       3 GLC5        0.0000 
     17 CA         36.4300   46.1620   34.4630 C.3       9 GLL5        0.0000 
     18 CA         37.6060   48.2680   37.7900 C.3       6 GLP5        0.0000 
     19 CA         34.0030   47.8875   36.5110 C.3       3 GLC5        0.0000 
     20 CA         34.5280   47.7280   35.0060 C.3       9 GLL5        0.0000 
     21 CA         33.4780   48.0470   38.0160 C.3       6 GLP5        0.0000 
     22 CA         33.8185   49.7660   35.4125 C.3       3 GLC5        0.0000 
     23 CA         33.1090   51.8040   35.8190 C.3       6 GLP5        0.0000 
     24 CA         36.0670   47.9980   36.3980 C.3       3 GLC5        0.0000 
     25 CA         30.7445   47.8235   36.9105 C.3       3 GLC5        0.0000 
     26 CA         30.3060   47.5110   34.8370 C.3       9 GLL5        0.0000 
     27 CA         31.1830   48.1360   38.9840 C.3       6 GLP5        0.0000 
     28 CA         31.0745   49.3925   35.3380 C.3       3 GLC5        0.0000 
     29 CA         31.8430   51.2740   35.8390 C.3       6 GLP5        0.0000 
     30 O          31.4360   44.9085   34.0000 O.2       1 ALC1        0.0000 
     31 O          30.4650   45.8160   33.1450 O.2       7 ALL1        0.0000 
     32 O          32.4070   44.0010   34.8550 O.2       4 ALP1        0.0000 
     33 CA         35.2015   42.7180   28.7160 C.3       3 GLC5        0.0000 
     34 CA         33.6210   43.4070   29.9420 C.3       9 GLL5        0.0000 
     35 CA         36.7820   42.0290   27.4900 C.3       6 GLP5        0.0000 
     36 CA         33.7790   45.5705   29.7715 C.3       3 GLC5        0.0000 
     37 CA         32.7990   44.9330   31.6440 C.3       9 GLL5        0.0000 
     38 CA         34.7590   46.2080   27.8990 C.3       6 GLP5        0.0000 
     39 CA         34.9635   41.7715   27.5985 C.3       3 GLC5        0.0000 
     40 CA         33.1450   41.5140   27.7070 C.3       9 GLL5        0.0000 
     41 CA         33.0705   39.8770   27.8965 C.3       3 GLC5        0.0000 
     42 CA         32.9960   38.2400   28.0860 C.3       6 GLP5        0.0000 
     43 N          30.2995   38.8935   26.8305 N.am      2 SEC2        0.0000 
     44 N          30.7360   40.0830   27.6020 N.am      8 SEL2        0.0000 
     45 N          29.8630   37.7040   26.0590 N.am      5 SEP2        0.0000 
     46 N          29.3130   40.3655   30.6120 N.am      2 SEC2        0.0000 
     47 N          29.8970   41.2640   29.6620 N.am      8 SEL2        0.0000 
     48 N          28.7290   39.4670   31.5620 N.am      5 SEP2        0.0000 
     49 N          36.6765   44.9560   29.5270 N.am      2 SEC2        0.0000 
     50 N          36.2640   44.3310   30.8080 N.am      8 SEL2        0.0000 
     51 N          37.0890   45.5810   28.2460 N.am      5 SEP2        0.0000 
     52 CA         38.1160   48.4955   33.0055 C.3       3 GLC5        0.0000 
     53 CA         36.1710   48.3950   33.2640 C.3       9 GLL5        0.0000 
     54 CA         40.0610   48.5960   32.7470 C.3       6 GLP5        0.0000 
     55 CA         36.9340   49.8245   33.9415 C.3       3 GLC5        0.0000 
     56 CA         37.6970   51.2540   34.6190 C.3       6 GLP5        0.0000 
     57 CA         38.8655   41.2440   35.6420 C.3       3 GLC5        0.0000 
     58 CA         38.8610   41.7810   33.5420 C.3       9 GLL5        0.0000 
     59 CA         38.8700   40.7070   37.7420 C.3       6 GLP5        0.0000 
     60 CA         38.6905   38.6010   33.6965 C.3       3 GLC5        0.0000 
     61 CA         38.7810   40.4050   32.8300 C.3       9 GLL5        0.0000 
     62 CA         38.6000   36.7970   34.5630 C.3       6 GLP5        0.0000 
     63 N          36.1710   43.5685   36.5250 N.am      2 SEC2        0.0000 
     64 N          36.3410   43.2870   35.2850 N.am      8 SEL2        0.0000 
     65 N          36.0010   43.8500   37.7650 N.am      5 SEP2        0.0000 
     66 O          36.0980   41.9935   35.1690 O.2       1 ALC1        0.0000 
     67 O          36.3410   43.2870   35.2850 O.2       7 ALL1        0.0000 
     68 O          35.8550   40.7000   35.0530 O.2       4 ALP1        0.0000 
     69 N          39.6030   43.7160   30.5845 N.am      2 SEC2        0.0000 
     70 N          39.9580   43.1210   31.8590 N.am      8 SEL2        0.0000 
     71 N          39.2480   44.3110   29.3100 N.am      5 SEP2        0.0000 
     72 O          40.9135   42.0970   35.0575 O.2       1 ALC1        0.0000 
     73 O          41.1600   42.6340   33.7060 O.2       7 ALL1        0.0000 
     74 O          40.6670   41.5600   36.4090 O.2       4 ALP1        0.0000 
     75 CA         41.2055   44.9005   33.5485 C.3       3 GLC5        0.0000 
     76 CA         42.4030   43.3400   33.2690 C.3       9 GLL5        0.0000 
     77 CA         40.0080   46.4610   33.8280 C.3       6 GLP5        0.0000 
     78 CA         42.2840   44.0320   36.0905 C.3       3 GLC5        0.0000 
     79 CA         43.3920   43.4550   34.5060 C.3       9 GLL5        0.0000 
     80 CA         41.1760   44.6090   37.6750 C.3       6 GLP5        0.0000 
     81 CA         44.2080   46.5080   34.3265 C.3       3 GLC5        0.0000 
     82 CA         44.5520   44.4410   34.2370 C.3       9 GLL5        0.0000 
     83 CA         43.8640   48.5750   34.4160 C.3       6 GLP5        0.0000 
     84 CA         42.8270   42.7065   36.6520 C.3       3 GLC5        0.0000 
     85 CA         44.0600   42.1150   34.9580 C.3       9 GLL5        0.0000 
     86 CA         41.5940   43.2980   38.3460 C.3       6 GLP5        0.0000 
     87 CA         45.3205   41.3835   36.2425 C.3       3 GLC5        0.0000 
     88 CA         46.5810   40.6520   37.5270 C.3       6 GLP5        0.0000 
     89 CA         43.8125   40.3365   34.6105 C.3       3 GLC5        0.0000 
     90 CA         43.5650   38.5580   34.2630 C.3       6 GLP5        0.0000 
     91 O          43.3540   44.7110   31.0755 O.2       1 ALC1        0.0000 
     92 O          43.5790   43.2860   31.0610 O.2       7 ALL1        0.0000 
     93 O          43.1290   46.1360   31.0900 O.2       4 ALP1        0.0000 
     94 CA         45.4370   45.3260   29.4495 C.3       3 GLC5        0.0000 
     95 CA         45.3020   43.6110   29.3950 C.3       9 GLL5        0.0000 
     96 CA         45.5720   47.0410   29.5040 C.3       6 GLP5        0.0000 
     97 CA         27.2870   46.2840   36.3757 C.3       3 GLC5        0.0000 
     98 CA         27.7890   47.5130   37.8910 C.3       6 GLP5        0.0000 
     99 CA         27.8283   43.9368   33.3178 C.3       3 GLC5        0.0000 
    100 CA         27.7040   45.6252   37.1007 C.3       3 GLC5        0.0000 
    101 CA         26.9230   43.7330   36.1780 C.3       9 GLL5        0.0000 
    102 CA         27.3155   41.9947   36.4437 C.3       3 GLC5        0.0000 
    103 CA         28.3150   43.7420   36.4430 C.3       9 GLL5        0.0000 
    104 CA         27.0120   40.2520   36.5770 C.3       6 GLP5        0.0000 
    105 CA         28.3345   46.2995   36.5710 C.3       3 GLC5        0.0000 
    106 CA         28.4275   42.7969   34.5001 C.3       3 GLC5        0.0000 
    107 CA         28.4670   41.4060   32.9750 C.3       6 GLP5        0.0000 
    108 CA         38.3564   45.8544   34.0100 C.3       3 GLC5        0.0000 
    109 CA         36.7020   44.9500   33.5450 C.3       9 GLL5        0.0000 
    110 CA         28.8422   47.2672   36.1448 C.3       3 GLC5        0.0000 
    111 CA         29.8417   48.6643   33.4073 C.3       3 GLC5        0.0000 
    112 CA         29.7880   50.3070   32.4160 C.3       6 GLP5        0.0000 
    113 CA         32.2721   43.1164   32.5931 C.3       3 GLC5        0.0000 
    114 CA         31.4790   44.8300   31.1740 C.3       9 GLL5        0.0000 
    115 CA         32.1350   41.5240   33.9240 C.3       6 GLP5        0.0000 
    116 CA         33.8941   44.8736   28.9264 C.3       3 GLC5        0.0000 
    117 CA         33.8800   44.2420   31.0570 C.3       9 GLL5        0.0000 
    118 CA         32.6902   41.5972   30.8420 C.3       3 GLC5        0.0000 
    119 CA         32.4160   39.8640   32.0090 C.3       6 GLP5        0.0000 
@<TRIPOS>BOND
@<TRIPOS>SUBSTRUCTURE
     1 ALC1       30 GROUP        1 X    ALC  0     ROOT ALC X 1
     2 SEC2        1 GROUP        1 X    SEC  0     **** SEC X 2
     3 GLC5        4 GROUP        1 X    GLC  0     **** GLC X 6
     4 ALP1       32 GROUP        1 Y    ALP  0     ROOT ALP Y 8
     5 SEP2        3 GROUP        1 Y    SEP  0     **** SEP Y 9
     6 GLP5        6 GROUP        1 Y    GLP  0     **** GLP Y 13
     7 ALL1       31 GROUP        1 Z    ALL  0     ROOT ALL Z 15
     8 SEL2        2 GROUP        1 Z    SEL  0     **** SEL Z 16
     9 GLL5        5 GROUP        1 Z    GLL  0     **** GLL Z 20
@<TRIPOS>SET

