#    Name: 2p4j_23I_4_ligand
#    Modification time : Mon Mar 24 18:19:18 2014

@<TRIPOS>MOLECULE
2p4j_23I_4_ligand
  104   105     1     0     0
SMALL
NO_CHARGES


@<TRIPOS>ATOM
      1 O4         42.8150   41.3310   31.9200 O.2       1 23I504      0.0000 
      2 C11        27.2020   45.5010   34.5110 C.ar      1 23I504      0.0000 
      3 C12        26.3680   44.6090   35.2100 C.ar      1 23I504      0.0000 
      4 C13        26.9230   43.7330   36.1780 C.ar      1 23I504      0.0000 
      5 C14        28.3150   43.7420   36.4430 C.ar      1 23I504      0.0000 
      6 C15        29.1570   44.6380   35.7400 C.ar      1 23I504      0.0000 
      7 C16        28.6030   45.5340   34.7620 C.ar      1 23I504      0.0000 
      8 C20        29.3810   42.3780   27.1660 C.3       1 23I504      0.0000 
      9 C21        30.3580   45.6000   31.8230 C.2       1 23I504      0.0000 
     10 C22        35.2750   44.4100   31.5620 C.2       1 23I504      0.0000 
     11 C24        31.2380   43.9860   30.0460 C.ar      1 23I504      0.0000 
     12 C27        33.8800   44.2420   31.0570 C.ar      1 23I504      0.0000 
     13 C30        40.0430   42.5810   32.9620 C.2       1 23I504      0.0000 
     14 C31        36.7020   44.9500   33.5450 C.3       1 23I504      0.0000 
     15 C32        37.2570   43.7170   34.2970 C.3       1 23I504      0.0000 
     16 C33        36.4300   46.1620   34.4630 C.3       1 23I504      0.0000 
     17 C34        35.4370   47.2110   33.9050 C.3       1 23I504      0.0000 
     18 C35        34.5280   47.7280   35.0060 C.3       1 23I504      0.0000 
     19 C17        29.4850   46.5320   33.9600 C.3       1 23I504      0.0000 
     20 C18        30.3060   47.5110   34.8370 C.3       1 23I504      0.0000 
     21 N21        30.4650   45.8160   33.1450 N.am      1 23I504      0.0000 
     22 O21        29.3820   46.0290   31.1790 O.2       1 23I504      0.0000 
     23 C23        31.4790   44.8300   31.1740 C.ar      1 23I504      0.0000 
     24 C25        32.3080   43.2540   29.4080 C.ar      1 23I504      0.0000 
     25 C26        33.6210   43.4070   29.9420 C.ar      1 23I504      0.0000 
     26 C28        32.7990   44.9330   31.6440 C.ar      1 23I504      0.0000 
     27 N22        32.0580   42.4090   28.2120 N.pl3     1 23I504      0.0000 
     28 C29        33.1450   41.5140   27.7070 C.3       1 23I504      0.0000 
     29 S2         30.5280   41.5160   28.2200 S.o2      1 23I504      0.0000 
     30 O23        30.7360   40.0830   27.6020 O.2       1 23I504      0.0000 
     31 O24        29.8970   41.2640   29.6620 O.2       1 23I504      0.0000 
     32 O22        36.2640   44.3310   30.8080 O.2       1 23I504      0.0000 
     33 N3         35.4140   44.6960   32.8600 N.am      1 23I504      0.0000 
     34 C36        36.1710   48.3950   33.2640 C.3       1 23I504      0.0000 
     35 C37        37.5170   42.5180   33.3610 C.3       1 23I504      0.0000 
     36 C38        38.8610   41.7810   33.5420 C.3       1 23I504      0.0000 
     37 C39        38.7810   40.4050   32.8300 C.3       1 23I504      0.0000 
     38 O31        36.3410   43.2870   35.2850 O.3       1 23I504      0.0000 
     39 O32        39.9580   43.1210   31.8590 O.2       1 23I504      0.0000 
     40 N4         41.1600   42.6340   33.7060 N.am      1 23I504      0.0000 
     41 C41        42.4030   43.3400   33.2690 C.3       1 23I504      0.0000 
     42 C42        43.3920   43.4550   34.5060 C.3       1 23I504      0.0000 
     43 C43        44.5520   44.4410   34.2370 C.3       1 23I504      0.0000 
     44 C44        44.0600   42.1150   34.9580 C.3       1 23I504      0.0000 
     45 C45        42.9600   42.5590   32.0140 C.2       1 23I504      0.0000 
     46 N5         43.5790   43.2860   31.0610 N.am      1 23I504      0.0000 
     47 C51        44.1470   42.7030   29.8260 C.3       1 23I504      0.0000 
     48 C53        45.3020   43.6110   29.3950 C.3       1 23I504      0.0000 
     49 C52        43.0530   42.6590   28.7580 C.3       1 23I504      0.0000 
     50 H          26.8038   46.1366   33.8124 H         1 23I504      0.0000 
     51 H          25.3650   44.5883   35.0247 H         1 23I504      0.0000 
     52 H          26.3128   43.0899   36.6885 H         1 23I504      0.0000 
     53 H          28.7074   43.1078   37.1349 H         1 23I504      0.0000 
     54 H          30.1582   44.6547   35.9211 H         1 23I504      0.0000 
     55 H          30.2876   43.8935   29.6765 H         1 23I504      0.0000 
     56 H          37.4328   45.2740   32.8047 H         1 23I504      0.0000 
     57 H          38.2055   43.9925   34.7434 H         1 23I504      0.0000 
     58 H          37.3898   46.6662   34.6773 H         1 23I504      0.0000 
     59 H          36.0444   45.7935   35.4310 H         1 23I504      0.0000 
     60 H          34.8279   46.7360   33.1480 H         1 23I504      0.0000 
     61 H          28.8478   47.1234   33.3160 H         1 23I504      0.0000 
     62 H          31.3081   45.4580   33.6810 H         1 23I504      0.0000 
     63 H          34.4001   42.8949   29.5026 H         1 23I504      0.0000 
     64 H          32.9913   45.5484   32.4651 H         1 23I504      0.0000 
     65 H          34.5683   44.7591   33.4984 H         1 23I504      0.0000 
     66 H          37.4471   42.8698   32.3099 H         1 23I504      0.0000 
     67 H          36.6930   41.7847   33.4905 H         1 23I504      0.0000 
     68 H          39.0292   41.6064   34.5857 H         1 23I504      0.0000 
     69 H          41.2259   42.1798   34.6440 H         1 23I504      0.0000 
     70 H          42.1394   44.3381   32.9514 H         1 23I504      0.0000 
     71 H          42.8336   43.8443   35.3585 H         1 23I504      0.0000 
     72 H          43.6904   44.3241   31.1512 H         1 23I504      0.0000 
     73 H          44.5135   41.7283   30.0105 H         1 23I504      0.0000 
     74 H          29.2126   43.3108   27.4848 H         1 23I504      0.0000 
     75 H          29.7182   42.4455   26.2270 H         1 23I504      0.0000 
     76 H          28.4944   41.9172   27.1266 H         1 23I504      0.0000 
     77 H          35.0465   48.1646   35.7412 H         1 23I504      0.0000 
     78 H          33.8779   48.4061   34.6631 H         1 23I504      0.0000 
     79 H          33.9927   46.9926   35.4215 H         1 23I504      0.0000 
     80 H          30.9343   47.0266   35.4458 H         1 23I504      0.0000 
     81 H          30.8574   48.1337   34.2819 H         1 23I504      0.0000 
     82 H          29.7165   48.0765   35.4138 H         1 23I504      0.0000 
     83 H          33.9617   42.0304   27.4496 H         1 23I504      0.0000 
     84 H          33.4258   40.8457   28.3958 H         1 23I504      0.0000 
     85 H          32.8571   40.9992   26.8995 H         1 23I504      0.0000 
     86 H          36.7609   48.8656   33.9202 H         1 23I504      0.0000 
     87 H          36.7518   48.1043   32.5037 H         1 23I504      0.0000 
     88 H          35.5336   49.0754   32.9024 H         1 23I504      0.0000 
     89 H          39.6162   39.8706   32.9598 H         1 23I504      0.0000 
     90 H          38.0226   39.8519   33.1748 H         1 23I504      0.0000 
     91 H          38.6468   40.5043   31.8440 H         1 23I504      0.0000 
     92 H          45.1722   44.5070   35.0187 H         1 23I504      0.0000 
     93 H          45.1016   44.1619   33.4496 H         1 23I504      0.0000 
     94 H          44.2182   45.3647   34.0489 H         1 23I504      0.0000 
     95 H          44.6063   41.7071   34.2264 H         1 23I504      0.0000 
     96 H          44.6697   42.2490   35.7392 H         1 23I504      0.0000 
     97 H          43.3799   41.4343   35.2303 H         1 23I504      0.0000 
     98 H          46.0108   43.6693   30.0980 H         1 23I504      0.0000 
     99 H          45.7431   43.2802   28.5607 H         1 23I504      0.0000 
    100 H          44.9926   44.5443   29.2126 H         1 23I504      0.0000 
    101 H          43.3877   42.2710   27.8993 H         1 23I504      0.0000 
    102 H          42.2740   42.1026   29.0471 H         1 23I504      0.0000 
    103 H          42.7004   43.5713   28.5497 H         1 23I504      0.0000 
    104 H          36.2469   42.3021   35.1394 H         1 23I504      0.0000 
@<TRIPOS>BOND
     1   45    1 2    
     2    3    2 ar   
     3    7    2 ar   
     4   50    2 1    
     5    4    3 ar   
     6   51    3 1    
     7    5    4 ar   
     8   52    4 1    
     9    6    5 ar   
    10   53    5 1    
    11    7    6 ar   
    12   54    6 1    
    13   19    7 1    
    14   29    8 1    
    15   74    8 1    
    16   75    8 1    
    17   76    8 1    
    18   21    9 am   
    19   22    9 2    
    20   23    9 1    
    21   12   10 1    
    22   32   10 2    
    23   33   10 am   
    24   23   11 ar   
    25   24   11 ar   
    26   55   11 1    
    27   25   12 ar   
    28   26   12 ar   
    29   36   13 1    
    30   39   13 2    
    31   40   13 am   
    32   15   14 1    
    33   16   14 1    
    34   33   14 1    
    35   56   14 1    
    36   35   15 1    
    37   38   15 1    
    38   57   15 1    
    39   17   16 1    
    40   58   16 1    
    41   59   16 1    
    42   18   17 1    
    43   34   17 1    
    44   60   17 1    
    45   77   18 1    
    46   78   18 1    
    47   79   18 1    
    48   20   19 1    
    49   21   19 1    
    50   61   19 1    
    51   80   20 1    
    52   81   20 1    
    53   82   20 1    
    54   62   21 1    
    55   26   23 ar   
    56   25   24 ar   
    57   27   24 1    
    58   63   25 1    
    59   64   26 1    
    60   28   27 1    
    61   29   27 1    
    62   83   28 1    
    63   84   28 1    
    64   85   28 1    
    65   30   29 2    
    66   31   29 2    
    67   65   33 1    
    68   86   34 1    
    69   87   34 1    
    70   88   34 1    
    71   36   35 1    
    72   66   35 1    
    73   67   35 1    
    74   37   36 1    
    75   68   36 1    
    76   89   37 1    
    77   90   37 1    
    78   91   37 1    
    79  104   38 1    
    80   41   40 1    
    81   69   40 1    
    82   42   41 1    
    83   45   41 1    
    84   70   41 1    
    85   43   42 1    
    86   44   42 1    
    87   71   42 1    
    88   92   43 1    
    89   93   43 1    
    90   94   43 1    
    91   95   44 1    
    92   96   44 1    
    93   97   44 1    
    94   46   45 am   
    95   47   46 1    
    96   72   46 1    
    97   48   47 1    
    98   49   47 1    
    99   73   47 1    
   100   98   48 1    
   101   99   48 1    
   102  100   48 1    
   103  101   49 1    
   104  102   49 1    
   105  103   49 1    
@<TRIPOS>SUBSTRUCTURE
     1 23I504      1 GROUP   
@<TRIPOS>SET

