#    Name: 2g5o_DRQ_2_INTS_M
#    Modification time : Tue Mar 25 13:36:25 2014

@<TRIPOS>MOLECULE
2g5o_DRQ_2_INTS_M
   82     0     9     0     0
SMALL
NO_CHARGES


@<TRIPOS>ATOM
      1 CA        -35.7650   -6.1345   25.2935 C.3       3 GLC5        0.0000 
      2 CA        -34.0930   -6.1700   25.9510 C.3       9 GLL5        0.0000 
      3 CA        -37.4370   -6.0990   24.6360 C.3       6 GLP5        0.0000 
      4 CA        -34.7555   -6.5135   22.1795 C.3       3 GLC5        0.0000 
      5 CA        -33.2760   -5.1510   21.2150 C.3       9 GLL5        0.0000 
      6 CA        -36.2350   -7.8760   23.1440 C.3       6 GLP5        0.0000 
      7 CA        -32.6135   -6.8510   22.3210 C.3       3 GLC5        0.0000 
      8 CA        -31.9510   -8.5510   23.4270 C.3       6 GLP5        0.0000 
      9 CA        -37.5045   -4.9570   19.3620 C.3       3 GLC5        0.0000 
     10 CA        -35.4980   -4.5640   20.0650 C.3       9 GLL5        0.0000 
     11 CA        -39.5110   -5.3500   18.6590 C.3       6 GLP5        0.0000 
     12 CA        -32.5175   -2.3560   18.6465 C.3       3 GLC5        0.0000 
     13 CA        -34.3230   -3.2260   18.2470 C.3       9 GLL5        0.0000 
     14 CA        -30.7120   -1.4860   19.0460 C.3       6 GLP5        0.0000 
     15 CA        -35.5975   -2.2640   17.0210 C.3       3 GLC5        0.0000 
     16 CA        -36.8720   -1.3020   15.7950 C.3       6 GLP5        0.0000 
     17 CA        -37.5225   -5.3530   18.1105 C.3       3 GLC5        0.0000 
     18 CA        -35.5340   -5.3560   17.5620 C.3       9 GLL5        0.0000 
     19 N         -36.9095   -5.5520   15.8140 N.am      2 SEC2        0.0000 
     20 N         -36.6290   -4.6290   16.9930 N.am      8 SEL2        0.0000 
     21 N         -37.1900   -6.4750   14.6350 N.am      5 SEP2        0.0000 
     22 CA        -35.0905   -5.5560   14.6400 C.3       3 GLC5        0.0000 
     23 CA        -34.4130   -5.5370   16.5230 C.3       9 GLL5        0.0000 
     24 CA        -35.7680   -5.5750   12.7570 C.3       6 GLP5        0.0000 
     25 CA        -31.0695   -5.1470   17.1810 C.3       3 GLC5        0.0000 
     26 CA        -33.1050   -5.6720   17.3490 C.3       9 GLL5        0.0000 
     27 CA        -29.0340   -4.6220   17.0130 C.3       6 GLP5        0.0000 
     28 CA        -31.7350   -6.9465   16.4685 C.3       3 GLC5        0.0000 
     29 CA        -30.3650   -8.2210   15.5880 C.3       6 GLP5        0.0000 
     30 CA        -31.6400   -3.3045   19.4505 C.3       3 GLC5        0.0000 
     31 CA        -32.5680   -5.1230   19.8550 C.3       9 GLL5        0.0000 
     32 CA        -30.1885   -5.3285   18.4235 C.3       3 GLC5        0.0000 
     33 CA        -31.3430   -6.0350   19.8340 C.3       9 GLL5        0.0000 
     34 CA        -28.8480   -4.9330   20.0470 C.3       3 GLC5        0.0000 
     35 CA        -30.3140   -5.7250   20.9110 C.3       9 GLL5        0.0000 
     36 CA        -27.3820   -4.1410   19.1830 C.3       6 GLP5        0.0000 
     37 CA        -28.6615   -5.7360   24.4105 C.3       3 GLC5        0.0000 
     38 CA        -30.4880   -4.4460   24.4450 C.3       9 GLL5        0.0000 
     39 CA        -26.8350   -7.0260   24.3760 C.3       6 GLP5        0.0000 
     40 N         -29.0315   -5.1085   26.6215 N.am      2 SEC2        0.0000 
     41 N         -29.6350   -4.2140   25.4810 N.am      8 SEL2        0.0000 
     42 N         -28.4280   -6.0030   27.7620 N.am      5 SEP2        0.0000 
     43 N         -28.5380   -3.5305   26.1425 N.am      2 SEC2        0.0000 
     44 N         -27.4410   -2.8470   26.8040 N.am      5 SEP2        0.0000 
     45 O         -29.8305   -3.2615   26.5120 O.2       1 ALC1        0.0000 
     46 O         -29.6350   -4.2140   25.4810 O.2       7 ALL1        0.0000 
     47 O         -30.0260   -2.3090   27.5430 O.2       4 ALP1        0.0000 
     48 CA        -33.7345   -6.0892   27.8087 C.3       3 GLC5        0.0000 
     49 CA        -32.7670   -5.8330   26.6620 C.3       9 GLL5        0.0000 
     50 CA        -34.0390   -6.1770   29.3110 C.3       6 GLP5        0.0000 
     51 CA        -33.3222   -4.3600   27.8868 C.3       3 GLC5        0.0000 
     52 CA        -32.6620   -4.4560   26.8590 C.3       9 GLL5        0.0000 
     53 CA        -34.2040   -4.6740   29.4220 C.3       6 GLP5        0.0000 
     54 CA        -33.4603   -2.4445   26.1537 C.3       3 GLC5        0.0000 
     55 CA        -34.4800   -0.8430   25.9560 C.3       6 GLP5        0.0000 
     56 CA        -31.8833   -2.6325   27.7973 C.3       3 GLC5        0.0000 
     57 CA        -32.2190   -3.6360   25.8440 C.3       9 GLL5        0.0000 
     58 CA        -31.3260   -1.2190   29.2430 C.3       6 GLP5        0.0000 
     59 CA        -32.5300   -6.7899   25.6904 C.3       3 GLC5        0.0000 
     60 CA        -32.0140   -8.3510   24.7980 C.3       6 GLP5        0.0000 
     61 CA        -33.5165   -2.6515   24.2743 C.3       3 GLC5        0.0000 
     62 CA        -31.8330   -4.1640   24.6160 C.3       9 GLL5        0.0000 
     63 CA        -34.7490   -1.0310   24.4510 C.3       6 GLP5        0.0000 
     64 CA        -31.7762   -2.2525   23.8498 C.3       3 GLC5        0.0000 
     65 CA        -32.7350   -4.3800   23.5790 C.3       9 GLL5        0.0000 
     66 CA        -31.1720   -0.3650   23.2950 C.3       6 GLP5        0.0000 
     67 CA        -36.1153   -5.5540   21.9450 C.3       3 GLC5        0.0000 
     68 CA        -34.5050   -4.2220   21.2150 C.3       9 GLL5        0.0000 
     69 CA        -37.2290   -6.7150   23.2500 C.3       6 GLP5        0.0000 
     70 CA        -35.6370   -6.4310   18.8107 C.3       3 GLC5        0.0000 
     71 CA        -36.1380   -8.2670   18.2400 C.3       6 GLP5        0.0000 
     72 CA        -32.9130   -4.7342   15.4525 C.3       3 GLC5        0.0000 
     73 CA        -32.0670   -3.8640   13.9690 C.3       6 GLP5        0.0000 
     74 CA        -31.3897   -7.2155   21.8997 C.3       3 GLC5        0.0000 
     75 CA        -29.7377   -7.4170   19.5938 C.3       3 GLC5        0.0000 
     76 CA        -28.6470   -8.9540   18.8150 C.3       6 GLP5        0.0000 
     77 CA        -29.5472   -2.9270   23.4678 C.3       3 GLC5        0.0000 
     78 CA        -30.0350   -4.9400   23.2360 C.3       9 GLL5        0.0000 
     79 CA        -28.8330   -1.1610   23.0950 C.3       6 GLP5        0.0000 
     80 CA        -29.4030   -6.7026   22.6306 C.3       3 GLC5        0.0000 
     81 CA        -28.4780   -8.2130   22.8660 C.3       6 GLP5        0.0000 
     82 CA        -35.1497   -6.9038   17.9000 C.3       3 GLC5        0.0000 
@<TRIPOS>BOND
@<TRIPOS>SUBSTRUCTURE
     1 ALC1       45 GROUP        1 X    ALC  0     ROOT ALC X 1
     2 SEC2       19 GROUP        1 X    SEC  0     **** SEC X 2
     3 GLC5        1 GROUP        1 X    GLC  0     **** GLC X 6
     4 ALP1       47 GROUP        1 Y    ALP  0     ROOT ALP Y 8
     5 SEP2       21 GROUP        1 Y    SEP  0     **** SEP Y 9
     6 GLP5        3 GROUP        1 Y    GLP  0     **** GLP Y 13
     7 ALL1       46 GROUP        1 Z    ALL  0     ROOT ALL Z 15
     8 SEL2       20 GROUP        1 Z    SEL  0     **** SEL Z 16
     9 GLL5        2 GROUP        1 Z    GLL  0     **** GLL Z 20
@<TRIPOS>SET

