#    Name: 2g5o_DRQ_2_ligand
#    Modification time : Tue Mar 25 13:36:25 2014

@<TRIPOS>MOLECULE
2g5o_DRQ_2_ligand
   54    57     1     0     0
SMALL
NO_CHARGES


@<TRIPOS>ATOM
      1 CAX       -34.0930   -6.1700   25.9510 C.3       1 DRQ555      0.0000 
      2 CAW       -32.7670   -5.8330   26.6620 C.3       1 DRQ555      0.0000 
      3 CAV       -32.6620   -4.4560   26.8590 C.2       1 DRQ555      0.0000 
      4 CAU       -32.2190   -3.6360   25.8440 C.2       1 DRQ555      0.0000 
      5 CAC       -31.8330   -4.1640   24.6160 C.ar      1 DRQ555      0.0000 
      6 CAD       -32.7350   -4.3800   23.5790 C.ar      1 DRQ555      0.0000 
      7 CAT       -32.2860   -4.8760   22.3680 C.ar      1 DRQ555      0.0000 
      8 CAS       -33.2760   -5.1510   21.2150 C.3       1 DRQ555      0.0000 
      9 CAR       -34.5050   -4.2220   21.2150 C.3       1 DRQ555      0.0000 
     10 CAQ       -35.4980   -4.5640   20.0650 C.3       1 DRQ555      0.0000 
     11 CAO       -34.7740   -4.6260   18.6980 C.3       1 DRQ555      0.0000 
     12 CAP       -34.3230   -3.2260   18.2470 C.3       1 DRQ555      0.0000 
     13 CAM       -35.5340   -5.3560   17.5620 C.3       1 DRQ555      0.0000 
     14 OAN       -36.6290   -4.6290   16.9930 O.3       1 DRQ555      0.0000 
     15 CAL       -34.4130   -5.5370   16.5230 C.3       1 DRQ555      0.0000 
     16 CAK       -33.1050   -5.6720   17.3490 C.3       1 DRQ555      0.0000 
     17 CAJ       -33.5940   -5.5970   18.8060 C.3       1 DRQ555      0.0000 
     18 CAI       -32.5680   -5.1230   19.8550 C.3       1 DRQ555      0.0000 
     19 CAH       -31.3430   -6.0350   19.8340 C.3       1 DRQ555      0.0000 
     20 CAG       -30.3140   -5.7250   20.9110 C.3       1 DRQ555      0.0000 
     21 CAF       -30.9280   -5.1640   22.1980 C.ar      1 DRQ555      0.0000 
     22 CAE       -30.0350   -4.9400   23.2360 C.ar      1 DRQ555      0.0000 
     23 CAA       -30.4880   -4.4460   24.4450 C.ar      1 DRQ555      0.0000 
     24 OAB       -29.6350   -4.2140   25.4810 O.3       1 DRQ555      0.0000 
     25 H         -31.9572   -6.2361   26.0340 H         1 DRQ555      0.0000 
     26 H         -32.7584   -6.3999   27.6060 H         1 DRQ555      0.0000 
     27 H         -32.9202   -4.0552   27.7756 H         1 DRQ555      0.0000 
     28 H         -32.1705   -2.6112   25.9916 H         1 DRQ555      0.0000 
     29 H         -33.7323   -4.1704   23.7157 H         1 DRQ555      0.0000 
     30 H         -33.6538   -6.1888   21.3527 H         1 DRQ555      0.0000 
     31 H         -34.1764   -3.1900   21.0959 H         1 DRQ555      0.0000 
     32 H         -35.0280   -4.3165   22.1662 H         1 DRQ555      0.0000 
     33 H         -36.2672   -3.7995   20.0272 H         1 DRQ555      0.0000 
     34 H         -35.9547   -5.5266   20.2711 H         1 DRQ555      0.0000 
     35 H         -35.7855   -6.3292   17.9148 H         1 DRQ555      0.0000 
     36 H         -34.3506   -4.6742   15.9064 H         1 DRQ555      0.0000 
     37 H         -34.5734   -6.4310   15.9721 H         1 DRQ555      0.0000 
     38 H         -32.4730   -4.8541   17.1392 H         1 DRQ555      0.0000 
     39 H         -32.6702   -6.6149   17.1637 H         1 DRQ555      0.0000 
     40 H         -33.9997   -6.5565   19.0738 H         1 DRQ555      0.0000 
     41 H         -32.2885   -4.1218   19.6250 H         1 DRQ555      0.0000 
     42 H         -30.8607   -5.9602   18.8432 H         1 DRQ555      0.0000 
     43 H         -31.6769   -7.0818   19.9458 H         1 DRQ555      0.0000 
     44 H         -29.5877   -4.9974   20.5188 H         1 DRQ555      0.0000 
     45 H         -29.7577   -6.6425   21.1548 H         1 DRQ555      0.0000 
     46 H         -29.0333   -5.1429   23.1033 H         1 DRQ555      0.0000 
     47 H         -34.1567   -5.7294   25.0556 H         1 DRQ555      0.0000 
     48 H         -34.1948   -7.1535   25.8016 H         1 DRQ555      0.0000 
     49 H         -34.8857   -5.8706   26.4821 H         1 DRQ555      0.0000 
     50 H         -33.6912   -2.8106   18.9014 H         1 DRQ555      0.0000 
     51 H         -33.8544   -3.2533   17.3640 H         1 DRQ555      0.0000 
     52 H         -35.0968   -2.6002   18.1490 H         1 DRQ555      0.0000 
     53 H         -36.0516   -4.0516   17.5704 H         1 DRQ555      0.0000 
     54 H         -30.0892   -3.5199   26.0396 H         1 DRQ555      0.0000 
@<TRIPOS>BOND
     1    2    1 1    
     2   47    1 1    
     3   48    1 1    
     4   49    1 1    
     5    3    2 1    
     6   25    2 1    
     7   26    2 1    
     8    4    3 2    
     9   27    3 1    
    10    5    4 1    
    11   28    4 1    
    12    6    5 ar   
    13   23    5 ar   
    14    7    6 ar   
    15   29    6 1    
    16    8    7 1    
    17   21    7 ar   
    18    9    8 1    
    19   18    8 1    
    20   30    8 1    
    21   10    9 1    
    22   31    9 1    
    23   32    9 1    
    24   11   10 1    
    25   33   10 1    
    26   34   10 1    
    27   12   11 1    
    28   13   11 1    
    29   17   11 1    
    30   50   12 1    
    31   51   12 1    
    32   52   12 1    
    33   14   13 1    
    34   15   13 1    
    35   35   13 1    
    36   53   14 1    
    37   16   15 1    
    38   36   15 1    
    39   37   15 1    
    40   17   16 1    
    41   38   16 1    
    42   39   16 1    
    43   18   17 1    
    44   40   17 1    
    45   19   18 1    
    46   41   18 1    
    47   20   19 1    
    48   42   19 1    
    49   43   19 1    
    50   21   20 1    
    51   44   20 1    
    52   45   20 1    
    53   22   21 ar   
    54   23   22 ar   
    55   46   22 1    
    56   24   23 1    
    57   54   24 1    
@<TRIPOS>SUBSTRUCTURE
     1 DRQ555      1 GROUP   
@<TRIPOS>SET

