#    Name: 3K3B_1_CAVITY_N1_6.mol2
#    Modification time : Tue Mar 11 06:09:05 2014

@<TRIPOS>MOLECULE
3K3B_1_CAVITY_N1_6.mol2
   92     0     6     0     0
SMALL
NO_CHARGES


@<TRIPOS>ATOM
      1 CA         17.1708  -15.8370   30.3288 C.3       5 GLY6        0.0000 
      2 OG         18.4598  -16.0720   29.5985 O.2       1 SER1        0.0000 
      3 OG         18.1610  -17.5410   29.5439 O.2       1 SER1        0.0000 
      4 DU         19.4500  -17.7760   28.8136 H         6 CUB7        0.0000 
      5 OG         17.8622  -19.0099   29.4893 O.2       1 SER1        0.0000 
      6 CA         19.1512  -19.2449   28.7590 C.3       5 GLY6        0.0000 
      7 O          16.7630  -14.1757   29.0743 O.2       2 ALA2        0.0000 
      8 DU         18.0520  -14.4107   28.3441 H         6 CUB7        0.0000 
      9 O          18.7939  -15.8151   20.8623 O.2       2 ALA2        0.0000 
     10 CA         14.3294  -18.0478   22.9438 C.3       5 GLY6        0.0000 
     11 CA         14.0305  -19.5167   22.8891 C.3       5 GLY6        0.0000 
     12 NZ         15.3195  -19.7518   22.1589 N.2       3 LYS4        0.0000 
     13 O          16.6085  -19.9868   21.4286 O.2       2 ALA2        0.0000 
     14 O          17.8975  -20.2218   20.6984 O.2       2 ALA2        0.0000 
     15 CA         15.0207  -21.2207   22.1042 C.3       5 GLY6        0.0000 
     16 CA         16.3097  -21.4557   21.3740 C.3       5 GLY6        0.0000 
     17 CA         17.5987  -21.6908   20.6437 C.3       5 GLY6        0.0000 
     18 NZ         14.6130  -19.5593   20.8498 N.2       3 LYS4        0.0000 
     19 O          15.9020  -19.7944   20.1195 O.2       2 ALA2        0.0000 
     20 CZ         14.3142  -21.0283   20.7951 C.ar      4 PHE5        0.0000 
     21 CZ         15.6031  -21.2633   20.0649 C.ar      4 PHE5        0.0000 
     22 N          16.6389  -14.0259   25.7259 N.2       2 ALA2        0.0000 
     23 DU         17.9279  -14.2609   24.9956 H         6 CUB7        0.0000 
     24 N          15.0511  -15.2597   26.4015 N.2       2 ALA2        0.0000 
     25 N          16.3401  -15.4948   25.6712 N.2       2 ALA2        0.0000 
     26 NZ         17.6291  -15.7298   24.9410 N.2       3 LYS4        0.0000 
     27 N          12.1743  -16.2586   27.8074 N.2       2 ALA2        0.0000 
     28 N          13.4633  -16.4936   27.0771 N.2       2 ALA2        0.0000 
     29 N          14.7523  -16.7287   26.3468 N.2       2 ALA2        0.0000 
     30 DU         16.0413  -16.9637   25.6166 H         6 CUB7        0.0000 
     31 CA         17.3303  -17.1987   24.8863 C.3       5 GLY6        0.0000 
     32 CA         11.8755  -17.7275   27.7527 C.3       5 GLY6        0.0000 
     33 N          13.1645  -17.9625   27.0225 N.2       2 ALA2        0.0000 
     34 DU         14.4535  -18.1976   26.2922 H         6 CUB7        0.0000 
     35 DU         15.7425  -18.4326   25.5620 H         6 CUB7        0.0000 
     36 CA         17.0315  -18.6677   24.8317 C.3       5 GLY6        0.0000 
     37 CA         12.8657  -19.4315   26.9678 C.3       5 GLY6        0.0000 
     38 CA         14.1547  -19.6665   26.2376 C.3       5 GLY6        0.0000 
     39 CA         15.4437  -19.9015   25.5073 C.3       5 GLY6        0.0000 
     40 N          16.7327  -20.1366   24.7771 N.2       2 ALA2        0.0000 
     41 N          15.9323  -13.8334   24.4168 N.2       2 ALA2        0.0000 
     42 NZ         17.2213  -14.0685   23.6865 N.2       3 LYS4        0.0000 
     43 NZ         18.5103  -14.3035   22.9562 N.2       3 LYS4        0.0000 
     44 NZ         15.6335  -15.3024   24.3621 N.2       3 LYS4        0.0000 
     45 NZ         16.9225  -15.5374   23.6319 N.2       3 LYS4        0.0000 
     46 NZ         18.2115  -15.7724   22.9016 N.2       3 LYS4        0.0000 
     47 N          14.0457  -16.5362   25.0377 N.2       2 ALA2        0.0000 
     48 NZ         15.3347  -16.7713   24.3075 N.2       3 LYS4        0.0000 
     49 NZ         17.9127  -17.2414   22.8470 N.2       3 LYS4        0.0000 
     50 N          13.7469  -18.0052   24.9831 N.2       2 ALA2        0.0000 
     51 NZ         15.0359  -18.2402   24.2529 N.2       3 LYS4        0.0000 
     52 NZ         16.3249  -18.4752   23.5226 N.2       3 LYS4        0.0000 
     53 CA         17.6139  -18.7103   22.7923 C.3       5 GLY6        0.0000 
     54 CA         13.4481  -19.4741   24.9285 C.3       5 GLY6        0.0000 
     55 CA         14.7371  -19.7091   24.1982 C.3       5 GLY6        0.0000 
     56 N          16.0261  -19.9442   23.4680 N.2       2 ALA2        0.0000 
     57 N          17.3151  -20.1792   22.7377 N.2       2 ALA2        0.0000 
     58 N          18.3053  -21.8832   21.9528 N.2       2 ALA2        0.0000 
     59 CA         17.8774  -16.0294   31.6379 C.3       5 GLY6        0.0000 
     60 OG         18.8675  -17.7334   30.8530 O.2       1 SER1        0.0000 
     61 CA         16.4642  -15.6446   29.0197 C.3       5 GLY6        0.0000 
     62 DU         17.7532  -15.8796   28.2894 H         6 CUB7        0.0000 
     63 DU         19.0422  -16.1147   27.5592 H         6 CUB7        0.0000 
     64 OG         16.1654  -17.1135   28.9650 O.2       1 SER1        0.0000 
     65 OG         17.4544  -17.3485   28.2348 O.2       1 SER1        0.0000 
     66 DU         18.7434  -17.5836   27.5045 H         6 CUB7        0.0000 
     67 CA         20.0324  -17.8186   26.7743 C.3       5 GLY6        0.0000 
     68 CZ         15.8666  -18.5824   28.9104 C.ar      4 PHE5        0.0000 
     69 OG         17.1556  -18.8175   28.1802 O.2       1 SER1        0.0000 
     70 CA         18.4446  -19.0525   27.4499 C.3       5 GLY6        0.0000 
     71 CA         16.8568  -20.2864   28.1255 C.3       5 GLY6        0.0000 
     72 CA         16.0565  -13.9832   27.7652 C.3       5 GLY6        0.0000 
     73 DU         17.3455  -14.2183   27.0350 H         6 CUB7        0.0000 
     74 CA         14.4687  -15.2171   28.4408 C.3       5 GLY6        0.0000 
     75 CA         15.7577  -15.4522   27.7106 C.3       5 GLY6        0.0000 
     76 DU         17.0467  -15.6872   26.9803 H         6 CUB7        0.0000 
     77 DU         18.3356  -15.9222   26.2501 H         6 CUB7        0.0000 
     78 N          12.8809  -16.4510   29.1165 N.2       2 ALA2        0.0000 
     79 CA         14.1699  -16.6860   28.3862 C.3       5 GLY6        0.0000 
     80 DU         15.4589  -16.9211   27.6559 H         6 CUB7        0.0000 
     81 DU         16.7479  -17.1561   26.9257 H         6 CUB7        0.0000 
     82 CA         18.0368  -17.3912   26.1954 C.3       5 GLY6        0.0000 
     83 CA         12.5821  -17.9199   29.0618 C.3       5 GLY6        0.0000 
     84 CZ         13.8711  -18.1550   28.3316 C.ar      4 PHE5        0.0000 
     85 CZ         15.1601  -18.3900   27.6013 C.ar      4 PHE5        0.0000 
     86 DU         16.4490  -18.6250   26.8711 H         6 CUB7        0.0000 
     87 CA         17.7380  -18.8601   26.1408 C.3       5 GLY6        0.0000 
     88 CZ         12.2833  -19.3888   29.0072 C.ar      4 PHE5        0.0000 
     89 CZ         13.5723  -19.6239   28.2769 C.ar      4 PHE5        0.0000 
     90 CZ         14.8613  -19.8589   27.5467 C.ar      4 PHE5        0.0000 
     91 CA         16.1502  -20.0940   26.8164 C.3       5 GLY6        0.0000 
     92 N          17.4392  -20.3290   26.0862 N.2       2 ALA2        0.0000 
@<TRIPOS>BOND
@<TRIPOS>SUBSTRUCTURE
     1 SER1        2 GROUP   
     2 ALA2        7 GROUP   
     3 LYS4       12 GROUP   
     4 PHE5       20 GROUP   
     5 GLY6        1 GROUP   
     6 CUB7        4 GROUP   
@<TRIPOS>SET

