#    Name: 3k3b_L31_1_INTS_M
#    Modification time : Mon Mar 24 18:08:22 2014

@<TRIPOS>MOLECULE
3k3b_L31_1_INTS_M
   71     0     6     0     0
SMALL
NO_CHARGES


@<TRIPOS>ATOM
      1 CA         18.2630  -19.4500   23.3410 C.3       2 GLC5        0.0000 
      2 CA         16.2340  -19.9490   22.9320 C.3       6 GLL5        0.0000 
      3 CA         20.2920  -18.9510   23.7500 C.3       4 GLP5        0.0000 
      4 CA         12.2250  -20.3920   22.0175 C.3       2 GLC5        0.0000 
      5 CA         13.4990  -19.2110   22.3020 C.3       6 GLL5        0.0000 
      6 CA         10.9510  -21.5730   21.7330 C.3       4 GLP5        0.0000 
      7 CA         12.8965  -19.7490   20.2995 C.3       2 GLC5        0.0000 
      8 CA         14.2720  -19.8580   21.3410 C.3       6 GLL5        0.0000 
      9 CA         11.5210  -19.6400   19.2580 C.3       4 GLP5        0.0000 
     10 CA         17.3445  -21.6410   19.3645 C.3       2 GLC5        0.0000 
     11 CA         16.4870  -20.9540   20.5640 C.3       6 GLL5        0.0000 
     12 CA         18.2020  -22.3280   18.1650 C.3       4 GLP5        0.0000 
     13 CA         15.0820  -22.1530   19.7775 C.3       2 GLC5        0.0000 
     14 CA         13.6770  -23.3520   18.9910 C.3       4 GLP5        0.0000 
     15 CA         13.8445  -16.9935   24.0155 C.3       2 GLC5        0.0000 
     16 CA         14.4790  -18.0520   25.8450 C.3       6 GLL5        0.0000 
     17 CA         13.2100  -15.9350   22.1860 C.3       4 GLP5        0.0000 
     18 O          12.3770  -17.1890   24.8330 O.2       1 ALC1        0.0000 
     19 O          13.4810  -18.2080   24.8330 O.2       5 ALL1        0.0000 
     20 O          11.2730  -16.1700   24.8330 O.2       3 ALP1        0.0000 
     21 CA         18.2725  -20.7340   26.7230 C.3       2 GLC5        0.0000 
     22 CA         16.7320  -19.2350   26.4970 C.3       6 GLL5        0.0000 
     23 CA         19.8130  -22.2330   26.9490 C.3       4 GLP5        0.0000 
     24 CA         15.7460  -19.3875   29.3245 C.3       2 GLC5        0.0000 
     25 CA         16.6210  -18.5070   27.8860 C.3       6 GLL5        0.0000 
     26 CA         14.8710  -20.2680   30.7630 C.3       4 GLP5        0.0000 
     27 CA         11.5135  -18.2820   26.9355 C.3       2 GLC5        0.0000 
     28 CA         13.3440  -17.6160   28.0340 C.3       6 GLL5        0.0000 
     29 CA          9.6830  -18.9480   25.8370 C.3       4 GLP5        0.0000 
     30 CA         12.9695  -14.6690   28.4400 C.3       2 GLC5        0.0000 
     31 CA         12.6490  -16.6260   28.7330 C.3       6 GLL5        0.0000 
     32 CA         13.2900  -12.7120   28.1470 C.3       4 GLP5        0.0000 
     33 CA         10.6465  -15.9155   28.4475 C.3       2 GLC5        0.0000 
     34 CA          8.6440  -15.2050   28.1620 C.3       4 GLP5        0.0000 
     35 CA         10.3485  -16.2795   31.3190 C.3       2 GLC5        0.0000 
     36 CA         11.5350  -16.9770   29.5670 C.3       6 GLL5        0.0000 
     37 CA          9.1620  -15.5820   33.0710 C.3       4 GLP5        0.0000 
     38 O          11.3015  -14.7545   30.0380 O.2       1 ALC1        0.0000 
     39 O          10.8420  -15.9790   30.2720 O.2       5 ALL1        0.0000 
     40 O          11.7610  -13.5300   29.8040 O.2       3 ALP1        0.0000 
     41 CA         16.3725  -15.8120   30.3920 C.3       2 GLC5        0.0000 
     42 CA         17.6870  -15.9420   29.0300 C.3       6 GLL5        0.0000 
     43 CA         15.0580  -15.6820   31.7540 C.3       4 GLP5        0.0000 
     44 CA         14.4225  -21.6015   22.5745 C.3       2 GLC5        0.0000 
     45 CA         13.8780  -23.1540   23.6560 C.3       4 GLP5        0.0000 
     46 CA         15.6825  -21.1217   24.4733 C.3       2 GLC5        0.0000 
     47 CA         15.5390  -22.6360   25.5110 C.3       4 GLP5        0.0000 
     48 CA         13.9808  -17.5090   22.9892 C.3       2 GLC5        0.0000 
     49 CA         15.4180  -19.2660   23.9390 C.3       6 GLL5        0.0000 
     50 CA         11.8550  -19.2142   23.7035 C.3       2 GLC5        0.0000 
     51 CA         14.0850  -18.9000   23.6460 C.3       6 GLL5        0.0000 
     52 CA          9.9180  -19.3730   24.4330 C.3       4 GLP5        0.0000 
     53 CA         13.8350  -21.1047   23.3150 C.3       2 GLC5        0.0000 
     54 CA         13.9090  -17.9960   21.3327 C.3       2 GLC5        0.0000 
     55 CA         13.5850  -16.3620   20.7680 C.3       4 GLP5        0.0000 
     56 CA         15.8807  -20.8320   25.7320 C.3       2 GLC5        0.0000 
     57 CA         15.7130  -18.8210   25.4090 C.3       6 GLL5        0.0000 
     58 CA         13.5198  -16.9380   30.2598 C.3       2 GLC5        0.0000 
     59 CA         14.0430  -16.7550   32.1360 C.3       4 GLP5        0.0000 
     60 CA         12.6840  -17.2177   30.8823 C.3       2 GLC5        0.0000 
     61 CA          9.7590  -17.0873   29.2327 C.3       2 GLC5        0.0000 
     62 CA          8.1930  -16.4940   28.8370 C.3       4 GLP5        0.0000 
     63 CA         11.4857  -19.7807   30.9537 C.3       2 GLC5        0.0000 
     64 CA         11.1150  -18.3840   29.6900 C.3       6 GLL5        0.0000 
     65 CA         11.5010  -20.6680   32.5770 C.3       4 GLP5        0.0000 
     66 CA         12.7168  -20.8287   27.2422 C.3       2 GLC5        0.0000 
     67 CA         11.8260  -19.4030   28.9710 C.3       6 GLL5        0.0000 
     68 CA         13.0660  -22.4260   25.9180 C.3       4 GLP5        0.0000 
     69 CA         10.8894  -19.6129   27.6651 C.3       2 GLC5        0.0000 
     70 CA         12.9090  -19.0600   28.1620 C.3       6 GLL5        0.0000 
     71 CA          9.5890  -20.2490   26.5840 C.3       4 GLP5        0.0000 
@<TRIPOS>BOND
@<TRIPOS>SUBSTRUCTURE
     1 ALC1       18 GROUP        1 X    ALC  0     ROOT ALC X 1
     2 GLC5        1 GROUP        1 X    GLC  0     **** GLC X 6
     3 ALP1       20 GROUP        1 Y    ALP  0     ROOT ALP Y 8
     4 GLP5        3 GROUP        1 Y    GLP  0     **** GLP Y 13
     5 ALL1       19 GROUP        1 Z    ALL  0     ROOT ALL Z 15
     6 GLL5        2 GROUP        1 Z    GLL  0     **** GLL Z 20
@<TRIPOS>SET

