#    Name: 3k3b_L31_1_ligand
#    Modification time : Mon Mar 24 18:08:22 2014

@<TRIPOS>MOLECULE
3k3b_L31_1_ligand
   44    47     1     0     0
SMALL
NO_CHARGES


@<TRIPOS>ATOM
      1 C1         15.6620  -20.2400   21.6450 C.ar      1 L31371      0.0000 
      2 C2         16.2340  -19.9490   22.9320 C.ar      1 L31371      0.0000 
      3 C3         15.4180  -19.2660   23.9390 C.ar      1 L31371      0.0000 
      4 C4         14.0850  -18.9000   23.6460 C.ar      1 L31371      0.0000 
      5 C5         13.4990  -19.2110   22.3020 C.ar      1 L31371      0.0000 
      6 C6         14.2720  -19.8580   21.3410 C.ar      1 L31371      0.0000 
      7 C10        16.4870  -20.9540   20.5640 C.3       1 L31371      0.0000 
      8 C14        15.7130  -18.8210   25.4090 C.2       1 L31371      0.0000 
      9 C15        14.4790  -18.0520   25.8450 C.2       1 L31371      0.0000 
     10 N16        13.4810  -18.2080   24.8330 N.pl3     1 L31371      0.0000 
     11 C18        16.7320  -19.2350   26.4970 C.3       1 L31371      0.0000 
     12 C19        16.6210  -18.5070   27.8860 C.3       1 L31371      0.0000 
     13 N22        15.7630  -17.2910   27.8870 N.am      1 L31371      0.0000 
     14 C25        14.5280  -17.2220   27.1340 C.3       1 L31371      0.0000 
     15 C26        13.3440  -17.6160   28.0340 C.ar      1 L31371      0.0000 
     16 C28        12.6490  -16.6260   28.7330 C.ar      1 L31371      0.0000 
     17 C29        11.5350  -16.9770   29.5670 C.ar      1 L31371      0.0000 
     18 C30        11.1150  -18.3840   29.6900 C.ar      1 L31371      0.0000 
     19 C31        11.8260  -19.4030   28.9710 C.ar      1 L31371      0.0000 
     20 C32        12.9090  -19.0600   28.1620 C.ar      1 L31371      0.0000 
     21 O37        10.8420  -15.9790   30.2720 O.3       1 L31371      0.0000 
     22 C39        16.3130  -16.0220   28.4060 C.2       1 L31371      0.0000 
     23 O40        15.6900  -15.0190   28.2880 O.2       1 L31371      0.0000 
     24 C41        17.6870  -15.9420   29.0300 C.3       1 L31371      0.0000 
     25 H          17.1782  -20.2054   23.1491 H         1 L31371      0.0000 
     26 H          12.5417  -18.9329   22.1393 H         1 L31371      0.0000 
     27 H          13.9097  -20.0824   20.4192 H         1 L31371      0.0000 
     28 H          12.5949  -17.9391   24.8666 H         1 L31371      0.0000 
     29 H          17.7571  -19.0713   26.1082 H         1 L31371      0.0000 
     30 H          16.6412  -20.3252   26.6762 H         1 L31371      0.0000 
     31 H          17.6496  -18.2543   28.2049 H         1 L31371      0.0000 
     32 H          16.2409  -19.2486   28.6135 H         1 L31371      0.0000 
     33 H          14.3297  -16.1649   26.8415 H         1 L31371      0.0000 
     34 H          12.9215  -15.6440   28.6614 H         1 L31371      0.0000 
     35 H          10.3331  -18.6118   30.2782 H         1 L31371      0.0000 
     36 H          11.5247  -20.3736   29.0639 H         1 L31371      0.0000 
     37 H          13.4405  -19.7422   27.6368 H         1 L31371      0.0000 
     38 H          17.3048  -20.4342   20.3171 H         1 L31371      0.0000 
     39 H          16.7936  -21.8565   20.8664 H         1 L31371      0.0000 
     40 H          15.9611  -21.0893   19.7243 H         1 L31371      0.0000 
     41 H          18.4026  -16.2200   28.3893 H         1 L31371      0.0000 
     42 H          17.9057  -15.0131   29.3287 H         1 L31371      0.0000 
     43 H          17.7657  -16.5340   29.8321 H         1 L31371      0.0000 
     44 H          10.8961  -15.1669   29.6910 H         1 L31371      0.0000 
@<TRIPOS>BOND
     1    2    1 ar   
     2    6    1 ar   
     3    7    1 1    
     4    3    2 ar   
     5   25    2 1    
     6    4    3 ar   
     7    8    3 1    
     8    5    4 ar   
     9   10    4 1    
    10    6    5 ar   
    11   26    5 1    
    12   27    6 1    
    13   38    7 1    
    14   39    7 1    
    15   40    7 1    
    16    9    8 2    
    17   11    8 1    
    18   10    9 1    
    19   14    9 1    
    20   28   10 1    
    21   12   11 1    
    22   29   11 1    
    23   30   11 1    
    24   13   12 1    
    25   31   12 1    
    26   32   12 1    
    27   14   13 1    
    28   22   13 am   
    29   15   14 1    
    30   33   14 1    
    31   16   15 ar   
    32   20   15 ar   
    33   17   16 ar   
    34   34   16 1    
    35   18   17 ar   
    36   21   17 1    
    37   19   18 ar   
    38   35   18 1    
    39   20   19 ar   
    40   36   19 1    
    41   37   20 1    
    42   44   21 1    
    43   23   22 2    
    44   24   22 1    
    45   41   24 1    
    46   42   24 1    
    47   43   24 1    
@<TRIPOS>SUBSTRUCTURE
     1 L31371      1 GROUP   
@<TRIPOS>SET

