#    Name: 4hz5_19Y_1_INTS_M
#    Modification time : Tue Mar 25 02:01:36 2014

@<TRIPOS>MOLECULE
4hz5_19Y_1_INTS_M
   55     0     6     0     0
SMALL
NO_CHARGES


@<TRIPOS>ATOM
      1 CA          8.0395   64.4060   15.7115 C.3       2 GLC5        0.0000 
      2 CA          8.7100   64.3450   13.7660 C.3       6 GLL5        0.0000 
      3 CA          7.3690   64.4670   17.6570 C.3       4 GLP5        0.0000 
      4 CA          8.7705   64.7055   11.7045 C.3       2 GLC5        0.0000 
      5 CA          7.5380   63.6710   13.1010 C.3       6 GLL5        0.0000 
      6 CA         10.0030   65.7400   10.3080 C.3       4 GLP5        0.0000 
      7 CA          8.7420   62.0445   12.1990 C.3       2 GLC5        0.0000 
      8 CA          9.9460   60.4180   11.2970 C.3       4 GLP5        0.0000 
      9 CA          6.0780   61.3900   12.5435 C.3       2 GLC5        0.0000 
     10 CA          6.9040   62.6560   14.0380 C.3       6 GLL5        0.0000 
     11 CA          5.2520   60.1240   11.0490 C.3       4 GLP5        0.0000 
     12 CA          7.1365   63.5615   15.8475 C.3       2 GLC5        0.0000 
     13 CA         10.3250   67.2905   16.3350 C.3       2 GLC5        0.0000 
     14 CA         11.2700   67.0110   14.9240 C.3       6 GLL5        0.0000 
     15 CA          9.3800   67.5700   17.7460 C.3       4 GLP5        0.0000 
     16 CA         11.4610   70.6325   15.3330 C.3       2 GLC5        0.0000 
     17 CA         12.2970   69.1520   14.4800 C.3       6 GLL5        0.0000 
     18 CA         10.6250   72.1130   16.1860 C.3       4 GLP5        0.0000 
     19 CA         13.3165   70.6105   13.6730 C.3       2 GLC5        0.0000 
     20 CA         14.3360   72.0690   12.8660 C.3       4 GLP5        0.0000 
     21 CA         11.6230   69.9050   12.6530 C.3       2 GLC5        0.0000 
     22 CA         10.9490   70.6580   10.8260 C.3       4 GLP5        0.0000 
     23 CA         10.9210   66.4825   16.9630 C.3       2 GLC5        0.0000 
     24 CA         12.4620   65.3950   16.1800 C.3       6 GLL5        0.0000 
     25 CA          9.4675   63.9630   16.4810 C.3       2 GLC5        0.0000 
     26 CA         10.5670   64.5790   15.0310 C.3       6 GLL5        0.0000 
     27 CA          8.3680   63.3470   17.9310 C.3       4 GLP5        0.0000 
     28 O           9.7480   62.4360   14.6800 O.2       1 ALC1        0.0000 
     29 O           9.6210   63.7400   14.5660 O.2       5 ALL1        0.0000 
     30 O           9.8750   61.1320   14.7940 O.2       3 ALP1        0.0000 
     31 CA         15.0275   64.1385   18.7830 C.3       2 GLC5        0.0000 
     32 CA         13.7650   65.0490   17.2010 C.3       6 GLL5        0.0000 
     33 CA         16.2900   63.2280   20.3650 C.3       4 GLP5        0.0000 
     34 CA         12.7805   64.4440   19.0545 C.3       2 GLC5        0.0000 
     35 CA         11.7960   63.8390   20.9080 C.3       4 GLP5        0.0000 
     36 CA         12.4180   66.2060   18.4355 C.3       2 GLC5        0.0000 
     37 CA         11.0710   67.3630   19.6700 C.3       4 GLP5        0.0000 
     38 CA         15.4320   69.3860   18.6955 C.3       2 GLC5        0.0000 
     39 CA         16.6580   68.4230   17.4460 C.3       6 GLL5        0.0000 
     40 CA         14.2060   70.3490   19.9450 C.3       4 GLP5        0.0000 
     41 CA         15.7945   65.0280   19.4290 C.3       2 GLC5        0.0000 
     42 CA         15.2990   66.8280   18.4930 C.3       6 GLL5        0.0000 
     43 CA         13.1850   67.0955   19.0815 C.3       2 GLC5        0.0000 
     44 CA          5.9325   63.5532   12.2398 C.3       2 GLC5        0.0000 
     45 CA          4.6440   63.9430   10.9100 C.3       4 GLP5        0.0000 
     46 CA          5.7000   64.1047   14.1872 C.3       2 GLC5        0.0000 
     47 CA          4.1790   65.0460   14.8050 C.3       4 GLP5        0.0000 
     48 CA          9.8100   65.6200   12.2167 C.3       2 GLC5        0.0000 
     49 CA          9.1080   65.7690   13.7000 C.3       6 GLL5        0.0000 
     50 CA         14.0933   63.5705   15.8807 C.3       2 GLC5        0.0000 
     51 CA         15.0730   61.9190   15.0710 C.3       4 GLP5        0.0000 
     52 CA          9.7609   66.3937   16.1580 C.3       2 GLC5        0.0000 
     53 CA         14.0485   68.0768   18.6788 C.3       2 GLC5        0.0000 
     54 CA         14.8690   66.3390   17.2620 C.3       6 GLL5        0.0000 
     55 CA         13.0130   69.5700   19.4800 C.3       4 GLP5        0.0000 
@<TRIPOS>BOND
@<TRIPOS>SUBSTRUCTURE
     1 ALC1       28 GROUP        1 X    ALC  0     ROOT ALC X 1
     2 GLC5        1 GROUP        1 X    GLC  0     **** GLC X 6
     3 ALP1       30 GROUP        1 Y    ALP  0     ROOT ALP Y 8
     4 GLP5        3 GROUP        1 Y    GLP  0     **** GLP Y 13
     5 ALL1       29 GROUP        1 Z    ALL  0     ROOT ALL Z 15
     6 GLL5        2 GROUP        1 Z    GLL  0     **** GLL Z 20
@<TRIPOS>SET

