#    Name: 4hz5_19Y_1_ligand
#    Modification time : Tue Mar 25 02:01:36 2014

@<TRIPOS>MOLECULE
4hz5_19Y_1_ligand
   36    38     1     0     0
SMALL
NO_CHARGES


@<TRIPOS>ATOM
      1 O20         7.4740   66.7360   12.3240 O.2       1 19Y301      0.0000 
      2 C19         8.4900   66.9070   12.9750 C.2       1 19Y301      0.0000 
      3 C5          9.1080   65.7690   13.7000 C.2       1 19Y301      0.0000 
      4 C1          8.7100   64.3450   13.7660 C.2       1 19Y301      0.0000 
      5 C21         7.5380   63.6710   13.1010 C.3       1 19Y301      0.0000 
      6 C22         6.9040   62.6560   14.0380 C.3       1 19Y301      0.0000 
      7 C4         10.3250   65.9430   14.5180 C.ar      1 19Y301      0.0000 
      8 C6         11.2700   67.0110   14.9240 C.ar      1 19Y301      0.0000 
      9 O17        11.1460   68.3070   14.5100 O.3       1 19Y301      0.0000 
     10 C18        12.2970   69.1520   14.4800 C.3       1 19Y301      0.0000 
     11 N7         12.2870   66.6640   15.7390 N.ar      1 19Y301      0.0000 
     12 C8         12.4620   65.3950   16.1800 C.ar      1 19Y301      0.0000 
     13 N9         11.6260   64.3850   15.8410 N.ar      1 19Y301      0.0000 
     14 C3         10.5670   64.5790   15.0310 C.ar      1 19Y301      0.0000 
     15 N2          9.6210   63.7400   14.5660 N.pl3     1 19Y301      0.0000 
     16 S10        13.7650   65.0490   17.2010 S.3       1 19Y301      0.0000 
     17 C11        14.8690   66.3390   17.2620 C.ar      1 19Y301      0.0000 
     18 C16        15.3620   66.9140   16.0950 C.ar      1 19Y301      0.0000 
     19 C15        16.2660   67.9720   16.1870 C.ar      1 19Y301      0.0000 
     20 C14        16.6580   68.4230   17.4460 C.ar      1 19Y301      0.0000 
     21 N13        16.1720   67.8470   18.5590 N.ar      1 19Y301      0.0000 
     22 C12        15.2990   66.8280   18.4930 C.ar      1 19Y301      0.0000 
     23 H           9.0163   67.8054   13.0977 H         1 19Y301      0.0000 
     24 H           7.8721   63.1622   12.1958 H         1 19Y301      0.0000 
     25 H           6.7924   64.4182   12.8258 H         1 19Y301      0.0000 
     26 H           9.5907   62.7677   14.7868 H         1 19Y301      0.0000 
     27 H          15.0663   66.5664   15.1807 H         1 19Y301      0.0000 
     28 H          16.6358   68.4105   15.3420 H         1 19Y301      0.0000 
     29 H          17.3322   69.2120   17.5015 H         1 19Y301      0.0000 
     30 H          14.9275   66.3848   19.3583 H         1 19Y301      0.0000 
     31 H           7.5525   61.9444   14.3084 H         1 19Y301      0.0000 
     32 H           6.5709   63.0837   14.8783 H         1 19Y301      0.0000 
     33 H           6.1239   62.1958   13.6141 H         1 19Y301      0.0000 
     34 H          12.7109   69.2481   15.3852 H         1 19Y301      0.0000 
     35 H          13.0046   68.7942   13.8707 H         1 19Y301      0.0000 
     36 H          12.0734   70.0729   14.1607 H         1 19Y301      0.0000 
@<TRIPOS>BOND
     1    2    1 2    
     2    3    2 1    
     3   23    2 1    
     4    4    3 2    
     5    7    3 1    
     6    5    4 1    
     7   15    4 1    
     8    6    5 1    
     9   24    5 1    
    10   25    5 1    
    11   31    6 1    
    12   32    6 1    
    13   33    6 1    
    14    8    7 ar   
    15   14    7 ar   
    16    9    8 1    
    17   11    8 ar   
    18   10    9 1    
    19   34   10 1    
    20   35   10 1    
    21   36   10 1    
    22   12   11 ar   
    23   13   12 ar   
    24   16   12 1    
    25   14   13 ar   
    26   15   14 1    
    27   26   15 1    
    28   17   16 1    
    29   18   17 ar   
    30   22   17 ar   
    31   19   18 ar   
    32   27   18 1    
    33   20   19 ar   
    34   28   19 1    
    35   21   20 ar   
    36   29   20 1    
    37   22   21 ar   
    38   30   22 1    
@<TRIPOS>SUBSTRUCTURE
     1 19Y301      1 GROUP   
@<TRIPOS>SET

