#    Name: 4nt3_ZAW_1_INTS_M
#    Modification time : Tue Mar 25 13:19:44 2014

@<TRIPOS>MOLECULE
4nt3_ZAW_1_INTS_M
   28     0     6     0     0
SMALL
NO_CHARGES


@<TRIPOS>ATOM
      1 CA          2.8230    6.3695   28.0225 C.3       2 GLC5        0.0000 
      2 CA          1.8050    5.1860   29.3440 C.3       6 GLL5        0.0000 
      3 CA          3.8410    7.5530   26.7010 C.3       4 GLP5        0.0000 
      4 CA          1.6545    6.2625   32.8285 C.3       2 GLC5        0.0000 
      5 CA          1.3260    4.4690   31.5930 C.3       6 GLL5        0.0000 
      6 CA          1.9830    8.0560   34.0640 C.3       4 GLP5        0.0000 
      7 N           5.1680    5.4875   32.7965 N.am      1 SEC2        0.0000 
      8 N           4.2180    5.5700   31.3590 N.am      5 SEL2        0.0000 
      9 N           6.1180    5.4050   34.2340 N.am      3 SEP2        0.0000 
     10 CA          2.7885    3.2235   28.4200 C.3       2 GLC5        0.0000 
     11 CA          4.1930    4.1400   29.5530 C.3       6 GLL5        0.0000 
     12 CA          1.3840    2.3070   27.2870 C.3       4 GLP5        0.0000 
     13 CA          3.9050    2.3895   27.0515 C.3       2 GLC5        0.0000 
     14 CA          5.3980    3.5730   27.1040 C.3       6 GLL5        0.0000 
     15 CA          2.4120    1.2060   26.9990 C.3       4 GLP5        0.0000 
     16 CA          3.7130    2.1150   28.2150 C.3       2 GLC5        0.0000 
     17 CA          5.0140    3.0240   29.4310 C.3       6 GLL5        0.0000 
     18 CA          1.7033    3.6235   28.6217 C.3       2 GLC5        0.0000 
     19 CA          0.0772    4.8090   27.8720 C.3       2 GLC5        0.0000 
     20 CA          0.4570    5.4540   29.1340 C.3       6 GLL5        0.0000 
     21 CA          0.1580    4.2750   26.1010 C.3       4 GLP5        0.0000 
     22 CA          4.5755    6.0607   28.3117 C.3       2 GLC5        0.0000 
     23 CA          3.9750    4.9670   28.4580 C.3       6 GLL5        0.0000 
     24 CA          5.0670    7.5680   27.6180 C.3       4 GLP5        0.0000 
     25 CA          2.8507    4.1103   27.0285 C.3       2 GLC5        0.0000 
     26 CA          1.4260    3.3940   26.2100 C.3       4 GLP5        0.0000 
     27 CA          5.0270    5.8487   27.3940 C.3       2 GLC5        0.0000 
     28 CA          4.5760    4.6860   27.2360 C.3       6 GLL5        0.0000 
@<TRIPOS>BOND
@<TRIPOS>SUBSTRUCTURE
     1 SEC2        7 GROUP        1 X    SEC  0     ROOT SEC X 2
     2 GLC5        1 GROUP        1 X    GLC  0     **** GLC X 6
     3 SEP2        9 GROUP        1 Y    SEP  0     ROOT SEP Y 9
     4 GLP5        3 GROUP        1 Y    GLP  0     **** GLP Y 13
     5 SEL2        8 GROUP        1 Z    SEL  0     ROOT SEL Z 16
     6 GLL5        2 GROUP        1 Z    GLL  0     **** GLL Z 20
@<TRIPOS>SET

