#    Name: 4nt3_ZAW_1_ligand
#    Modification time : Tue Mar 25 13:19:45 2014

@<TRIPOS>MOLECULE
4nt3_ZAW_1_ligand
   22    23     1     0     0
SMALL
NO_CHARGES


@<TRIPOS>ATOM
      1 C01         1.8050    5.1860   29.3440 C.ar      1 ZAW618      0.0000 
      2 C06         0.4570    5.4540   29.1340 C.ar      1 ZAW618      0.0000 
      3 C05        -0.4640    5.2320   30.1520 C.ar      1 ZAW618      0.0000 
      4 N01        -0.0310    4.7380   31.3870 N.ar      1 ZAW618      0.0000 
      5 C03         1.3260    4.4690   31.5930 C.ar      1 ZAW618      0.0000 
      6 C04         2.2400    4.6940   30.5690 C.ar      1 ZAW618      0.0000 
      7 C02         3.5880    4.4270   30.7720 C.2       1 ZAW618      0.0000 
      8 O01         4.2180    5.5700   31.3590 O.2       1 ZAW618      0.0000 
      9 C07         4.1930    4.1400   29.5530 C.ar      1 ZAW618      0.0000 
     10 C08         3.9750    4.9670   28.4580 C.ar      1 ZAW618      0.0000 
     11 C09         4.5760    4.6860   27.2360 C.ar      1 ZAW618      0.0000 
     12 C10         5.3980    3.5730   27.1040 C.ar      1 ZAW618      0.0000 
     13 N02         5.6210    2.7370   28.2040 N.ar      1 ZAW618      0.0000 
     14 C12         5.0140    3.0240   29.4310 C.ar      1 ZAW618      0.0000 
     15 H           2.4848    5.3530   28.5876 H         1 ZAW618      0.0000 
     16 H           0.1405    5.8168   28.2249 H         1 ZAW618      0.0000 
     17 H          -1.4594    5.4289   30.0013 H         1 ZAW618      0.0000 
     18 H           1.6431    4.1065   32.4989 H         1 ZAW618      0.0000 
     19 H           3.3652    5.7925   28.5514 H         1 ZAW618      0.0000 
     20 H           4.4119    5.3026   26.4290 H         1 ZAW618      0.0000 
     21 H           5.8423    3.3610   26.2039 H         1 ZAW618      0.0000 
     22 H           5.1762    2.4105   30.2370 H         1 ZAW618      0.0000 
@<TRIPOS>BOND
     1    2    1 ar   
     2    6    1 ar   
     3   15    1 1    
     4    3    2 ar   
     5   16    2 1    
     6    4    3 ar   
     7   17    3 1    
     8    5    4 ar   
     9    6    5 ar   
    10   18    5 1    
    11    7    6 1    
    12    8    7 2    
    13    9    7 1    
    14   10    9 ar   
    15   14    9 ar   
    16   11   10 ar   
    17   19   10 1    
    18   12   11 ar   
    19   20   11 1    
    20   13   12 ar   
    21   21   12 1    
    22   14   13 ar   
    23   22   14 1    
@<TRIPOS>SUBSTRUCTURE
     1 ZAW618      1 GROUP   
@<TRIPOS>SET

