#    Name: 4a33_PS8_1_INTS_M
#    Modification time : Tue Mar 25 04:54:23 2014

@<TRIPOS>MOLECULE
4a33_PS8_1_INTS_M
   62     0     9     0     0
SMALL
NO_CHARGES


@<TRIPOS>ATOM
      1 CA          4.4180    5.8640   19.0245 C.3       3 GLC5        0.0000 
      2 CA          2.7950    6.3590   17.8500 C.3       9 GLL5        0.0000 
      3 CA          6.0410    5.3690   20.1990 C.3       6 GLP5        0.0000 
      4 CA          3.1705    8.2725   17.6410 C.3       3 GLC5        0.0000 
      5 CA          3.5460   10.1860   17.4320 C.3       6 GLP5        0.0000 
      6 CA          2.2405    4.7890   19.2220 C.3       3 GLC5        0.0000 
      7 CA          1.6860    3.2190   20.5940 C.3       6 GLP5        0.0000 
      8 CA          2.5520    7.1970   19.3210 C.3       3 GLC5        0.0000 
      9 CA          2.3090    8.0350   20.7920 C.3       6 GLP5        0.0000 
     10 CA          6.9155    3.1465   14.7265 C.3       3 GLC5        0.0000 
     11 CA          5.2550    3.5360   14.2600 C.3       9 GLL5        0.0000 
     12 CA          8.5760    2.7570   15.1930 C.3       6 GLP5        0.0000 
     13 CA          4.1840    0.4685   14.6355 C.3       3 GLC5        0.0000 
     14 CA          3.6900    1.7380   16.4170 C.3       9 GLL5        0.0000 
     15 CA          4.6780   -0.8010   12.8540 C.3       6 GLP5        0.0000 
     16 CA          5.4895    0.5490   16.3160 C.3       3 GLC5        0.0000 
     17 CA          7.2890   -0.6400   16.2150 C.3       6 GLP5        0.0000 
     18 CA          4.1415    0.6665   17.9915 C.3       3 GLC5        0.0000 
     19 CA          4.5930   -0.4050   19.5660 C.3       6 GLP5        0.0000 
     20 CA          1.8325    1.4335   16.4295 C.3       3 GLC5        0.0000 
     21 CA         -0.0250    1.1290   16.4420 C.3       6 GLP5        0.0000 
     22 CA          0.3515    4.0505   14.7710 C.3       3 GLC5        0.0000 
     23 CA          0.7800    5.9790   14.1120 C.3       9 GLL5        0.0000 
     24 CA         -0.0770    2.1220   15.4300 C.3       6 GLP5        0.0000 
     25 CA          0.2725    6.4380   11.9750 C.3       3 GLC5        0.0000 
     26 CA         -0.2350    6.8970    9.8380 C.3       6 GLP5        0.0000 
     27 CA         -0.9885    5.7120   14.5435 C.3       3 GLC5        0.0000 
     28 CA         -2.7570    5.4450   14.9750 C.3       6 GLP5        0.0000 
     29 CA          6.1385    6.8525    9.9170 C.3       3 GLC5        0.0000 
     30 CA          5.8990    6.0600   11.7990 C.3       9 GLL5        0.0000 
     31 CA          6.3780    7.6450    8.0350 C.3       6 GLP5        0.0000 
     32 CA          0.6980    2.4610    8.0250 C.3       3 GLC5        0.0000 
     33 CA          0.5600    2.7500   10.2340 C.3       9 GLL5        0.0000 
     34 CA          0.8360    2.1720    5.8160 C.3       6 GLP5        0.0000 
     35 CA         -1.8300   -0.7545    6.0025 C.3       3 GLC5        0.0000 
     36 CA         -2.2660   -1.1940    8.1480 C.3       9 GLL5        0.0000 
     37 CA         -1.3940   -0.3150    3.8570 C.3       6 GLP5        0.0000 
     38 CA         -3.9595   -0.7830    6.9895 C.3       3 GLC5        0.0000 
     39 CA         -5.6530   -0.3720    5.8310 C.3       6 GLP5        0.0000 
     40 CA         -0.2750    1.0325    7.2870 C.3       3 GLC5        0.0000 
     41 CA         -1.3860   -0.1070    8.7580 C.3       9 GLL5        0.0000 
     42 CA          1.8825   -2.2410   10.6535 C.3       3 GLC5        0.0000 
     43 CA          0.4660   -1.6540    9.0440 C.3       9 GLL5        0.0000 
     44 CA          3.2990   -2.8280   12.2630 C.3       6 GLP5        0.0000 
     45 N           2.1805    3.5510   18.2670 N.am      1 SEC2        0.0000 
     46 N           3.1260    3.9390   17.2670 N.am      7 SEL2        0.0000 
     47 N           1.2350    3.1630   19.2670 N.am      4 SEP2        0.0000 
     48 OD1        -3.4005   -2.1095    9.4670 O.co2     2 ASC3        0.0000 
     49 OD1        -1.8140   -2.5160    8.6060 O.co2     8 ASL3        0.0000 
     50 OD1        -4.9870   -1.7030   10.3280 O.co2     5 ASP3        0.0000 
     51 CA          6.4950    4.0160   15.7295 C.3       3 GLC5        0.0000 
     52 CA          4.4550    4.0090   15.4310 C.3       9 GLL5        0.0000 
     53 CA          8.5350    4.0230   16.0280 C.3       6 GLP5        0.0000 
     54 CA          3.7085    0.4590   11.4530 C.3       3 GLC5        0.0000 
     55 CA          2.7390    1.7190   10.0520 C.3       9 GLL5        0.0000 
     56 CA          4.8545    4.6375   17.8790 C.3       3 GLC5        0.0000 
     57 CA          4.1680    5.3040   15.8930 C.3       9 GLL5        0.0000 
     58 CA          5.5410    3.9710   19.8650 C.3       6 GLP5        0.0000 
     59 CA          3.8020    1.1182    8.0670 C.3       3 GLC5        0.0000 
     60 CA          5.1720    1.0470    6.4140 C.3       6 GLP5        0.0000 
     61 CA          1.1338    1.4245    7.5435 C.3       3 GLC5        0.0000 
     62 CA          2.1250    0.6600    9.3880 C.3       9 GLL5        0.0000 
@<TRIPOS>BOND
@<TRIPOS>SUBSTRUCTURE
     1 SEC2       45 GROUP        1 X    SEC  0     ROOT SEC X 2
     2 ASC3       48 GROUP        1 X    ASC  0     **** ASC X 3
     3 GLC5        1 GROUP        1 X    GLC  0     **** GLC X 6
     4 SEP2       47 GROUP        1 Y    SEP  0     ROOT SEP Y 9
     5 ASP3       50 GROUP        1 Y    ASP  0     **** ASP Y 10
     6 GLP5        3 GROUP        1 Y    GLP  0     **** GLP Y 13
     7 SEL2       46 GROUP        1 Z    SEL  0     ROOT SEL Z 16
     8 ASL3       49 GROUP        1 Z    ASL  0     **** ASL Z 17
     9 GLL5        2 GROUP        1 Z    GLL  0     **** GLL Z 20
@<TRIPOS>SET

