#    Name: 4a33_PS8_1_ligand
#    Modification time : Tue Mar 25 04:54:23 2014

@<TRIPOS>MOLECULE
4a33_PS8_1_ligand
   55    58     1     0     0
SMALL
NO_CHARGES


@<TRIPOS>ATOM
      1 CAA         2.7950    6.3590   17.8500 C.3       1 PS81422     0.0000 
      2 CAB         5.2550    3.5360   14.2600 C.3       1 PS81422     0.0000 
      3 CAC         3.6900    1.7380   16.4170 C.3       1 PS81422     0.0000 
      4 OAD         2.7180    7.9040   14.6620 O.2       1 PS81422     0.0000 
      5 OAE         4.7250    8.0830   13.3590 O.2       1 PS81422     0.0000 
      6 CL1         0.7800    5.9790   14.1120 Cl        1 PS81422     0.0000 
      7 CL2         5.8990    6.0600   11.7990 Cl        1 PS81422     0.0000 
      8 CAH         0.5600    2.7500   10.2340 C.ar      1 PS81422     0.0000 
      9 CAI         1.9380    2.8130   10.4420 C.ar      1 PS81422     0.0000 
     10 CAJ         1.6810    4.4770   12.1680 C.ar      1 PS81422     0.0000 
     11 CAK         3.8050    4.4470   11.1780 C.ar      1 PS81422     0.0000 
     12 CAL         2.1250    0.6600    9.3880 C.ar      1 PS81422     0.0000 
     13 CAM        -2.2660   -1.1940    8.1480 C.3       1 PS81422     0.0000 
     14 CAN        -0.3740   -2.7110    8.3500 C.3       1 PS81422     0.0000 
     15 CAO        -1.3860   -0.1070    8.7580 C.3       1 PS81422     0.0000 
     16 CAP         0.4660   -1.6540    9.0440 C.3       1 PS81422     0.0000 
     17 NAQ        -0.0040    1.7320    9.5820 N.ar      1 PS81422     0.0000 
     18 NAR         3.1260    3.9390   17.2670 N.2       1 PS81422     0.0000 
     19 NAS        -1.8140   -2.5160    8.6060 N.4       1 PS81422     0.0000 
     20 NAT         4.5890    6.4730   15.3050 N.pl3     1 PS81422     0.0000 
     21 CAU         3.3500    5.2520   17.0200 C.2       1 PS81422     0.0000 
     22 CAV         4.4550    4.0090   15.4310 C.2       1 PS81422     0.0000 
     23 CAW         2.0810    5.4820   13.0050 C.ar      1 PS81422     0.0000 
     24 CAX         4.2120    5.4880   12.0280 C.ar      1 PS81422     0.0000 
     25 CAY         2.7390    1.7190   10.0520 C.ar      1 PS81422     0.0000 
     26 CBA         0.7380    0.6940    9.1540 C.ar      1 PS81422     0.0000 
     27 CBB         4.1680    5.3040   15.8930 C.2       1 PS81422     0.0000 
     28 CBC         3.3480    6.0480   12.9750 C.ar      1 PS81422     0.0000 
     29 NBD         0.0540   -0.3430    8.5010 N.3       1 PS81422     0.0000 
     30 NBE         3.8200    3.2070   16.2820 N.pl3     1 PS81422     0.0000 
     31 C11         2.5090    3.9520   11.2300 C.ar      1 PS81422     0.0000 
     32 SBF         3.8130    7.2060   14.0530 S.o2      1 PS81422     0.0000 
     33 H          -0.0245    3.5356   10.6099 H         1 PS81422     0.0000 
     34 H           0.7026    4.1036   12.2577 H         1 PS81422     0.0000 
     35 H           4.4829    4.0496   10.5088 H         1 PS81422     0.0000 
     36 H           2.6744   -0.1421    9.0692 H         1 PS81422     0.0000 
     37 H          -2.2039   -1.1200    7.0610 H         1 PS81422     0.0000 
     38 H          -3.2989   -1.0131    8.4501 H         1 PS81422     0.0000 
     39 H          -0.0547   -3.7008    8.7056 H         1 PS81422     0.0000 
     40 H          -0.1699   -2.6673    7.2708 H         1 PS81422     0.0000 
     41 H          -1.5774   -0.0717    9.8407 H         1 PS81422     0.0000 
     42 H          -1.6920    0.8633    8.3398 H         1 PS81422     0.0000 
     43 H           1.5098   -1.8416    8.8371 H         1 PS81422     0.0000 
     44 H           0.2829   -1.7009   10.1079 H         1 PS81422     0.0000 
     45 H           5.4227    7.0014   15.5857 H         1 PS81422     0.0000 
     46 H           3.7301    1.7121   10.2529 H         1 PS81422     0.0000 
     47 H           3.0998    6.2992   18.8005 H         1 PS81422     0.0000 
     48 H           3.0753    7.2560   17.5082 H         1 PS81422     0.0000 
     49 H           1.7951    6.3491   17.8616 H         1 PS81422     0.0000 
     50 H           6.2052    3.8436   14.3107 H         1 PS81422     0.0000 
     51 H           5.2728    2.5379   14.2012 H         1 PS81422     0.0000 
     52 H           4.8833    3.8740   13.3954 H         1 PS81422     0.0000 
     53 H           4.1948    1.2533   15.7027 H         1 PS81422     0.0000 
     54 H           4.0406    1.4133   17.2954 H         1 PS81422     0.0000 
     55 H           2.7368    1.4422   16.3544 H         1 PS81422     0.0000 
@<TRIPOS>BOND
     1   21    1 1    
     2   47    1 1    
     3   48    1 1    
     4   49    1 1    
     5   22    2 1    
     6   50    2 1    
     7   51    2 1    
     8   52    2 1    
     9   30    3 1    
    10   53    3 1    
    11   54    3 1    
    12   55    3 1    
    13   32    4 2    
    14   32    5 2    
    15   23    6 1    
    16   24    7 1    
    17    9    8 ar   
    18   17    8 ar   
    19   33    8 1    
    20   25    9 ar   
    21   31    9 1    
    22   23   10 ar   
    23   31   10 ar   
    24   34   10 1    
    25   24   11 ar   
    26   31   11 ar   
    27   35   11 1    
    28   25   12 ar   
    29   26   12 ar   
    30   36   12 1    
    31   15   13 1    
    32   19   13 1    
    33   37   13 1    
    34   38   13 1    
    35   16   14 1    
    36   19   14 1    
    37   39   14 1    
    38   40   14 1    
    39   29   15 1    
    40   41   15 1    
    41   42   15 1    
    42   29   16 1    
    43   43   16 1    
    44   44   16 1    
    45   26   17 ar   
    46   21   18 2    
    47   30   18 1    
    48   27   20 1    
    49   32   20 1    
    50   45   20 1    
    51   27   21 1    
    52   27   22 2    
    53   30   22 1    
    54   28   23 ar   
    55   28   24 ar   
    56   46   25 1    
    57   29   26 1    
    58   32   28 1    
@<TRIPOS>SUBSTRUCTURE
     1 PS81422     1 GROUP   
@<TRIPOS>SET

