#    Name: 2anq_C1A_1_INTS_M
#    Modification time : Mon Mar 24 19:30:55 2014

@<TRIPOS>MOLECULE
2anq_C1A_1_INTS_M
   61     0     9     0     0
SMALL
NO_CHARGES


@<TRIPOS>ATOM
      1 CA         33.9355   44.1015   12.4360 C.3       3 GLC5        0.0000 
      2 CA         32.7820   45.8450   12.0130 C.3       9 GLL5        0.0000 
      3 CA         35.0890   42.3580   12.8590 C.3       6 GLP5        0.0000 
      4 CA         31.6655   46.0295   12.7925 C.3       3 GLC5        0.0000 
      5 CA         30.5490   46.2140   13.5720 C.3       6 GLP5        0.0000 
      6 CA         38.2735   46.4875   12.2720 C.3       3 GLC5        0.0000 
      7 CA         37.5310   45.4640   10.4220 C.3       9 GLL5        0.0000 
      8 CA         39.0160   47.5110   14.1220 C.3       6 GLP5        0.0000 
      9 CA         36.5740   43.9105   10.7845 C.3       3 GLC5        0.0000 
     10 CA         35.6170   42.3570   11.1470 C.3       6 GLP5        0.0000 
     11 CA         39.7515   46.7965   11.9555 C.3       3 GLC5        0.0000 
     12 CA         39.0380   46.0340   10.2360 C.3       9 GLL5        0.0000 
     13 CA         40.4650   47.5590   13.6750 C.3       6 GLP5        0.0000 
     14 CA         35.2360   42.1025    7.1065 C.3       3 GLC5        0.0000 
     15 CA         35.2970   44.3110    7.0050 C.3       9 GLL5        0.0000 
     16 CA         35.1750   39.8940    7.2080 C.3       6 GLP5        0.0000 
     17 CA         29.5690   45.1480    8.9495 C.3       3 GLC5        0.0000 
     18 CA         31.2740   44.1780   10.0160 C.3       9 GLL5        0.0000 
     19 CA         27.8640   46.1180    7.8830 C.3       6 GLP5        0.0000 
     20 CA         33.5885   42.4420   10.9135 C.3       3 GLC5        0.0000 
     21 CA         31.5600   42.5270   10.6800 C.3       9 GLL5        0.0000 
     22 CA         29.3875   41.1715   13.3475 C.3       3 GLC5        0.0000 
     23 CA         30.2480   41.9950   11.4510 C.3       9 GLL5        0.0000 
     24 CA         28.5270   40.3480   15.2440 C.3       6 GLP5        0.0000 
     25 CA         29.6540   41.1345   10.0475 C.3       3 GLC5        0.0000 
     26 CA         29.0600   40.2740    8.6440 C.3       6 GLP5        0.0000 
     27 CA         30.4045   43.3235   12.6540 C.3       3 GLC5        0.0000 
     28 CA         30.5610   44.6520   13.8570 C.3       6 GLP5        0.0000 
     29 O          28.0580   42.4265   12.6690 O.2       1 ALC1        0.0000 
     30 O          29.1890   42.9070   11.7490 O.2       7 ALL1        0.0000 
     31 O          26.9270   41.9460   13.5890 O.2       4 ALP1        0.0000 
     32 O          28.7800   44.3560   11.8625 O.2       1 ALC1        0.0000 
     33 O          28.3710   45.8050   11.9760 O.2       4 ALP1        0.0000 
     34 OD1        31.3765   37.2100   12.1915 O.co2     2 ASC3        0.0000 
     35 OD1        30.7570   39.5990   11.9580 O.co2     8 ASL3        0.0000 
     36 OD1        32.3020   35.9600   12.2500 O.co2     5 ASP3        0.0000 
     37 OD1        32.0975   38.0295   12.0815 O.co2     2 ASC3        0.0000 
     38 OD1        33.7440   37.5990   12.0300 O.co2     5 ASP3        0.0000 
     39 O          32.8635   38.7555   11.9150 O.2       1 ALC1        0.0000 
     40 O          31.9830   39.9120   11.8000 O.2       7 ALL1        0.0000 
     41 O          33.7440   37.5990   12.0300 O.2       4 ALP1        0.0000 
     42 O          31.3765   37.2100   12.1915 O.2       1 ALC1        0.0000 
     43 O          30.4510   38.4600   12.1330 O.2       7 ALL1        0.0000 
     44 O          32.3020   35.9600   12.2500 O.2       4 ALP1        0.0000 
     45 O          32.0975   38.0295   12.0815 O.2       1 ALC1        0.0000 
     46 CA         31.9183   47.3065   10.9977 C.3       3 GLC5        0.0000 
     47 CA         33.3970   45.4010   10.6720 C.3       9 GLL5        0.0000 
     48 CA         30.7470   48.9900   10.6530 C.3       6 GLP5        0.0000 
     49 CA         33.3422   46.6445    8.8505 C.3       3 GLC5        0.0000 
     50 CA         34.7180   45.8550   10.4000 C.3       9 GLL5        0.0000 
     51 CA         32.6270   47.6610    7.1650 C.3       6 GLP5        0.0000 
     52 CA         35.8178   44.0440   10.1000 C.3       3 GLC5        0.0000 
     53 CA         35.3200   45.4950    9.2080 C.3       9 GLL5        0.0000 
     54 CA         33.8826   46.1833    7.5226 C.3       3 GLC5        0.0000 
     55 CA         32.8407   46.0565    8.1587 C.3       3 GLC5        0.0000 
     56 CA         33.3580   44.2720    8.5870 C.3       9 GLL5        0.0000 
     57 CA         29.9700   42.4462    9.3810 C.3       3 GLC5        0.0000 
     58 CA         28.5230   41.5400    8.4140 C.3       6 GLP5        0.0000 
     59 CA         30.9890   44.0023   12.1025 C.3       3 GLC5        0.0000 
     60 CA         34.6592   43.5831   10.2165 C.3       3 GLC5        0.0000 
     61 CA         32.7510   44.6320    9.7180 C.3       9 GLL5        0.0000 
@<TRIPOS>BOND
@<TRIPOS>SUBSTRUCTURE
     1 ALC1       29 GROUP        1 X    ALC  0     ROOT ALC X 1
     2 ASC3       34 GROUP        1 X    ASC  0     **** ASC X 3
     3 GLC5        1 GROUP        1 X    GLC  0     **** GLC X 6
     4 ALP1       31 GROUP        1 Y    ALP  0     ROOT ALP Y 8
     5 ASP3       36 GROUP        1 Y    ASP  0     **** ASP Y 10
     6 GLP5        3 GROUP        1 Y    GLP  0     **** GLP Y 13
     7 ALL1       30 GROUP        1 Z    ALL  0     ROOT ALL Z 15
     8 ASL3       35 GROUP        1 Z    ASL  0     **** ASL Z 17
     9 GLL5        2 GROUP        1 Z    GLL  0     **** GLL Z 20
@<TRIPOS>SET

