#    Name: 2anq_C1A_1_ligand
#    Modification time : Mon Mar 24 19:30:55 2014

@<TRIPOS>MOLECULE
2anq_C1A_1_ligand
   49    49     1     0     0
SMALL
NO_CHARGES


@<TRIPOS>ATOM
      1 C1         32.7820   45.8450   12.0130 C.3       1 C1A500      0.0000 
      2 C2         33.3970   45.4010   10.6720 C.ar      1 C1A500      0.0000 
      3 C3         34.7180   45.8550   10.4000 C.ar      1 C1A500      0.0000 
      4 C4         35.3200   45.4950    9.2080 C.ar      1 C1A500      0.0000 
      5 C5         36.7170   45.9670    8.8980 C.3       1 C1A500      0.0000 
      6 S1         37.5310   45.4640   10.4220 S.3       1 C1A500      0.0000 
      7 C6         39.0380   46.0340   10.2360 C.2       1 C1A500      0.0000 
      8 N1         39.2240   47.0180    9.4390 N.pl3     1 C1A500      0.0000 
      9 N2         40.0920   45.4790   11.0110 N.pl3     1 C1A500      0.0000 
     10 C7         41.4000   46.0330   10.8010 C.cat     1 C1A500      0.0000 
     11 N3         42.4710   45.3070   11.0120 N.pl3     1 C1A500      0.0000 
     12 N4         41.5920   47.3190   10.2710 N.pl3     1 C1A500      0.0000 
     13 C8         34.6390   44.7050    8.3030 C.ar      1 C1A500      0.0000 
     14 C9         35.2970   44.3110    7.0050 C.3       1 C1A500      0.0000 
     15 C10        33.3580   44.2720    8.5870 C.ar      1 C1A500      0.0000 
     16 C11        32.7510   44.6320    9.7180 C.ar      1 C1A500      0.0000 
     17 C12        31.2740   44.1780   10.0160 C.3       1 C1A500      0.0000 
     18 S2         31.5600   42.5270   10.6800 S.3       1 C1A500      0.0000 
     19 C13        30.2480   41.9950   11.4510 C.2       1 C1A500      0.0000 
     20 N5         29.1890   42.9070   11.7490 N.pl3     1 C1A500      0.0000 
     21 N6         29.9820   40.6180   11.8860 N.pl3     1 C1A500      0.0000 
     22 C14        30.7570   39.5990   11.9580 C.cat     1 C1A500      0.0000 
     23 N7         31.9830   39.9120   11.8000 N.pl3     1 C1A500      0.0000 
     24 N8         30.4510   38.4600   12.1330 N.pl3     1 C1A500      0.0000 
     25 H          35.1976   46.4356   11.0845 H         1 C1A500      0.0000 
     26 H          36.8303   46.9836    8.9121 H         1 C1A500      0.0000 
     27 H          37.2031   45.4077    8.1928 H         1 C1A500      0.0000 
     28 H          38.4195   47.3363    8.9376 H         1 C1A500      0.0000 
     29 H          40.1564   47.3763    9.3924 H         1 C1A500      0.0000 
     30 H          39.9399   44.7492   11.6628 H         1 C1A500      0.0000 
     31 H          43.3470   45.7483   10.8176 H         1 C1A500      0.0000 
     32 H          42.3139   44.3784   11.3480 H         1 C1A500      0.0000 
     33 H          40.7632   47.8483   10.0894 H         1 C1A500      0.0000 
     34 H          42.5411   47.5957   10.1204 H         1 C1A500      0.0000 
     35 H          32.8775   43.6557    7.8933 H         1 C1A500      0.0000 
     36 H          30.7396   44.0020    9.1671 H         1 C1A500      0.0000 
     37 H          30.8608   44.6797   10.8000 H         1 C1A500      0.0000 
     38 H          29.3320   43.8552   11.4654 H         1 C1A500      0.0000 
     39 H          28.3938   42.5204   12.2161 H         1 C1A500      0.0000 
     40 H          28.9180   40.5049   12.1897 H         1 C1A500      0.0000 
     41 H          32.1693   40.8739   11.5998 H         1 C1A500      0.0000 
     42 H          32.6428   39.1661   11.8912 H         1 C1A500      0.0000 
     43 H          33.3212   45.5263   12.7925 H         1 C1A500      0.0000 
     44 H          32.7248   46.8409   12.0837 H         1 C1A500      0.0000 
     45 H          31.8552   45.4890   12.1325 H         1 C1A500      0.0000 
     46 H          35.5425   45.1097    6.4556 H         1 C1A500      0.0000 
     47 H          36.1372   43.7907    7.1575 H         1 C1A500      0.0000 
     48 H          34.6975   43.7415    6.4426 H         1 C1A500      0.0000 
     49 H          31.3159   37.9581   12.1410 H         1 C1A500      0.0000 
@<TRIPOS>BOND
     1    2    1 1    
     2   43    1 1    
     3   44    1 1    
     4   45    1 1    
     5    3    2 ar   
     6   16    2 ar   
     7    4    3 ar   
     8   25    3 1    
     9    5    4 1    
    10   13    4 ar   
    11    6    5 1    
    12   26    5 1    
    13   27    5 1    
    14    7    6 1    
    15    8    7 2    
    16    9    7 1    
    17   28    8 1    
    18   29    8 1    
    19   10    9 ar   
    20   30    9 1    
    21   11   10 ar   
    22   12   10 ar   
    23   31   11 1    
    24   32   11 1    
    25   33   12 1    
    26   34   12 1    
    27   14   13 1    
    28   15   13 ar   
    29   46   14 1    
    30   47   14 1    
    31   48   14 1    
    32   16   15 ar   
    33   35   15 1    
    34   17   16 1    
    35   18   17 1    
    36   36   17 1    
    37   37   17 1    
    38   19   18 1    
    39   20   19 2    
    40   21   19 1    
    41   38   20 1    
    42   39   20 1    
    43   22   21 ar   
    44   40   21 1    
    45   23   22 ar   
    46   24   22 ar   
    47   41   23 1    
    48   42   23 1    
    49   49   24 1    
@<TRIPOS>SUBSTRUCTURE
     1 C1A500      1 GROUP   
@<TRIPOS>SET

