#    Name: 1z4i_UMP_1_INTS_M
#    Modification time : Mon Apr  7 16:24:42 2014

@<TRIPOS>MOLECULE
1z4i_UMP_1_INTS_M
   55     0    15     0     0
SMALL
NO_CHARGES


@<TRIPOS>ATOM
      1 CA         11.5775   37.9295   26.1540 C.3       5 GLC5        0.0000 
      2 CA          9.7800   38.9990   26.3730 C.3      15 GLL5        0.0000 
      3 CA         13.3750   36.8600   25.9350 C.3      10 GLP5        0.0000 
      4 CA         10.3175   38.1380   24.5230 C.3       5 GLC5        0.0000 
      5 CA         10.8550   37.2770   22.6730 C.3      10 GLP5        0.0000 
      6 CA          8.0865   38.2735   27.5835 C.3       5 GLC5        0.0000 
      7 CA          6.3930   37.5480   28.7940 C.3      10 GLP5        0.0000 
      8 CA          7.8425   40.0470   25.9515 C.3       5 GLC5        0.0000 
      9 CA          5.9050   41.0950   25.5300 C.3      10 GLP5        0.0000 
     10 CA          9.6965   41.0255   28.0835 C.3       5 GLC5        0.0000 
     11 CA         10.8120   39.8800   26.7080 C.3      15 GLL5        0.0000 
     12 CA          8.5810   42.1710   29.4590 C.3      10 GLP5        0.0000 
     13 CA         12.3280   38.6495   26.9120 C.3       5 GLC5        0.0000 
     14 CA         13.8440   37.4190   27.1160 C.3      10 GLP5        0.0000 
     15 N           6.7700   37.8060   24.6055 N.am      2 SEC2        0.0000 
     16 N           8.2880   38.3440   24.7140 N.am     12 SEL2        0.0000 
     17 N           5.2520   37.2680   24.4970 N.am      7 SEP2        0.0000 
     18 CA         10.7160   42.9110   28.6305 C.3       5 GLC5        0.0000 
     19 CA         11.9900   42.7360   27.2130 C.3      15 GLL5        0.0000 
     20 CA          9.4420   43.0860   30.0480 C.3      10 GLP5        0.0000 
     21 CA         11.5650   44.7280   28.0125 C.3       5 GLC5        0.0000 
     22 CA         11.1400   46.7200   28.8120 C.3      10 GLP5        0.0000 
     23 CA         12.5030   44.7550   28.8700 C.3       5 GLC5        0.0000 
     24 CA         13.3600   43.1450   27.6800 C.3      15 GLL5        0.0000 
     25 CA         11.6460   46.3650   30.0600 C.3      10 GLP5        0.0000 
     26 O          15.1905   44.3160   27.0205 O.2       1 ALC1        0.0000 
     27 O          13.8100   44.3460   27.0810 O.2      11 ALL1        0.0000 
     28 O          16.5710   44.2860   26.9600 O.2       6 ALP1        0.0000 
     29 CA         14.1925   41.5790   30.4495 C.3       5 GLC5        0.0000 
     30 CA         14.6320   41.2130   28.5140 C.3      15 GLL5        0.0000 
     31 CA         13.7530   41.9450   32.3850 C.3      10 GLP5        0.0000 
     32 CA         14.2380   39.3160   27.8150 C.3       5 GLC5        0.0000 
     33 N          14.7195   43.0495   30.2165 N.am      2 SEC2        0.0000 
     34 N          15.2890   42.1550   29.3310 N.am     12 SEL2        0.0000 
     35 N          14.1500   43.9440   31.1020 N.am      7 SEP2        0.0000 
     36 N          18.3610   40.6885   30.5195 N.am      2 SEC2        0.0000 
     37 N          17.6110   41.2640   29.4190 N.am     12 SEL2        0.0000 
     38 N          19.1110   40.1130   31.6200 N.am      7 SEP2        0.0000 
     39 N          18.3750   42.3830   28.7260 N.am      2 SEC2        0.0000 
     40 N          19.1390   43.5020   28.0330 N.am      7 SEP2        0.0000 
     41 NZ         16.2360   44.3920   31.1955 N.4       3 LYC4        0.0000 
     42 NZ         16.7770   42.7190   31.2840 N.4      13 LYL4        0.0000 
     43 NZ         15.6950   46.0650   31.1070 N.4       8 LYP4        0.0000 
     44 N          16.2600   42.4390   32.5245 N.am      2 SEC2        0.0000 
     45 N          16.7770   42.7190   31.2840 N.am     12 SEL2        0.0000 
     46 N          15.7430   42.1590   33.7650 N.am      7 SEP2        0.0000 
     47 N          17.4590   43.8085   30.9785 N.am      2 SEC2        0.0000 
     48 N          18.1410   44.8980   30.6730 N.am      7 SEP2        0.0000 
     49 Zn         15.9325   39.3315   31.4400 Zn        4 ZIC7        0.0000 
     50 Zn         15.9720   40.2750   30.9470 Zn       14 ZIL7        0.0000 
     51 Zn         15.8930   38.3880   31.9330 Zn        9 ZIP7        0.0000 
     52 N          17.5415   40.1940   31.2835 N.am      2 SEC2        0.0000 
     53 N          15.9720   40.2750   30.9470 N.am     12 SEL2        0.0000 
     54 CA         12.1905   44.0701   26.0561 C.3       5 GLC5        0.0000 
     55 CA         11.6270   45.4380   24.9530 C.3      10 GLP5        0.0000 
@<TRIPOS>BOND
@<TRIPOS>SUBSTRUCTURE
     1 ALC1       26 GROUP        1 X    ALC  0     ROOT ALC X 1
     2 SEC2       15 GROUP        1 X    SEC  0     **** SEC X 2
     3 LYC4       41 GROUP        1 X    LYC  0     **** LYC X 4
     4 ZIC7       49 GROUP        1 X    ZIC  0     **** ZIC X 5
     5 GLC5        1 GROUP        1 X    GLC  0     **** GLC X 6
     6 ALP1       28 GROUP        1 Y    ALP  0     ROOT ALP Y 8
     7 SEP2       17 GROUP        1 Y    SEP  0     **** SEP Y 9
     8 LYP4       43 GROUP        1 Y    LYP  0     **** LYP Y 11
     9 ZIP7       51 GROUP        1 Y    ZIP  0     **** ZIP Y 12
    10 GLP5        3 GROUP        1 Y    GLP  0     **** GLP Y 13
    11 ALL1       27 GROUP        1 Z    ALL  0     ROOT ALL Z 15
    12 SEL2       16 GROUP        1 Z    SEL  0     **** SEL Z 16
    13 LYL4       42 GROUP        1 Z    LYL  0     **** LYL Z 18
    14 ZIL7       50 GROUP        1 Z    ZIL  0     **** ZIL Z 19
    15 GLL5        2 GROUP        1 Z    GLL  0     **** GLL Z 20
@<TRIPOS>SET

