#    Name: 1z4i_UMP_1_ligand
#    Modification time : Mon Apr  7 16:24:42 2014

@<TRIPOS>MOLECULE
1z4i_UMP_1_ligand
   31    32     1     0     0
SMALL
NO_CHARGES


@<TRIPOS>ATOM
      1 N1         11.2200   40.8310   25.7820 N.am      1 UMP1001     0.0000 
      2 C2         10.6440   40.8780   24.5160 C.2       1 UMP1001     0.0000 
      3 N3          9.6470   40.0020   24.1840 N.am      1 UMP1001     0.0000 
      4 C4          9.1980   39.0830   25.0950 C.2       1 UMP1001     0.0000 
      5 C5          9.7800   38.9990   26.3730 C.2       1 UMP1001     0.0000 
      6 C6         10.8120   39.8800   26.7080 C.2       1 UMP1001     0.0000 
      7 O2         10.9900   41.7050   23.6700 O.2       1 UMP1001     0.0000 
      8 O4          8.2880   38.3440   24.7140 O.2       1 UMP1001     0.0000 
      9 C1'        12.3060   41.7830   26.0640 C.3       1 UMP1001     0.0000 
     10 C2'        11.9900   42.7360   27.2130 C.3       1 UMP1001     0.0000 
     11 C3'        13.3600   43.1450   27.6800 C.3       1 UMP1001     0.0000 
     12 C4'        14.2230   41.9520   27.2660 C.3       1 UMP1001     0.0000 
     13 O3'        13.8100   44.3460   27.0810 O.3       1 UMP1001     0.0000 
     14 O4'        13.4710   41.0900   26.4210 O.3       1 UMP1001     0.0000 
     15 C5'        14.6320   41.2130   28.5140 C.3       1 UMP1001     0.0000 
     16 O5'        15.2890   42.1550   29.3310 O.3       1 UMP1001     0.0000 
     17 P          16.4590   41.5940   30.2850 P.3       1 UMP1001     0.0000 
     18 OP1        17.6110   41.2640   29.4190 O.co2     1 UMP1001     0.0000 
     19 OP2        16.7770   42.7190   31.2840 O.co2     1 UMP1001     0.0000 
     20 OP3        15.9720   40.2750   30.9470 O.co2     1 UMP1001     0.0000 
     21 H           9.2270   40.0334   23.2344 H         1 UMP1001     0.0000 
     22 H           9.4513   38.3052   27.0411 H         1 UMP1001     0.0000 
     23 H          11.2589   39.8217   27.6255 H         1 UMP1001     0.0000 
     24 H          12.4921   42.3970   25.1815 H         1 UMP1001     0.0000 
     25 H          11.4795   42.2124   27.9776 H         1 UMP1001     0.0000 
     26 H          11.4598   43.5736   26.8432 H         1 UMP1001     0.0000 
     27 H          13.3535   43.1716   28.7508 H         1 UMP1001     0.0000 
     28 H          15.1005   42.3273   26.7817 H         1 UMP1001     0.0000 
     29 H          15.2828   40.3921   28.2264 H         1 UMP1001     0.0000 
     30 H          13.7370   40.8141   28.9829 H         1 UMP1001     0.0000 
     31 H          14.8077   44.2782   27.0833 H         1 UMP1001     0.0000 
@<TRIPOS>BOND
     1    2    1 1    
     2    6    1 1    
     3    9    1 1    
     4    3    2 1    
     5    7    2 2    
     6    4    3 1    
     7   21    3 1    
     8    5    4 1    
     9    8    4 2    
    10    6    5 2    
    11   22    5 1    
    12   23    6 1    
    13   10    9 1    
    14   14    9 1    
    15   24    9 1    
    16   11   10 1    
    17   25   10 1    
    18   26   10 1    
    19   12   11 1    
    20   13   11 1    
    21   27   11 1    
    22   14   12 1    
    23   15   12 1    
    24   28   12 1    
    25   31   13 1    
    26   16   15 1    
    27   29   15 1    
    28   30   15 1    
    29   17   16 1    
    30   18   17 ar   
    31   19   17 ar   
    32   20   17 ar   
@<TRIPOS>SUBSTRUCTURE
     1 UMP1001     1 GROUP   
@<TRIPOS>SET

