#    Name: 3cde_N3H_2_INTS_M
#    Modification time : Mon Mar 24 20:58:04 2014

@<TRIPOS>MOLECULE
3cde_N3H_2_INTS_M
   66     0     9     0     0
SMALL
NO_CHARGES


@<TRIPOS>ATOM
      1 CA         54.5285   -6.3170   46.2925 C.3       3 GLC5        0.0000 
      2 CA         53.4780   -7.8670   46.8260 C.3       9 GLL5        0.0000 
      3 CA         55.5790   -4.7670   45.7590 C.3       6 GLP5        0.0000 
      4 CA         52.8140   -5.3740   52.3940 C.3       3 GLC5        0.0000 
      5 CA         53.1540   -7.3280   53.3850 C.3       9 GLL5        0.0000 
      6 CA         52.4740   -3.4200   51.4030 C.3       6 GLP5        0.0000 
      7 CA         46.6280   -8.2395   57.1985 C.3       3 GLC5        0.0000 
      8 CA         47.7740   -8.7270   55.7090 C.3       9 GLL5        0.0000 
      9 CA         45.4820   -7.7520   58.6880 C.3       6 GLP5        0.0000 
     10 CA         46.3400   -9.8855   54.9690 C.3       3 GLC5        0.0000 
     11 CA         44.9060  -11.0440   54.2290 C.3       6 GLP5        0.0000 
     12 CA         47.9055   -7.0435   54.4485 C.3       3 GLC5        0.0000 
     13 CA         48.0370   -5.3600   53.1880 C.3       6 GLP5        0.0000 
     14 CA         51.6055  -11.3030   56.6680 C.3       3 GLC5        0.0000 
     15 CA         51.0130  -10.7590   54.6410 C.3       9 GLL5        0.0000 
     16 CA         52.1980  -11.8470   58.6950 C.3       6 GLP5        0.0000 
     17 CA         49.2640   -7.5320   54.3135 C.3       3 GLC5        0.0000 
     18 CA         49.2420   -9.1640   55.7210 C.3       9 GLL5        0.0000 
     19 CA         49.2860   -5.9000   52.9060 C.3       6 GLP5        0.0000 
     20 N          53.2365   -8.4795   40.9860 N.am      2 SEC2        0.0000 
     21 N          52.9490   -8.4040   42.3370 N.am      8 SEL2        0.0000 
     22 N          53.5240   -8.5550   39.6350 N.am      5 SEP2        0.0000 
     23 N          51.7060   -9.5490   42.4540 N.am      2 SEC2        0.0000 
     24 N          50.4630  -10.6940   42.5710 N.am      5 SEP2        0.0000 
     25 CA         55.4285   -6.4395   41.8570 C.3       3 GLC5        0.0000 
     26 CA         55.1800   -7.7520   43.4910 C.3       9 GLL5        0.0000 
     27 CA         55.6770   -5.1270   40.2230 C.3       6 GLP5        0.0000 
     28 CA         55.3795   -6.2595   44.6250 C.3       3 GLC5        0.0000 
     29 O          52.9775  -10.4990   44.2990 O.2       1 ALC1        0.0000 
     30 O          53.3020   -9.2310   44.7640 O.2       7 ALL1        0.0000 
     31 O          52.6530  -11.7670   43.8340 O.2       4 ALP1        0.0000 
     32 CA         50.2090  -10.5710   49.1620 C.3       3 GLC5        0.0000 
     33 CA         51.6770   -9.6030   48.1010 C.3       9 GLL5        0.0000 
     34 CA         48.7410  -11.5390   50.2230 C.3       6 GLP5        0.0000 
     35 N          53.3375   -4.6690   52.9505 N.am      2 SEC2        0.0000 
     36 N          53.6650   -6.0720   53.1430 N.am      8 SEL2        0.0000 
     37 N          53.0100   -3.2660   52.7580 N.am      5 SEP2        0.0000 
     38 CA         48.6230   -8.1140   58.2845 C.3       3 GLC5        0.0000 
     39 CA         49.6880   -9.4040   57.1710 C.3       9 GLL5        0.0000 
     40 CA         47.5580   -6.8240   59.3980 C.3       6 GLP5        0.0000 
     41 CA         48.3885  -10.6065   57.4120 C.3       3 GLC5        0.0000 
     42 CA         47.0890  -11.8090   57.6530 C.3       6 GLP5        0.0000 
     43 CA         50.9430  -10.6255   57.9330 C.3       3 GLC5        0.0000 
     44 CA         54.2650   -3.9255   55.2135 C.3       3 GLC5        0.0000 
     45 CA         54.6300   -5.7390   55.7320 C.3       9 GLL5        0.0000 
     46 CA         53.9000   -2.1120   54.6950 C.3       6 GLP5        0.0000 
     47 CA         55.8475   -7.5150   59.6490 C.3       3 GLC5        0.0000 
     48 CA         55.3740   -7.1870   57.7270 C.3       9 GLL5        0.0000 
     49 CA         56.3210   -7.8430   61.5710 C.3       6 GLP5        0.0000 
     50 CA         56.1788   -5.4257   58.8702 C.3       3 GLC5        0.0000 
     51 CA         56.9140   -4.2980   60.2800 C.3       6 GLP5        0.0000 
     52 CA         49.8268  -11.5488   53.1792 C.3       3 GLC5        0.0000 
     53 CA         49.5340  -10.4180   54.8580 C.3       9 GLL5        0.0000 
     54 CA         49.3800  -12.5090   51.6090 C.3       6 GLP5        0.0000 
     55 CA         49.8328  -12.6057   55.4942 C.3       3 GLC5        0.0000 
     56 CA         49.3920  -14.6230   56.2390 C.3       6 GLP5        0.0000 
     57 CA         49.7987   -9.5815   47.5183 C.3       3 GLC5        0.0000 
     58 CA         47.7360   -9.4500   47.6010 C.3       6 GLP5        0.0000 
     59 CA         50.6558  -11.4475   47.0213 C.3       3 GLC5        0.0000 
     60 CA         49.4500  -13.1820   46.6070 C.3       6 GLP5        0.0000 
     61 CA         48.0550  -10.7454   56.4697 C.3       3 GLC5        0.0000 
     62 CA         49.7410   -7.4504   56.5470 C.3       3 GLC5        0.0000 
     63 CA         50.3840   -5.7260   56.6510 C.3       6 GLP5        0.0000 
     64 CA         53.5796   -6.2434   57.7387 C.3       3 GLC5        0.0000 
     65 CA         54.5340   -8.0110   56.9250 C.3       9 GLL5        0.0000 
     66 CA         52.2070   -5.8550   58.7220 C.3       6 GLP5        0.0000 
@<TRIPOS>BOND
@<TRIPOS>SUBSTRUCTURE
     1 ALC1       29 GROUP        1 X    ALC  0     ROOT ALC X 1
     2 SEC2       20 GROUP        1 X    SEC  0     **** SEC X 2
     3 GLC5        1 GROUP        1 X    GLC  0     **** GLC X 6
     4 ALP1       31 GROUP        1 Y    ALP  0     ROOT ALP Y 8
     5 SEP2       22 GROUP        1 Y    SEP  0     **** SEP Y 9
     6 GLP5        3 GROUP        1 Y    GLP  0     **** GLP Y 13
     7 ALL1       30 GROUP        1 Z    ALL  0     ROOT ALL Z 15
     8 SEL2       21 GROUP        1 Z    SEL  0     **** SEL Z 16
     9 GLL5        2 GROUP        1 Z    GLL  0     **** GLL Z 20
@<TRIPOS>SET

