#    Name: 3cde_N3H_2_ligand
#    Modification time : Mon Mar 24 20:58:05 2014

@<TRIPOS>MOLECULE
3cde_N3H_2_ligand
   58    61     1     0     0
SMALL
NO_CHARGES


@<TRIPOS>ATOM
      1 C4         54.5340   -8.0110   56.9250 C.2       1 N3H579      0.0000 
      2 C5         53.4780   -7.8670   46.8260 C.ar      1 N3H579      0.0000 
      3 C6         55.5130   -5.9200   57.1940 C.2       1 N3H579      0.0000 
      4 C7         52.1950   -8.5020   48.8130 C.ar      1 N3H579      0.0000 
      5 C8         52.9430   -8.9590   46.1270 C.ar      1 N3H579      0.0000 
      6 C10        54.0490   -7.3510   55.8130 C.2       1 N3H579      0.0000 
      7 C13        53.1540   -7.3280   53.3850 C.2       1 N3H579      0.0000 
      8 C15        51.6550   -9.1940   52.8500 C.2       1 N3H579      0.0000 
      9 C17        47.7740   -8.7270   55.7090 C.3       1 N3H579      0.0000 
     10 C20        51.0130  -10.7590   54.6410 C.3       1 N3H579      0.0000 
     11 C21        49.2420   -9.1640   55.7210 C.3       1 N3H579      0.0000 
     12 O31        52.8450   -6.7290   44.2150 O.2       1 N3H579      0.0000 
     13 S35        53.4180   -7.9350   43.6300 S.o2      1 N3H579      0.0000 
     14 O30        52.9490   -8.4040   42.3370 O.2       1 N3H579      0.0000 
     15 C18        55.1800   -7.7520   43.4910 C.3       1 N3H579      0.0000 
     16 N26        53.3020   -9.2310   44.7640 N.pl3     1 N3H579      0.0000 
     17 C3         52.0460   -9.8230   46.7700 C.ar      1 N3H579      0.0000 
     18 C9         53.0920   -7.6520   48.1620 C.ar      1 N3H579      0.0000 
     19 S34        53.7140   -6.2720   49.0720 S.o2      1 N3H579      0.0000 
     20 O28        55.1240   -6.1660   48.7870 O.2       1 N3H579      0.0000 
     21 O29        52.7910   -5.1780   48.8400 O.2       1 N3H579      0.0000 
     22 N24        53.5250   -6.7580   50.6770 N.pl3     1 N3H579      0.0000 
     23 C14        52.5600   -7.7350   51.0080 C.2       1 N3H579      0.0000 
     24 N22        51.7900   -8.3240   50.1480 N.2       1 N3H579      0.0000 
     25 C2         51.6770   -9.6030   48.1010 C.ar      1 N3H579      0.0000 
     26 C12        52.4950   -8.0380   52.4440 C.2       1 N3H579      0.0000 
     27 O32        53.6650   -6.0720   53.1430 O.3       1 N3H579      0.0000 
     28 O27        51.0190   -9.8170   52.0010 O.2       1 N3H579      0.0000 
     29 N25        51.7380   -9.5980   54.1670 N.am      1 N3H579      0.0000 
     30 C19        49.5340  -10.4180   54.8580 C.3       1 N3H579      0.0000 
     31 C16        49.6880   -9.4040   57.1710 C.3       1 N3H579      0.0000 
     32 N23        52.5230   -8.9830   55.0950 N.2       1 N3H579      0.0000 
     33 C11        53.2010   -7.9230   54.7580 C.2       1 N3H579      0.0000 
     34 S33        54.6300   -5.7390   55.7320 S.3       1 N3H579      0.0000 
     35 C1         55.3740   -7.1870   57.7270 C.2       1 N3H579      0.0000 
     36 H          54.3369   -8.9358   57.1548 H         1 N3H579      0.0000 
     37 H          54.1373   -7.2368   46.3744 H         1 N3H579      0.0000 
     38 H          55.9734   -5.1590   57.4523 H         1 N3H579      0.0000 
     39 H          51.4185  -11.1198   55.5935 H         1 N3H579      0.0000 
     40 H          51.0661  -11.5830   53.9199 H         1 N3H579      0.0000 
     41 H          49.8478   -8.3390   55.3316 H         1 N3H579      0.0000 
     42 H          53.5020  -10.0927   44.3607 H         1 N3H579      0.0000 
     43 H          51.6563  -10.6257   46.2573 H         1 N3H579      0.0000 
     44 H          54.1379   -6.2946   51.2881 H         1 N3H579      0.0000 
     45 H          51.0248  -10.2448   48.5670 H         1 N3H579      0.0000 
     46 H          49.0303  -11.2874   55.3278 H         1 N3H579      0.0000 
     47 H          49.0487  -10.2800   53.8702 H         1 N3H579      0.0000 
     48 H          55.7880   -7.4988   58.5449 H         1 N3H579      0.0000 
     49 H          47.6223   -7.9192   56.2786 H         1 N3H579      0.0000 
     50 H          47.4622   -8.4981   54.7868 H         1 N3H579      0.0000 
     51 H          47.1697   -9.4458   56.0528 H         1 N3H579      0.0000 
     52 H          55.6090   -7.5998   44.3814 H         1 N3H579      0.0000 
     53 H          55.6076   -8.5644   43.0946 H         1 N3H579      0.0000 
     54 H          55.4282   -6.9770   42.9098 H         1 N3H579      0.0000 
     55 H          50.6444   -9.6914   57.2226 H         1 N3H579      0.0000 
     56 H          49.5995   -8.5784   57.7283 H         1 N3H579      0.0000 
     57 H          49.1436  -10.1163   57.6139 H         1 N3H579      0.0000 
     58 H          54.6512   -6.1628   53.2818 H         1 N3H579      0.0000 
@<TRIPOS>BOND
     1    6    1 2    
     2   35    1 1    
     3   36    1 1    
     4    5    2 ar   
     5   18    2 ar   
     6   37    2 1    
     7   34    3 1    
     8   35    3 2    
     9   38    3 1    
    10   18    4 ar   
    11   24    4 1    
    12   25    4 ar   
    13   16    5 1    
    14   17    5 ar   
    15   33    6 1    
    16   34    6 1    
    17   26    7 2    
    18   27    7 1    
    19   33    7 1    
    20   26    8 1    
    21   28    8 2    
    22   29    8 am   
    23   11    9 1    
    24   49    9 1    
    25   50    9 1    
    26   51    9 1    
    27   29   10 1    
    28   30   10 1    
    29   39   10 1    
    30   40   10 1    
    31   30   11 1    
    32   31   11 1    
    33   41   11 1    
    34   13   12 2    
    35   14   13 2    
    36   15   13 1    
    37   16   13 1    
    38   52   15 1    
    39   53   15 1    
    40   54   15 1    
    41   42   16 1    
    42   25   17 ar   
    43   43   17 1    
    44   19   18 1    
    45   20   19 2    
    46   21   19 2    
    47   22   19 1    
    48   23   22 1    
    49   44   22 1    
    50   24   23 2    
    51   26   23 1    
    52   45   25 1    
    53   58   27 1    
    54   32   29 1    
    55   46   30 1    
    56   47   30 1    
    57   55   31 1    
    58   56   31 1    
    59   57   31 1    
    60   33   32 2    
    61   48   35 1    
@<TRIPOS>SUBSTRUCTURE
     1 N3H579      1 GROUP   
@<TRIPOS>SET

