#    Name: 4FPT_1_CAVITY_N1_6.mol2
#    Modification time : Mon Mar 10 20:43:36 2014

@<TRIPOS>MOLECULE
4FPT_1_CAVITY_N1_6.mol2
   78     0     6     0     0
SMALL
NO_CHARGES


@<TRIPOS>ATOM
      1 CA         20.2214    8.5910   14.7728 C.3       5 GLY6        0.0000 
      2 CZ         19.1909    9.5281   14.2160 C.ar      4 PHE5        0.0000 
      3 CZ         18.1605   10.4651   13.6591 C.ar      4 PHE5        0.0000 
      4 N          21.8500    6.6662   12.5609 N.2       2 ALA2        0.0000 
      5 CA         17.8437    8.9599   15.7529 C.3       5 GLY6        0.0000 
      6 CA         19.1732    7.5289   14.9253 C.3       5 GLY6        0.0000 
      7 CZ         18.1428    8.4660   14.3685 C.ar      4 PHE5        0.0000 
      8 CA         19.4723    7.0350   13.5409 C.3       5 GLY6        0.0000 
      9 DU         18.4418    7.9720   12.9840 H         6 CUB7        0.0000 
     10 CZ         17.4113    8.9091   12.4272 C.ar      4 PHE5        0.0000 
     11 DU         19.7713    6.5411   12.1565 H         6 CUB7        0.0000 
     12 DU         17.7104    8.4152   11.0427 H         6 CUB7        0.0000 
     13 N          21.1008    5.1102   11.3289 N.2       2 ALA2        0.0000 
     14 DU         20.0704    6.0472   10.7721 H         6 CUB7        0.0000 
     15 DU         19.0399    6.9842   10.2152 H         6 CUB7        0.0000 
     16 CA         16.7955    7.8978   15.9054 C.3       5 GLY6        0.0000 
     17 CA         18.1250    6.4668   15.0778 C.3       5 GLY6        0.0000 
     18 CZ         17.0946    7.4039   14.5210 C.ar      4 PHE5        0.0000 
     19 CZ         16.0641    8.3409   13.9641 C.ar      4 PHE5        0.0000 
     20 OG         18.4241    5.9729   13.6934 O.2       1 SER1        0.0000 
     21 DU         17.3936    6.9099   13.1365 H         6 CUB7        0.0000 
     22 CZ         16.3631    7.8470   12.5797 C.ar      4 PHE5        0.0000 
     23 CZ         15.3327    8.7840   12.0228 C.ar      4 PHE5        0.0000 
     24 OG         18.7231    5.4790   12.3090 O.2       1 SER1        0.0000 
     25 DU         17.6927    6.4160   11.7521 H         6 CUB7        0.0000 
     26 O          16.6622    7.3531   11.1952 O.2       2 ALA2        0.0000 
     27 OG         20.0527    4.0481   11.4814 O.2       1 SER1        0.0000 
     28 DU         19.0222    4.9851   10.9246 H         6 CUB7        0.0000 
     29 DU         17.9917    5.9221   10.3677 H         6 CUB7        0.0000 
     30 N          16.9612    6.8592    9.8108 N.2       2 ALA2        0.0000 
     31 CA         20.3517    3.5542   10.0970 C.3       5 GLY6        0.0000 
     32 O          19.3212    4.4912    9.5401 O.2       2 ALA2        0.0000 
     33 CA         15.7473    6.8357   16.0579 C.3       5 GLY6        0.0000 
     34 CZ         14.7169    7.7727   15.5010 C.ar      4 PHE5        0.0000 
     35 OG         18.1073    4.4677   15.7872 O.2       1 SER1        0.0000 
     36 CA         17.0769    5.4047   15.2303 C.3       5 GLY6        0.0000 
     37 CA         16.0464    6.3417   14.6735 C.3       5 GLY6        0.0000 
     38 O          15.0159    7.2788   14.1166 O.2       2 ALA2        0.0000 
     39 CZ         13.9854    8.2158   13.5597 C.ar      4 PHE5        0.0000 
     40 OG         17.3759    4.9108   13.8459 O.2       1 SER1        0.0000 
     41 O          16.3454    5.8478   13.2890 O.2       2 ALA2        0.0000 
     42 OG         17.6750    4.4169   12.4615 O.2       1 SER1        0.0000 
     43 O          16.6445    5.3539   11.9046 O.2       2 ALA2        0.0000 
     44 CA         20.0350    2.0490   12.1908 C.3       5 GLY6        0.0000 
     45 OG         19.0045    2.9860   11.6339 O.2       1 SER1        0.0000 
     46 O          17.9740    3.9230   11.0771 O.2       2 ALA2        0.0000 
     47 N          16.9435    4.8600   10.5202 N.2       2 ALA2        0.0000 
     48 CA         19.3035    2.4921   10.2495 C.3       5 GLY6        0.0000 
     49 CA         16.7601    3.8995   17.3241 C.3       5 GLY6        0.0000 
     50 CA         15.7296    4.8365   16.7673 C.3       5 GLY6        0.0000 
     51 CA         14.6992    5.7736   16.2104 C.3       5 GLY6        0.0000 
     52 OG         17.0592    3.4056   15.9397 O.2       1 SER1        0.0000 
     53 CA         16.0287    4.3426   15.3828 C.3       5 GLY6        0.0000 
     54 O          14.9982    5.2796   14.8260 O.2       2 ALA2        0.0000 
     55 O          13.9677    6.2167   14.2691 O.2       2 ALA2        0.0000 
     56 OG         17.3582    2.9117   14.5553 O.2       1 SER1        0.0000 
     57 OG         16.3277    3.8487   13.9984 O.2       1 SER1        0.0000 
     58 O          15.2973    4.7857   13.4415 O.2       2 ALA2        0.0000 
     59 OG         17.6573    2.4178   13.1709 O.2       1 SER1        0.0000 
     60 OG         16.6268    3.3548   12.6140 O.2       1 SER1        0.0000 
     61 O          15.5963    4.2918   12.0571 O.2       2 ALA2        0.0000 
     62 CA         17.9563    1.9239   11.7864 C.3       5 GLY6        0.0000 
     63 O          16.9258    2.8609   11.2296 O.2       2 ALA2        0.0000 
     64 N          15.8953    3.7979   10.6727 N.2       2 ALA2        0.0000 
     65 CA         18.2553    1.4300   10.4020 C.3       5 GLY6        0.0000 
     66 O          17.2249    2.3670    9.8451 O.2       2 ALA2        0.0000 
     67 O          15.7119    2.8374   17.4766 O.2       2 ALA2        0.0000 
     68 CA         14.6815    3.7744   16.9198 C.3       5 GLY6        0.0000 
     69 CA         13.6510    4.7115   16.3629 C.3       5 GLY6        0.0000 
     70 OD1        16.0110    2.3435   16.0922 O.3       3 ASP3        0.0000 
     71 N          14.9805    3.2805   15.5353 N.2       2 ALA2        0.0000 
     72 CA         13.9500    4.2175   14.9785 C.3       5 GLY6        0.0000 
     73 OD1        16.3100    1.8496   14.7078 O.3       3 ASP3        0.0000 
     74 N          16.6091    1.3557   13.3234 N.2       2 ALA2        0.0000 
     75 CA         17.9386   -0.0752   12.4958 C.3       5 GLY6        0.0000 
     76 CA         16.9081    0.8618   11.9389 C.3       5 GLY6        0.0000 
     77 CA         15.8776    1.7988   11.3821 C.3       5 GLY6        0.0000 
     78 CA         17.2072    0.3679   10.5545 C.3       5 GLY6        0.0000 
@<TRIPOS>BOND
@<TRIPOS>SUBSTRUCTURE
     1 SER1       20 GROUP   
     2 ALA2        4 GROUP   
     3 ASP3       70 GROUP   
     4 PHE5        2 GROUP   
     5 GLY6        1 GROUP   
     6 CUB7        9 GROUP   
@<TRIPOS>SET

