#    Name: 4fpt_0VZ_1_INTS_M
#    Modification time : Mon Mar 24 20:32:30 2014

@<TRIPOS>MOLECULE
4fpt_0VZ_1_INTS_M
   36     0    12     0     0
SMALL
NO_CHARGES


@<TRIPOS>ATOM
      1 CA         19.0515   11.6940   16.3520 C.3       4 GLC5        0.0000 
      2 CA         19.4530    9.9560   15.0780 C.3      12 GLL5        0.0000 
      3 CA         18.6500   13.4320   17.6260 C.3       8 GLP5        0.0000 
      4 CA         19.2720    8.6040   16.4780 C.3       4 GLC5        0.0000 
      5 CA         19.0910    7.2520   17.8780 C.3       8 GLP5        0.0000 
      6 CA         20.3535   10.4220   17.0535 C.3       4 GLC5        0.0000 
      7 CA         21.2540   10.8880   19.0290 C.3       8 GLP5        0.0000 
      8 CA         13.2170    5.0400   15.0750 C.3       4 GLC5        0.0000 
      9 CA         15.1200    5.2350   15.1350 C.3      12 GLL5        0.0000 
     10 CA         11.3140    4.8450   15.0150 C.3       8 GLP5        0.0000 
     11 Zn         15.6285    1.5905   15.7180 Zn        3 ZIC7        0.0000 
     12 Zn         16.8280    3.2560   16.0910 Zn       11 ZIL7        0.0000 
     13 Zn         14.4290   -0.0750   15.3450 Zn        7 ZIP7        0.0000 
     14 O          18.8225    4.0845   14.8085 O.2       1 ALC1        0.0000 
     15 O          17.7130    5.0510   14.9480 O.2       9 ALL1        0.0000 
     16 O          19.9320    3.1180   14.6690 O.2       5 ALP1        0.0000 
     17 CA         18.2220    6.7050   15.9695 C.3       4 GLC5        0.0000 
     18 CA         17.3530    6.1580   14.0610 C.3      12 GLL5        0.0000 
     19 CA         15.6945    8.7050   14.6700 C.3       4 GLC5        0.0000 
     20 CA         16.0380    6.7040   14.5840 C.3      12 GLL5        0.0000 
     21 CA         15.3510   10.7060   14.7560 C.3       8 GLP5        0.0000 
     22 O          16.6870    0.1345   16.9430 O.2       1 ALC1        0.0000 
     23 O          15.8230    0.9370   16.1630 O.2       9 ALL1        0.0000 
     24 O          17.5510   -0.6680   17.7230 O.2       5 ALP1        0.0000 
     25 Zn         15.1260    0.4310   15.7540 Zn        3 ZIC7        0.0000 
     26 Zn         15.8230    0.9370   16.1630 Zn       11 ZIL7        0.0000 
     27 N          17.0955    2.1110   18.6820 N.am      2 SEC2        0.0000 
     28 N          15.8100    2.4500   18.1540 N.am     10 SEL2        0.0000 
     29 N          18.3810    1.7720   19.2100 N.am      6 SEP2        0.0000 
     30 CA         17.6497   10.6988   14.2733 C.3       4 GLC5        0.0000 
     31 CA         15.9920   11.7390   14.1530 C.3       8 GLP5        0.0000 
     32 CA         20.9582    8.5768   15.0222 C.3       4 GLC5        0.0000 
     33 CA         19.1620    9.3610   13.7090 C.3      12 GLL5        0.0000 
     34 CA         22.6090    7.4950   15.6510 C.3       8 GLP5        0.0000 
     35 CA         16.1825    6.2127   16.6842 C.3       4 GLC5        0.0000 
     36 CA         16.7860    6.4560   18.5090 C.3       8 GLP5        0.0000 
@<TRIPOS>BOND
@<TRIPOS>SUBSTRUCTURE
     1 ALC1       14 GROUP        1 X    ALC  0     ROOT ALC X 1
     2 SEC2       27 GROUP        1 X    SEC  0     **** SEC X 2
     3 ZIC7       11 GROUP        1 X    ZIC  0     **** ZIC X 5
     4 GLC5        1 GROUP        1 X    GLC  0     **** GLC X 6
     5 ALP1       16 GROUP        1 Y    ALP  0     ROOT ALP Y 8
     6 SEP2       29 GROUP        1 Y    SEP  0     **** SEP Y 9
     7 ZIP7       13 GROUP        1 Y    ZIP  0     **** ZIP Y 12
     8 GLP5        3 GROUP        1 Y    GLP  0     **** GLP Y 13
     9 ALL1       15 GROUP        1 Z    ALL  0     ROOT ALL Z 15
    10 SEL2       28 GROUP        1 Z    SEL  0     **** SEL Z 16
    11 ZIL7       12 GROUP        1 Z    ZIL  0     **** ZIL Z 19
    12 GLL5        2 GROUP        1 Z    GLL  0     **** GLL Z 20
@<TRIPOS>SET

