#    Name: 4fpt_0VZ_1_ligand
#    Modification time : Mon Mar 24 20:32:30 2014

@<TRIPOS>MOLECULE
4fpt_0VZ_1_ligand
   25    25     1     0     0
SMALL
NO_CHARGES


@<TRIPOS>ATOM
      1 C2         16.6160    4.3730   15.4540 C.2       1 0VZ303      0.0000 
      2 C11        18.5390    7.1440   14.0500 C.2       1 0VZ303      0.0000 
      3 C14        19.1620    9.3610   13.7090 C.3       1 0VZ303      0.0000 
      4 C15        19.4530    9.9560   15.0780 C.3       1 0VZ303      0.0000 
      5 S1         15.1200    5.2350   15.1350 S.3       1 0VZ303      0.0000 
      6 N3         16.8280    3.2560   16.0910 N.2       1 0VZ303      0.0000 
      7 N4         17.7130    5.0510   14.9480 N.pl3     1 0VZ303      0.0000 
      8 C5         17.3530    6.1580   14.0610 C.3       1 0VZ303      0.0000 
      9 C6         16.0380    6.7040   14.5840 C.3       1 0VZ303      0.0000 
     10 S7         15.5890    2.3860   16.7260 S.o2      1 0VZ303      0.0000 
     11 N8         15.8230    0.9370   16.1630 N.pl3     1 0VZ303      0.0000 
     12 O9         14.3050    2.8590   16.2720 O.2       1 0VZ303      0.0000 
     13 O10        15.8100    2.4500   18.1540 O.2       1 0VZ303      0.0000 
     14 O12        19.6860    6.8350   14.2530 O.2       1 0VZ303      0.0000 
     15 O13        18.1180    8.3660   13.7770 O.3       1 0VZ303      0.0000 
     16 H          20.0976    8.9280   13.3200 H         1 0VZ303      0.0000 
     17 H          18.8815   10.1843   13.0324 H         1 0VZ303      0.0000 
     18 H          18.6424    4.8440   15.1383 H         1 0VZ303      0.0000 
     19 H          17.2100    5.7710   13.0660 H         1 0VZ303      0.0000 
     20 H          16.1228    7.2539   15.4633 H         1 0VZ303      0.0000 
     21 H          15.4129    7.0915   13.8479 H         1 0VZ303      0.0000 
     22 H          19.7495    9.2587   15.7306 H         1 0VZ303      0.0000 
     23 H          20.1760   10.6456   15.0372 H         1 0VZ303      0.0000 
     24 H          18.6466   10.3996   15.4692 H         1 0VZ303      0.0000 
     25 H          16.4332    0.4985   16.8229 H         1 0VZ303      0.0000 
@<TRIPOS>BOND
     1    5    1 1    
     2    6    1 2    
     3    7    1 1    
     4    8    2 1    
     5   14    2 2    
     6   15    2 1    
     7    4    3 1    
     8   15    3 1    
     9   16    3 1    
    10   17    3 1    
    11   22    4 1    
    12   23    4 1    
    13   24    4 1    
    14    9    5 1    
    15   10    6 1    
    16    8    7 1    
    17   18    7 1    
    18    9    8 1    
    19   19    8 1    
    20   20    9 1    
    21   21    9 1    
    22   11   10 1    
    23   12   10 2    
    24   13   10 2    
    25   25   11 1    
@<TRIPOS>SUBSTRUCTURE
     1 0VZ303      1 GROUP   
@<TRIPOS>SET

