#    Name: 3uzy_BDT_1_INTS_M
#    Modification time : Mon Mar 24 23:47:57 2014

@<TRIPOS>MOLECULE
3uzy_BDT_1_INTS_M
   49     0     3     0     0
SMALL
NO_CHARGES


@<TRIPOS>ATOM
      1 CA         17.6555  -14.8420   -3.1570 C.3       1 GLC5        0.0000 
      2 CA         16.2310  -14.8070   -4.6900 C.3       3 GLL5        0.0000 
      3 CA         19.0800  -14.8770   -1.6240 C.3       2 GLP5        0.0000 
      4 CA         16.7320  -13.0300   -7.0275 C.3       1 GLC5        0.0000 
      5 CA         15.6640  -14.2140   -5.9720 C.3       3 GLL5        0.0000 
      6 CA         17.8000  -11.8460   -8.0830 C.3       2 GLP5        0.0000 
      7 CA         16.6120  -15.0810   -7.8030 C.3       1 GLC5        0.0000 
      8 CA         17.5600  -15.9480   -9.6340 C.3       2 GLP5        0.0000 
      9 CA         11.8390  -16.7015   -5.9740 C.3       1 GLC5        0.0000 
     10 CA         13.5650  -15.6340   -5.5960 C.3       3 GLL5        0.0000 
     11 CA         10.1130  -17.7690   -6.3520 C.3       2 GLP5        0.0000 
     12 CA         13.6050  -18.7340   -2.7365 C.3       1 GLC5        0.0000 
     13 CA         13.6920  -17.7180   -4.2240 C.3       3 GLL5        0.0000 
     14 CA         13.5180  -19.7500   -1.2490 C.3       2 GLP5        0.0000 
     15 CA         14.5070  -19.9480   -3.8070 C.3       1 GLC5        0.0000 
     16 CA         14.2280  -18.6410   -5.3100 C.3       3 GLL5        0.0000 
     17 CA         14.7860  -21.2550   -2.3040 C.3       2 GLP5        0.0000 
     18 CA         15.7120  -19.5325   -3.5115 C.3       1 GLC5        0.0000 
     19 CA         15.7560  -18.6610   -5.3240 C.3       3 GLL5        0.0000 
     20 CA         15.6680  -20.4040   -1.6990 C.3       2 GLP5        0.0000 
     21 CA         16.4210  -17.0395   -7.6180 C.3       1 GLC5        0.0000 
     22 CA         16.3220  -17.2320   -5.5080 C.3       3 GLL5        0.0000 
     23 CA         16.5200  -16.8470   -9.7280 C.3       2 GLP5        0.0000 
     24 CA         16.4135  -18.2030   -8.0735 C.3       1 GLC5        0.0000 
     25 CA         16.3070  -19.5590   -6.4190 C.3       3 GLL5        0.0000 
     26 CA         15.3310  -21.1440   -4.3960 C.3       1 GLC5        0.0000 
     27 CA         15.8760  -21.0330   -6.4880 C.3       3 GLL5        0.0000 
     28 CA         17.3500  -19.2865   -9.0505 C.3       1 GLC5        0.0000 
     29 CA         18.0610  -20.6070   -7.5740 C.3       3 GLL5        0.0000 
     30 CA         16.6390  -17.9660  -10.5270 C.3       2 GLP5        0.0000 
     31 CA         17.8065  -20.3355   -3.4430 C.3       1 GLC5        0.0000 
     32 CA         18.4430  -20.1980   -5.1320 C.3       3 GLL5        0.0000 
     33 CA         17.1700  -20.4730   -1.7540 C.3       2 GLP5        0.0000 
     34 CA         20.1035  -19.8510   -4.3490 C.3       1 GLC5        0.0000 
     35 CA         21.7640  -19.5040   -3.5660 C.3       2 GLP5        0.0000 
     36 CA         15.7640  -17.4695   -1.6300 C.3       1 GLC5        0.0000 
     37 CA         16.3510  -16.6330   -3.0320 C.3       3 GLL5        0.0000 
     38 CA         15.1770  -18.3060   -0.2280 C.3       2 GLP5        0.0000 
     39 CA         17.7155  -15.7550   -2.3280 C.3       1 GLC5        0.0000 
     40 CA         17.9967  -14.5008   -5.9475 C.3       1 GLC5        0.0000 
     41 CA         20.0460  -14.4910   -6.5640 C.3       2 GLP5        0.0000 
     42 CA         12.1915  -18.4753   -5.1145 C.3       1 GLC5        0.0000 
     43 CA         10.4230  -18.7710   -5.4620 C.3       2 GLP5        0.0000 
     44 CA         17.8372  -16.8295   -7.8925 C.3       1 GLC5        0.0000 
     45 CA         17.8560  -17.2160   -5.6220 C.3       3 GLL5        0.0000 
     46 CA         19.0802  -16.1010   -6.3575 C.3       1 GLC5        0.0000 
     47 CA         18.3730  -18.2060   -6.6800 C.3       3 GLL5        0.0000 
     48 CA         16.8263  -22.8952   -5.5095 C.3       1 GLC5        0.0000 
     49 CA         17.2110  -24.4240   -4.1240 C.3       2 GLP5        0.0000 
@<TRIPOS>BOND
@<TRIPOS>SUBSTRUCTURE
     1 GLC5        1 GROUP        1 X    GLC  0     ROOT GLC X 6
     2 GLP5        3 GROUP        1 Y    GLP  0     ROOT GLP Y 13
     3 GLL5        2 GROUP        1 Z    GLL  0     ROOT GLL Z 20
@<TRIPOS>SET

