#    Name: 3uzy_BDT_1_ligand
#    Modification time : Mon Mar 24 23:47:57 2014

@<TRIPOS>MOLECULE
3uzy_BDT_1_ligand
   51    54     1     0     0
SMALL
NO_CHARGES


@<TRIPOS>ATOM
      1 C1         16.2310  -14.8070   -4.6900 C.3       1 BDT501      0.0000 
      2 C2         15.6640  -14.2140   -5.9720 C.3       1 BDT501      0.0000 
      3 C3         14.1640  -14.3280   -6.0160 C.2       1 BDT501      0.0000 
      4 O3         13.4540  -13.4150   -6.3810 O.2       1 BDT501      0.0000 
      5 C4         13.5650  -15.6340   -5.5960 C.3       1 BDT501      0.0000 
      6 C5         14.2350  -16.2940   -4.3780 C.3       1 BDT501      0.0000 
      7 C6         13.6920  -17.7180   -4.2240 C.3       1 BDT501      0.0000 
      8 C7         14.2280  -18.6410   -5.3100 C.3       1 BDT501      0.0000 
      9 C8         15.7560  -18.6610   -5.3240 C.3       1 BDT501      0.0000 
     10 C9         16.3220  -17.2320   -5.5080 C.3       1 BDT501      0.0000 
     11 C10        15.7890  -16.2560   -4.4210 C.3       1 BDT501      0.0000 
     12 C11        17.8560  -17.2160   -5.6220 C.3       1 BDT501      0.0000 
     13 C12        18.3730  -18.2060   -6.6800 C.3       1 BDT501      0.0000 
     14 C13        17.8430  -19.6130   -6.4250 C.3       1 BDT501      0.0000 
     15 C14        16.3070  -19.5590   -6.4190 C.3       1 BDT501      0.0000 
     16 C15        15.8760  -21.0330   -6.4880 C.3       1 BDT501      0.0000 
     17 C16        17.0070  -21.7000   -7.3020 C.3       1 BDT501      0.0000 
     18 C17        18.0610  -20.6070   -7.5740 C.3       1 BDT501      0.0000 
     19 O17        19.3950  -21.1140   -7.6160 O.3       1 BDT501      0.0000 
     20 C18        18.4430  -20.1980   -5.1320 C.3       1 BDT501      0.0000 
     21 C19        16.3510  -16.6330   -3.0320 C.3       1 BDT501      0.0000 
     22 H          15.9251  -14.1824   -3.8350 H         1 BDT501      0.0000 
     23 H          17.3319  -14.7782   -4.7328 H         1 BDT501      0.0000 
     24 H          16.0983  -14.7386   -6.8291 H         1 BDT501      0.0000 
     25 H          15.9551  -13.1606   -6.0359 H         1 BDT501      0.0000 
     26 H          13.6043  -16.3519   -6.4405 H         1 BDT501      0.0000 
     27 H          12.4898  -15.4940   -5.3626 H         1 BDT501      0.0000 
     28 H          13.9128  -15.7291   -3.4847 H         1 BDT501      0.0000 
     29 H          12.6018  -17.6907   -4.2774 H         1 BDT501      0.0000 
     30 H          13.9809  -18.1049   -3.2447 H         1 BDT501      0.0000 
     31 H          13.8661  -18.3023   -6.2832 H         1 BDT501      0.0000 
     32 H          13.8589  -19.6543   -5.1377 H         1 BDT501      0.0000 
     33 H          16.1099  -19.0284   -4.3642 H         1 BDT501      0.0000 
     34 H          15.9212  -16.8595   -6.4838 H         1 BDT501      0.0000 
     35 H          18.2881  -17.4735   -4.6519 H         1 BDT501      0.0000 
     36 H          18.1831  -16.2078   -5.8876 H         1 BDT501      0.0000 
     37 H          19.4621  -18.2176   -6.6508 H         1 BDT501      0.0000 
     38 H          18.0515  -17.8700   -7.6653 H         1 BDT501      0.0000 
     39 H          16.0441  -19.1149   -7.4166 H         1 BDT501      0.0000 
     40 H          14.9650  -21.1159   -7.0155 H         1 BDT501      0.0000 
     41 H          15.8502  -21.4449   -5.5161 H         1 BDT501      0.0000 
     42 H          16.6148  -22.0563   -8.2294 H         1 BDT501      0.0000 
     43 H          17.4463  -22.4835   -6.7240 H         1 BDT501      0.0000 
     44 H          17.7653  -20.1071   -8.4826 H         1 BDT501      0.0000 
     45 H          19.4400  -20.2587   -5.1796 H         1 BDT501      0.0000 
     46 H          18.2212  -19.6385   -4.3334 H         1 BDT501      0.0000 
     47 H          18.1016  -21.1198   -4.9481 H         1 BDT501      0.0000 
     48 H          17.3489  -16.5734   -3.0065 H         1 BDT501      0.0000 
     49 H          16.0029  -16.0299   -2.3143 H         1 BDT501      0.0000 
     50 H          16.1065  -17.5676   -2.7736 H         1 BDT501      0.0000 
     51 H          19.9724  -20.5366   -7.0386 H         1 BDT501      0.0000 
@<TRIPOS>BOND
     1    2    1 1    
     2   11    1 1    
     3   22    1 1    
     4   23    1 1    
     5    3    2 1    
     6   24    2 1    
     7   25    2 1    
     8    4    3 2    
     9    5    3 1    
    10    6    5 1    
    11   26    5 1    
    12   27    5 1    
    13    7    6 1    
    14   11    6 1    
    15   28    6 1    
    16    8    7 1    
    17   29    7 1    
    18   30    7 1    
    19    9    8 1    
    20   31    8 1    
    21   32    8 1    
    22   10    9 1    
    23   15    9 1    
    24   33    9 1    
    25   11   10 1    
    26   12   10 1    
    27   34   10 1    
    28   21   11 1    
    29   13   12 1    
    30   35   12 1    
    31   36   12 1    
    32   14   13 1    
    33   37   13 1    
    34   38   13 1    
    35   15   14 1    
    36   18   14 1    
    37   20   14 1    
    38   16   15 1    
    39   39   15 1    
    40   17   16 1    
    41   40   16 1    
    42   41   16 1    
    43   18   17 1    
    44   42   17 1    
    45   43   17 1    
    46   19   18 1    
    47   44   18 1    
    48   51   19 1    
    49   45   20 1    
    50   46   20 1    
    51   47   20 1    
    52   48   21 1    
    53   49   21 1    
    54   50   21 1    
@<TRIPOS>SUBSTRUCTURE
     1 BDT501      1 GROUP   
@<TRIPOS>SET

