#    Name: 3m8p_65B_1_INTS_M
#    Modification time : Mon Mar 24 22:50:48 2014

@<TRIPOS>MOLECULE
3m8p_65B_1_INTS_M
   79     0     6     0     0
SMALL
NO_CHARGES


@<TRIPOS>ATOM
      1 CA         49.0900   60.4325   18.1610 C.3       2 GLC5        0.0000 
      2 CA         48.2670   61.4780   19.6200 C.3       6 GLL5        0.0000 
      3 CA         49.9130   59.3870   16.7020 C.3       4 GLP5        0.0000 
      4 CA         46.7590   61.3115   20.6295 C.3       2 GLC5        0.0000 
      5 CA         45.2510   61.1450   21.6390 C.3       4 GLP5        0.0000 
      6 CA         48.7040   60.7275   21.3625 C.3       2 GLC5        0.0000 
      7 CA         49.1410   59.9770   23.1050 C.3       4 GLP5        0.0000 
      8 CA         49.4265   67.6945   18.8275 C.3       2 GLC5        0.0000 
      9 CA         48.7950   65.7150   19.1790 C.3       6 GLL5        0.0000 
     10 CA         50.0580   69.6740   18.4760 C.3       4 GLP5        0.0000 
     11 CA         46.3380   64.8340   15.3030 C.3       2 GLC5        0.0000 
     12 CA         47.3720   65.5150   17.0620 C.3       6 GLL5        0.0000 
     13 CA         45.3040   64.1530   13.5440 C.3       4 GLP5        0.0000 
     14 CA         45.8455   66.9440   17.1850 C.3       2 GLC5        0.0000 
     15 CA         44.3190   68.3730   17.3080 C.3       4 GLP5        0.0000 
     16 CA         46.9780   66.9975   15.6905 C.3       2 GLC5        0.0000 
     17 CA         46.5840   68.4800   14.3190 C.3       4 GLP5        0.0000 
     18 CA         50.7610   61.3180   14.9910 C.3       2 GLC5        0.0000 
     19 CA         49.7040   62.7730   14.8630 C.3       6 GLL5        0.0000 
     20 CA         51.8180   59.8630   15.1190 C.3       4 GLP5        0.0000 
     21 CA         49.8610   64.5045   13.6810 C.3       2 GLC5        0.0000 
     22 CA         50.0180   66.2360   12.4990 C.3       4 GLP5        0.0000 
     23 O          51.4805   63.0280   13.3505 O.2       1 ALC1        0.0000 
     24 O          50.9760   63.2390   14.4950 O.2       5 ALL1        0.0000 
     25 O          51.9850   62.8170   12.2060 O.2       3 ALP1        0.0000 
     26 CA         51.7265   62.0480   15.1465 C.3       2 GLC5        0.0000 
     27 CA         51.6350   64.2330   15.1740 C.3       6 GLL5        0.0000 
     28 CA         51.5555   62.5570   17.0425 C.3       2 GLC5        0.0000 
     29 CA         51.3040   64.5860   16.5010 C.3       6 GLL5        0.0000 
     30 CA         51.8070   60.5280   17.5840 C.3       4 GLP5        0.0000 
     31 CA         52.1090   66.6740   13.7820 C.3       2 GLC5        0.0000 
     32 CA         53.3340   65.8760   15.1530 C.3       6 GLL5        0.0000 
     33 CA         50.8840   67.4720   12.4110 C.3       4 GLP5        0.0000 
     34 CA         53.2275   64.5550   12.6125 C.3       2 GLC5        0.0000 
     35 CA         52.6570   64.8730   14.4880 C.3       6 GLL5        0.0000 
     36 CA         53.7980   64.2370   10.7370 C.3       4 GLP5        0.0000 
     37 CA         52.5000   68.3895   16.6190 C.3       2 GLC5        0.0000 
     38 CA         53.8380   67.2970   17.0870 C.3       6 GLL5        0.0000 
     39 CA         51.1620   69.4820   16.1510 C.3       4 GLP5        0.0000 
     40 CA         53.4495   68.6565   18.6555 C.3       2 GLC5        0.0000 
     41 CA         53.0610   70.0160   20.2240 C.3       4 GLP5        0.0000 
     42 CA         55.7765   67.5335   17.2620 C.3       2 GLC5        0.0000 
     43 CA         57.7150   67.7700   17.4370 C.3       4 GLP5        0.0000 
     44 CA         49.0680   67.7440   21.9980 C.3       2 GLC5        0.0000 
     45 CA         50.0200   65.8690   21.2030 C.3       6 GLL5        0.0000 
     46 CA         48.1160   69.6190   22.7930 C.3       4 GLP5        0.0000 
     47 CA         48.5400   65.9520   22.1330 C.3       2 GLC5        0.0000 
     48 CA         47.0600   66.0350   23.0630 C.3       4 GLP5        0.0000 
     49 CA         51.6220   67.2000   21.6945 C.3       2 GLC5        0.0000 
     50 CA         53.2240   68.5310   22.1860 C.3       4 GLP5        0.0000 
     51 CA         50.4620   64.4495   22.5905 C.3       2 GLC5        0.0000 
     52 CA         50.9040   63.0300   23.9780 C.3       4 GLP5        0.0000 
     53 CA         45.4620   62.6950   14.8060 C.3       2 GLC5        0.0000 
     54 CA         45.6200   61.2370   16.0680 C.3       6 GLL5        0.0000 
     55 CA         44.9985   61.5910   17.7465 C.3       2 GLC5        0.0000 
     56 CA         44.3770   61.9450   19.4250 C.3       4 GLP5        0.0000 
     57 CA         45.8735   59.2310   15.8205 C.3       2 GLC5        0.0000 
     58 CA         46.1270   57.2250   15.5730 C.3       4 GLP5        0.0000 
     59 CA         46.2833   62.6008   19.2097 C.3       2 GLC5        0.0000 
     60 CA         47.9040   63.5680   18.4550 C.3       6 GLL5        0.0000 
     61 CA         46.9413   64.4342   19.9868 C.3       2 GLC5        0.0000 
     62 CA         45.6930   65.6120   20.9790 C.3       4 GLP5        0.0000 
     63 CA         47.4703   64.9767   20.6740 C.3       2 GLC5        0.0000 
     64 CA         49.1690   63.6380   20.4660 C.3       6 GLL5        0.0000 
     65 CA         46.7950   65.5157   19.4375 C.3       2 GLC5        0.0000 
     66 CA         48.8276   60.6223   15.9093 C.3       2 GLC5        0.0000 
     67 CA         47.9240   62.6310   16.3520 C.3       6 GLL5        0.0000 
     68 CA         46.5231   63.0053   14.3302 C.3       2 GLC5        0.0000 
     69 CA         47.2950   61.8310   15.4960 C.3       6 GLL5        0.0000 
     70 CA         51.0820   65.3945   13.6650 C.3       2 GLC5        0.0000 
     71 CA         52.4635   64.2417   18.4943 C.3       2 GLC5        0.0000 
     72 CA         53.2720   63.3980   20.1590 C.3       4 GLP5        0.0000 
     73 CA         54.2360   65.8947   18.4477 C.3       2 GLC5        0.0000 
     74 CA         53.0340   66.2480   16.4800 C.3       6 GLL5        0.0000 
     75 CA         55.0360   65.0170   20.1120 C.3       4 GLP5        0.0000 
     76 CA         52.0445   67.6891   16.0685 C.3       2 GLC5        0.0000 
     77 CA         54.8290   67.5132   15.2659 C.3       2 GLC5        0.0000 
     78 CA         56.1470   68.3470   14.0800 C.3       4 GLP5        0.0000 
     79 CA         51.4529   64.2516   20.4725 C.3       2 GLC5        0.0000 
@<TRIPOS>BOND
@<TRIPOS>SUBSTRUCTURE
     1 ALC1       23 GROUP        1 X    ALC  0     ROOT ALC X 1
     2 GLC5        1 GROUP        1 X    GLC  0     **** GLC X 6
     3 ALP1       25 GROUP        1 Y    ALP  0     ROOT ALP Y 8
     4 GLP5        3 GROUP        1 Y    GLP  0     **** GLP Y 13
     5 ALL1       24 GROUP        1 Z    ALL  0     ROOT ALL Z 15
     6 GLL5        2 GROUP        1 Z    GLL  0     **** GLL Z 20
@<TRIPOS>SET

