#    Name: 3m8p_65B_1_ligand
#    Modification time : Mon Mar 24 22:50:48 2014

@<TRIPOS>MOLECULE
3m8p_65B_1_ligand
   43    45     1     0     0
SMALL
NO_CHARGES


@<TRIPOS>ATOM
      1 C1         47.9040   63.5680   18.4550 C.ar      1 65B562      0.0000 
      2 O17        47.2220   62.8850   17.4840 O.3       1 65B562      0.0000 
      3 C2         48.4750   62.9450   19.5340 C.ar      1 65B562      0.0000 
      4 C2'        48.2670   61.4780   19.6200 C.3       1 65B562      0.0000 
      5 C3         49.1690   63.6380   20.4660 C.ar      1 65B562      0.0000 
      6 C4         49.3260   65.0450   20.2720 C.ar      1 65B562      0.0000 
      7 C5         48.7950   65.7150   19.1790 C.ar      1 65B562      0.0000 
      8 C6         48.0490   64.9330   18.2810 C.ar      1 65B562      0.0000 
      9 C6'        47.3720   65.5150   17.0620 C.3       1 65B562      0.0000 
     10 C13        47.9240   62.6310   16.3520 C.ar      1 65B562      0.0000 
     11 N12        49.1360   63.1130   16.0130 N.ar      1 65B562      0.0000 
     12 C11        49.7040   62.7730   14.8630 C.ar      1 65B562      0.0000 
     13 N5         50.9760   63.2390   14.4950 N.pl3     1 65B562      0.0000 
     14 N16        49.0640   61.9550   14.0420 N.ar      1 65B562      0.0000 
     15 C15        47.8750   61.4840   14.3090 C.ar      1 65B562      0.0000 
     16 N18        47.1780   60.6560   13.4450 N.pl3     1 65B562      0.0000 
     17 C14        47.2950   61.8310   15.4960 C.ar      1 65B562      0.0000 
     18 C21        51.6350   64.2330   15.1740 C.ar      1 65B562      0.0000 
     19 C22        51.3040   64.5860   16.5010 C.ar      1 65B562      0.0000 
     20 C23        52.0060   65.5850   17.1580 C.ar      1 65B562      0.0000 
     21 C24        53.0340   66.2480   16.4800 C.ar      1 65B562      0.0000 
     22 C25        53.3340   65.8760   15.1530 C.ar      1 65B562      0.0000 
     23 C26        52.6570   64.8730   14.4880 C.ar      1 65B562      0.0000 
     24 C27        53.8380   67.2970   17.0870 C.1       1 65B562      0.0000 
     25 N27        54.5340   68.1430   17.4750 N.1       1 65B562      0.0000 
     26 C4'        50.0200   65.8690   21.2030 C.1       1 65B562      0.0000 
     27 N4'        50.5830   66.5110   21.9770 N.1       1 65B562      0.0000 
     28 BR         45.6200   61.2370   16.0680 Br        1 65B562      0.0000 
     29 H          49.5779   63.2064   21.2871 H         1 65B562      0.0000 
     30 H          48.9299   66.6931   19.0319 H         1 65B562      0.0000 
     31 H          51.4342   62.7977   13.6585 H         1 65B562      0.0000 
     32 H          46.2621   60.3836   13.7397 H         1 65B562      0.0000 
     33 H          47.6510   60.4023   12.6013 H         1 65B562      0.0000 
     34 H          50.5354   64.0920   16.9731 H         1 65B562      0.0000 
     35 H          51.7805   65.8365   18.1207 H         1 65B562      0.0000 
     36 H          54.1030   66.3884   14.6632 H         1 65B562      0.0000 
     37 H          52.8941   64.6132   13.5396 H         1 65B562      0.0000 
     38 H          48.6395   61.0027   18.8229 H         1 65B562      0.0000 
     39 H          48.7089   61.0869   20.4274 H         1 65B562      0.0000 
     40 H          47.2965   61.2430   19.6743 H         1 65B562      0.0000 
     41 H          47.5135   66.5026   16.9946 H         1 65B562      0.0000 
     42 H          47.7192   65.1108   16.2158 H         1 65B562      0.0000 
     43 H          46.3841   65.3608   17.0767 H         1 65B562      0.0000 
@<TRIPOS>BOND
     1    2    1 1    
     2    3    1 ar   
     3    8    1 ar   
     4   10    2 1    
     5    4    3 1    
     6    5    3 ar   
     7   38    4 1    
     8   39    4 1    
     9   40    4 1    
    10    6    5 ar   
    11   29    5 1    
    12    7    6 ar   
    13   26    6 1    
    14    8    7 ar   
    15   30    7 1    
    16    9    8 1    
    17   41    9 1    
    18   42    9 1    
    19   43    9 1    
    20   11   10 ar   
    21   17   10 ar   
    22   12   11 ar   
    23   13   12 1    
    24   14   12 ar   
    25   18   13 1    
    26   31   13 1    
    27   15   14 ar   
    28   16   15 1    
    29   17   15 ar   
    30   32   16 1    
    31   33   16 1    
    32   28   17 1    
    33   19   18 ar   
    34   23   18 ar   
    35   20   19 ar   
    36   34   19 1    
    37   21   20 ar   
    38   35   20 1    
    39   22   21 ar   
    40   24   21 1    
    41   23   22 ar   
    42   36   22 1    
    43   37   23 1    
    44   25   24 3    
    45   27   26 3    
@<TRIPOS>SUBSTRUCTURE
     1 65B562      1 GROUP   
@<TRIPOS>SET

