#    Name: 3amy_AGI_1_INTS_M
#    Modification time : Mon Mar 24 17:50:11 2014

@<TRIPOS>MOLECULE
3amy_AGI_1_INTS_M
   60     0     9     0     0
SMALL
NO_CHARGES


@<TRIPOS>ATOM
      1 CA         11.2490   -6.3640   12.7480 C.3       3 GLC5        0.0000 
      2 CA         12.1670   -4.8400   11.6320 C.3       9 GLL5        0.0000 
      3 CA         10.3310   -7.8880   13.8640 C.3       6 GLP5        0.0000 
      4 CA         10.5425   -4.7815   13.5685 C.3       3 GLC5        0.0000 
      5 CA         11.8030   -3.8570   12.5440 C.3       9 GLL5        0.0000 
      6 CA          9.2820   -5.7060   14.5930 C.3       6 GLP5        0.0000 
      7 CA         14.0605   -1.5060   12.3605 C.3       3 GLC5        0.0000 
      8 CA         12.2190   -2.5470   12.3460 C.3       9 GLL5        0.0000 
      9 CA         15.9020   -0.4650   12.3750 C.3       6 GLP5        0.0000 
     10 N          10.5505   -0.7900   12.9590 N.am      2 SEC2        0.0000 
     11 N          11.8570   -1.5920   13.2540 N.am      8 SEL2        0.0000 
     12 N           9.2440    0.0120   12.6640 N.am      5 SEP2        0.0000 
     13 O          12.4770   -0.4700   13.6680 O.2       1 ALC1        0.0000 
     14 O          11.8570   -1.5920   13.2540 O.2       7 ALL1        0.0000 
     15 O          13.0970    0.6520   14.0820 O.2       4 ALP1        0.0000 
     16 CA         15.7115   -5.7755    8.1900 C.3       3 GLC5        0.0000 
     17 CA         13.5770   -5.3970    8.3080 C.3       9 GLL5        0.0000 
     18 CA         17.8460   -6.1540    8.0720 C.3       6 GLP5        0.0000 
     19 CA         15.7910   -6.9720    8.0610 C.3       3 GLC5        0.0000 
     20 CA         13.7360   -7.7900    8.0500 C.3       9 GLL5        0.0000 
     21 CA         11.7065   -9.1535   11.5135 C.3       3 GLC5        0.0000 
     22 CA         13.2440   -9.1560    9.9850 C.3       9 GLL5        0.0000 
     23 CA         10.1690   -9.1510   13.0420 C.3       6 GLP5        0.0000 
     24 CA         11.8400  -10.7840   10.5795 C.3       3 GLC5        0.0000 
     25 CA         10.4360  -12.4120   11.1740 C.3       6 GLP5        0.0000 
     26 CA         12.0005  -11.6675    9.5110 C.3       3 GLC5        0.0000 
     27 CA         13.4650  -10.2990    9.2350 C.3       9 GLL5        0.0000 
     28 CA         10.5360  -13.0360    9.7870 C.3       6 GLP5        0.0000 
     29 N          13.0910  -12.6355   10.1780 N.am      2 SEC2        0.0000 
     30 N          13.3350  -11.4990    9.8390 N.am      8 SEL2        0.0000 
     31 N          12.8470  -13.7720   10.5170 N.am      5 SEP2        0.0000 
     32 O          13.1195  -12.4890    8.7795 O.2       1 ALC1        0.0000 
     33 O          13.3350  -11.4990    9.8390 O.2       7 ALL1        0.0000 
     34 O          12.9040  -13.4790    7.7200 O.2       4 ALP1        0.0000 
     35 CA         15.3960   -8.7585    8.8790 C.3       3 GLC5        0.0000 
     36 CA         13.9560   -8.9570    7.2910 C.3       9 GLL5        0.0000 
     37 CA         16.8360   -8.5600   10.4670 C.3       6 GLP5        0.0000 
     38 CA         10.9165   -2.1235   11.5140 C.3       3 GLC5        0.0000 
     39 CA          9.8220   -1.0450   10.5830 C.3       6 GLP5        0.0000 
     40 CA         14.7777   -1.9835   10.9617 C.3       3 GLC5        0.0000 
     41 CA         12.9870   -2.2290   11.2220 C.3       9 GLL5        0.0000 
     42 CA         16.3860   -1.2460   11.1640 C.3       6 GLP5        0.0000 
     43 CA         11.4957   -1.8830   10.6713 C.3       3 GLC5        0.0000 
     44 CA         10.7090   -4.8044   10.6472 C.3       3 GLC5        0.0000 
     45 CA         12.9370   -4.5310   10.5090 C.3       9 GLL5        0.0000 
     46 CA          8.9570   -5.1690    9.9960 C.3       6 GLP5        0.0000 
     47 CA         11.6695   -5.3405    8.2993 C.3       3 GLC5        0.0000 
     48 CA         13.2410   -5.5830    9.6510 C.3       9 GLL5        0.0000 
     49 CA          9.9300   -5.1910    7.6190 C.3       6 GLP5        0.0000 
     50 CA         11.9480   -8.3848    7.9188 C.3       3 GLC5        0.0000 
     51 CA         13.3740   -7.9070    9.3970 C.3       9 GLL5        0.0000 
     52 CA         10.3410   -8.9210    7.1140 C.3       6 GLP5        0.0000 
     53 CA         15.1177   -8.5311    9.9106 C.3       3 GLC5        0.0000 
     54 CA         11.8477   -9.3242    8.3620 C.3       3 GLC5        0.0000 
     55 CA         15.2003  -10.6405    9.3195 C.3       3 GLC5        0.0000 
     56 CA         16.7570  -11.0260   10.0760 C.3       6 GLP5        0.0000 
     57 CA         15.8030   -9.6370    7.0855 C.3       3 GLC5        0.0000 
     58 CA         13.8220  -10.2110    7.8910 C.3       9 GLL5        0.0000 
     59 CA         17.7170   -9.6900    6.5800 C.3       6 GLP5        0.0000 
     60 CA         12.1150   -9.2525    7.3525 C.3       3 GLC5        0.0000 
@<TRIPOS>BOND
@<TRIPOS>SUBSTRUCTURE
     1 ALC1       13 GROUP        1 X    ALC  0     ROOT ALC X 1
     2 SEC2       10 GROUP        1 X    SEC  0     **** SEC X 2
     3 GLC5        1 GROUP        1 X    GLC  0     **** GLC X 6
     4 ALP1       15 GROUP        1 Y    ALP  0     ROOT ALP Y 8
     5 SEP2       12 GROUP        1 Y    SEP  0     **** SEP Y 9
     6 GLP5        3 GROUP        1 Y    GLP  0     **** GLP Y 13
     7 ALL1       14 GROUP        1 Z    ALL  0     ROOT ALL Z 15
     8 SEL2       11 GROUP        1 Z    SEL  0     **** SEL Z 16
     9 GLL5        2 GROUP        1 Z    GLL  0     **** GLL Z 20
@<TRIPOS>SET

