#    Name: 3amy_AGI_1_ligand
#    Modification time : Mon Mar 24 17:50:11 2014

@<TRIPOS>MOLECULE
3amy_AGI_1_ligand
   30    32     1     0     0
SMALL
NO_CHARGES


@<TRIPOS>ATOM
      1 CAG        12.1670   -4.8400   11.6320 C.ar      1 AGI336      0.0000 
      2 CAE        11.8030   -3.8570   12.5440 C.ar      1 AGI336      0.0000 
      3 CAM        12.2190   -2.5470   12.3460 C.ar      1 AGI336      0.0000 
      4 OAB        11.8570   -1.5920   13.2540 O.3       1 AGI336      0.0000 
      5 CAF        12.9870   -2.2290   11.2220 C.ar      1 AGI336      0.0000 
      6 CAH        13.3520   -3.2130   10.2970 C.ar      1 AGI336      0.0000 
      7 CAP        12.9370   -4.5310   10.5090 C.ar      1 AGI336      0.0000 
      8 CAQ        13.2410   -5.5830    9.6510 C.2       1 AGI336      0.0000 
      9 OAL        13.1400   -6.8300   10.1930 O.3       1 AGI336      0.0000 
     10 CAJ        13.5770   -5.3970    8.3080 C.2       1 AGI336      0.0000 
     11 CAR        13.8450   -6.5060    7.5030 C.2       1 AGI336      0.0000 
     12 OAA        14.1490   -6.3390    6.3200 O.2       1 AGI336      0.0000 
     13 CAT        13.7360   -7.7900    8.0500 C.ar      1 AGI336      0.0000 
     14 CAS        13.3740   -7.9070    9.3970 C.ar      1 AGI336      0.0000 
     15 CAK        13.2440   -9.1560    9.9850 C.ar      1 AGI336      0.0000 
     16 CAN        13.4650  -10.2990    9.2350 C.ar      1 AGI336      0.0000 
     17 OAC        13.3350  -11.4990    9.8390 O.3       1 AGI336      0.0000 
     18 CAI        13.8220  -10.2110    7.8910 C.ar      1 AGI336      0.0000 
     19 CAO        13.9560   -8.9570    7.2910 C.ar      1 AGI336      0.0000 
     20 OAD        14.3030   -8.9010    5.9700 O.3       1 AGI336      0.0000 
     21 H          11.8640   -5.8177   11.7849 H         1 AGI336      0.0000 
     22 H          11.2292   -4.0984   13.3603 H         1 AGI336      0.0000 
     23 H          13.2897   -1.2532   11.0718 H         1 AGI336      0.0000 
     24 H          13.9122   -2.9721    9.4807 H         1 AGI336      0.0000 
     25 H          13.6265   -4.4524    7.9161 H         1 AGI336      0.0000 
     26 H          12.9835   -9.2327   10.9779 H         1 AGI336      0.0000 
     27 H          13.9858  -11.0619    7.3439 H         1 AGI336      0.0000 
     28 H          12.7199   -1.2220   13.5983 H         1 AGI336      0.0000 
     29 H          13.2302  -12.1549    9.0914 H         1 AGI336      0.0000 
     30 H          14.3687   -7.9253    5.7609 H         1 AGI336      0.0000 
@<TRIPOS>BOND
     1    2    1 ar   
     2    7    1 ar   
     3   21    1 1    
     4    3    2 ar   
     5   22    2 1    
     6    4    3 1    
     7    5    3 ar   
     8   28    4 1    
     9    6    5 ar   
    10   23    5 1    
    11    7    6 ar   
    12   24    6 1    
    13    8    7 1    
    14    9    8 1    
    15   10    8 2    
    16   14    9 1    
    17   11   10 1    
    18   25   10 1    
    19   12   11 2    
    20   13   11 1    
    21   14   13 ar   
    22   19   13 ar   
    23   15   14 ar   
    24   16   15 ar   
    25   26   15 1    
    26   17   16 1    
    27   18   16 ar   
    28   29   17 1    
    29   19   18 ar   
    30   27   18 1    
    31   20   19 1    
    32   30   20 1    
@<TRIPOS>SUBSTRUCTURE
     1 AGI336      1 GROUP   
@<TRIPOS>SET

