#    Name: 4dw4_U5P_3_INTS_M
#    Modification time : Tue Mar 25 10:16:16 2014

@<TRIPOS>MOLECULE
4dw4_U5P_3_INTS_M
   30     0    12     0     0
SMALL
NO_CHARGES


@<TRIPOS>ATOM
      1 O         -13.2645  -42.5970    7.8980 O.2       1 ALC1        0.0000 
      2 O         -12.7130  -43.6260    8.5260 O.2       9 ALL1        0.0000 
      3 O         -13.8160  -41.5680    7.2700 O.2       5 ALP1        0.0000 
      4 CA        -11.4820  -43.0570   11.0510 C.3       4 GLC5        0.0000 
      5 CA        -10.8540  -44.4080    9.8280 C.3      12 GLL5        0.0000 
      6 CA        -12.1100  -41.7060   12.2740 C.3       8 GLP5        0.0000 
      7 NZ        -11.1955  -48.4845   15.2015 N.4       3 LYC4        0.0000 
      8 NZ        -12.3840  -49.2980   14.9900 N.4      11 LYL4        0.0000 
      9 NZ        -10.0070  -47.6710   15.4130 N.4       7 LYP4        0.0000 
     10 N         -11.1955  -48.4845   15.2015 N.am      2 SEC2        0.0000 
     11 N         -12.3840  -49.2980   14.9900 N.am     10 SEL2        0.0000 
     12 N         -10.0070  -47.6710   15.4130 N.am      6 SEP2        0.0000 
     13 N         -12.7620  -49.6820   16.2340 N.am      2 SEC2        0.0000 
     14 N         -13.1400  -50.0660   17.4780 N.am      6 SEP2        0.0000 
     15 NZ        -10.3685  -49.1235   14.5570 N.4       3 LYC4        0.0000 
     16 NZ        -10.7300  -50.5760   13.7010 N.4      11 LYL4        0.0000 
     17 N          -9.8935  -51.3695   14.2890 N.am      2 SEC2        0.0000 
     18 N         -10.7300  -50.5760   13.7010 N.am     10 SEL2        0.0000 
     19 N          -9.0570  -52.1630   14.8770 N.am      6 SEP2        0.0000 
     20 N         -10.3685  -49.1235   14.5570 N.am      2 SEC2        0.0000 
     21 N         -13.0070  -50.8645   16.1120 N.am      2 SEC2        0.0000 
     22 N         -12.8740  -51.6630   14.7460 N.am     10 SEL2        0.0000 
     23 CA        -10.8157  -45.6810    8.3042 C.3       4 GLC5        0.0000 
     24 CA        -11.4870  -45.6420    9.9490 C.3      12 GLL5        0.0000 
     25 CA        -10.4610  -46.3370    6.7200 C.3       8 GLP5        0.0000 
     26 CA        -11.6865  -47.0873    8.0457 C.3       4 GLC5        0.0000 
     27 CA        -13.3650  -47.2000    9.4000 C.3      12 GLL5        0.0000 
     28 CA        -15.2172  -49.5530   12.3032 C.3       4 GLC5        0.0000 
     29 CA        -14.0350  -48.6940   11.1270 C.3      12 GLL5        0.0000 
     30 CA        -16.8990  -50.3600   12.8980 C.3       8 GLP5        0.0000 
@<TRIPOS>BOND
@<TRIPOS>SUBSTRUCTURE
     1 ALC1        1 GROUP        1 X    ALC  0     ROOT ALC X 1
     2 SEC2       10 GROUP        1 X    SEC  0     **** SEC X 2
     3 LYC4        7 GROUP        1 X    LYC  0     **** LYC X 4
     4 GLC5        4 GROUP        1 X    GLC  0     **** GLC X 6
     5 ALP1        3 GROUP        1 Y    ALP  0     ROOT ALP Y 8
     6 SEP2       12 GROUP        1 Y    SEP  0     **** SEP Y 9
     7 LYP4        9 GROUP        1 Y    LYP  0     **** LYP Y 11
     8 GLP5        6 GROUP        1 Y    GLP  0     **** GLP Y 13
     9 ALL1        2 GROUP        1 Z    ALL  0     ROOT ALL Z 15
    10 SEL2       11 GROUP        1 Z    SEL  0     **** SEL Z 16
    11 LYL4        8 GROUP        1 Z    LYL  0     **** LYL Z 18
    12 GLL5        5 GROUP        1 Z    GLL  0     **** GLL Z 20
@<TRIPOS>SET

