#    Name: 4dw4_U5P_3_ligand
#    Modification time : Tue Mar 25 10:16:16 2014

@<TRIPOS>MOLECULE
4dw4_U5P_3_ligand
   32    33     1     0     0
SMALL
NO_CHARGES


@<TRIPOS>ATOM
      1 N1        -12.6990  -45.8760    9.3000 N.am      1 U5P1114     0.0000 
      2 C2        -13.3240  -44.8430    8.5760 C.2       1 U5P1114     0.0000 
      3 N3        -12.7130  -43.6260    8.5260 N.am      1 U5P1114     0.0000 
      4 C4        -11.5120  -43.3590    9.0900 C.2       1 U5P1114     0.0000 
      5 C5        -10.8540  -44.4080    9.8280 C.2       1 U5P1114     0.0000 
      6 C6        -11.4870  -45.6420    9.9490 C.2       1 U5P1114     0.0000 
      7 O2        -14.4030  -44.9270    7.9750 O.2       1 U5P1114     0.0000 
      8 O4        -11.0320  -42.2450    8.9590 O.2       1 U5P1114     0.0000 
      9 C1'       -13.3650  -47.2000    9.4000 C.3       1 U5P1114     0.0000 
     10 C2'       -12.4590  -48.4750    9.3430 C.3       1 U5P1114     0.0000 
     11 O2'       -12.0390  -48.8960    8.0350 O.3       1 U5P1114     0.0000 
     12 C3'       -13.4680  -49.4970    9.9260 C.3       1 U5P1114     0.0000 
     13 C4'       -14.0350  -48.6940   11.1270 C.3       1 U5P1114     0.0000 
     14 O3'       -14.5120  -49.7830    8.9780 O.3       1 U5P1114     0.0000 
     15 O4'       -14.0980  -47.3010   10.6950 O.3       1 U5P1114     0.0000 
     16 C5'       -13.0360  -48.7980   12.2900 C.3       1 U5P1114     0.0000 
     17 O5'       -13.0340  -50.1830   12.7150 O.3       1 U5P1114     0.0000 
     18 P         -12.2340  -50.4500   14.0500 P.3       1 U5P1114     0.0000 
     19 O1P       -12.3840  -49.2980   14.9900 O.co2     1 U5P1114     0.0000 
     20 O2P       -10.7300  -50.5760   13.7010 O.co2     1 U5P1114     0.0000 
     21 O3P       -12.8740  -51.6630   14.7460 O.co2     1 U5P1114     0.0000 
     22 H         -13.2146  -42.8386    8.0103 H         1 U5P1114     0.0000 
     23 H          -9.9490  -44.2284   10.2420 H         1 U5P1114     0.0000 
     24 H         -11.0600  -46.3847   10.5190 H         1 U5P1114     0.0000 
     25 H         -14.1129  -47.3121    8.6050 H         1 U5P1114     0.0000 
     26 H         -11.6970  -48.3611   10.0579 H         1 U5P1114     0.0000 
     27 H         -12.9477  -50.3142   10.2878 H         1 U5P1114     0.0000 
     28 H         -14.9584  -49.0757   11.3983 H         1 U5P1114     0.0000 
     29 H         -13.3677  -48.1382   13.0785 H         1 U5P1114     0.0000 
     30 H         -12.0658  -48.4892   11.9288 H         1 U5P1114     0.0000 
     31 H         -12.7790  -49.4800    7.7012 H         1 U5P1114     0.0000 
     32 H         -14.6370  -50.7742    9.0220 H         1 U5P1114     0.0000 
@<TRIPOS>BOND
     1    2    1 1    
     2    6    1 1    
     3    9    1 1    
     4    3    2 1    
     5    7    2 2    
     6    4    3 1    
     7   22    3 1    
     8    5    4 1    
     9    8    4 2    
    10    6    5 2    
    11   23    5 1    
    12   24    6 1    
    13   10    9 1    
    14   15    9 1    
    15   25    9 1    
    16   11   10 1    
    17   12   10 1    
    18   26   10 1    
    19   31   11 1    
    20   13   12 1    
    21   14   12 1    
    22   27   12 1    
    23   15   13 1    
    24   16   13 1    
    25   28   13 1    
    26   32   14 1    
    27   17   16 1    
    28   29   16 1    
    29   30   16 1    
    30   18   17 1    
    31   19   18 ar   
    32   20   18 ar   
    33   21   18 ar   
@<TRIPOS>SUBSTRUCTURE
     1 U5P1114     1 GROUP   
@<TRIPOS>SET

