#    Name: 3nw7_LGV_1_INTS_M
#    Modification time : Tue Mar 25 02:47:06 2014

@<TRIPOS>MOLECULE
3nw7_LGV_1_INTS_M
   74     0     9     0     0
SMALL
NO_CHARGES


@<TRIPOS>ATOM
      1 CA        -14.9035   -1.2820   13.0835 C.3       3 GLC5        0.0000 
      2 CA        -14.4440    0.4060   12.4090 C.3       9 GLL5        0.0000 
      3 CA        -15.3630   -2.9700   13.7580 C.3       6 GLP5        0.0000 
      4 CA        -18.5450    7.4725    9.7780 C.3       3 GLC5        0.0000 
      5 CA        -16.7490    8.3690   10.2640 C.3       9 GLL5        0.0000 
      6 CA        -20.3410    6.5760    9.2920 C.3       6 GLP5        0.0000 
      7 CA        -18.9590    6.6365   10.3995 C.3       3 GLC5        0.0000 
      8 CA        -17.5770    6.6970   11.5070 C.3       9 GLL5        0.0000 
      9 CA        -16.5175    5.2995   12.8475 C.3       3 GLC5        0.0000 
     10 CA        -15.4580    3.9020   14.1880 C.3       6 GLP5        0.0000 
     11 CA        -20.1920    4.6325   12.2835 C.3       3 GLC5        0.0000 
     12 CA        -18.7850    3.6650   13.3880 C.3       9 GLL5        0.0000 
     13 CA        -21.5990    5.6000   11.1790 C.3       6 GLP5        0.0000 
     14 CA        -18.3230    4.2625   15.3485 C.3       3 GLC5        0.0000 
     15 CA        -17.8610    4.8600   17.3090 C.3       6 GLP5        0.0000 
     16 CA        -12.5020   -0.8005   11.4800 C.3       3 GLC5        0.0000 
     17 CA        -12.3630    0.4360   13.3540 C.3       9 GLL5        0.0000 
     18 CA        -12.6410   -2.0370    9.6060 C.3       6 GLP5        0.0000 
     19 CA        -16.8535   -1.8370   12.9620 C.3       3 GLC5        0.0000 
     20 CA        -18.3440   -0.7040   12.1660 C.3       9 GLL5        0.0000 
     21 CA        -17.1765   -1.1770   10.8210 C.3       3 GLC5        0.0000 
     22 CA        -16.0090   -1.6500    9.4760 C.3       6 GLP5        0.0000 
     23 CA        -18.5755   -0.3910   15.6310 C.3       3 GLC5        0.0000 
     24 CA        -18.8680   -0.0760   13.4280 C.3       9 GLL5        0.0000 
     25 CA        -18.2830   -0.7060   17.8340 C.3       6 GLP5        0.0000 
     26 CA        -16.6325    4.9880    7.6460 C.3       3 GLC5        0.0000 
     27 CA        -15.9320    3.7260    9.1060 C.3       9 GLL5        0.0000 
     28 CA        -17.3330    6.2500    6.1860 C.3       6 GLP5        0.0000 
     29 CA        -17.7980    2.8695    8.6025 C.3       3 GLC5        0.0000 
     30 CA        -19.6640    2.0130    8.0990 C.3       6 GLP5        0.0000 
     31 N         -13.7520   -1.1940   14.4215 N.am      2 SEC2        0.0000 
     32 N         -13.5820   -0.1380   13.2800 N.am      8 SEL2        0.0000 
     33 N         -13.9220   -2.2500   15.5630 N.am      5 SEP2        0.0000 
     34 O         -18.5760    5.8615   14.1510 O.2       1 ALC1        0.0000 
     35 O         -18.5370    4.9380   12.9470 O.2       7 ALL1        0.0000 
     36 O         -18.6150    6.7850   15.3550 O.2       4 ALP1        0.0000 
     37 CA        -12.8305    1.1815   15.1560 C.3       3 GLC5        0.0000 
     38 CA        -11.5100   -0.1090   14.2230 C.3       9 GLL5        0.0000 
     39 CA        -14.1510    2.4720   16.0890 C.3       6 GLP5        0.0000 
     40 CA        -12.9260   -1.7600   14.5175 C.3       3 GLC5        0.0000 
     41 CA        -14.3420   -3.4110   14.8120 C.3       6 GLP5        0.0000 
     42 CA        -19.5853    8.2280   11.3488 C.3       3 GLC5        0.0000 
     43 CA        -17.9820    7.8730   12.0950 C.3       9 GLL5        0.0000 
     44 CA        -21.4510    8.0530   10.9960 C.3       6 GLP5        0.0000 
     45 CA        -11.6207    3.4388   12.5985 C.3       3 GLC5        0.0000 
     46 CA        -12.8690    2.0720   11.7070 C.3       9 GLL5        0.0000 
     47 CA        -10.8300    5.0810   13.0390 C.3       6 GLP5        0.0000 
     48 CA        -10.8948    1.4977   11.0070 C.3       3 GLC5        0.0000 
     49 CA         -9.3780    1.1990    9.8560 C.3       6 GLP5        0.0000 
     50 CA        -19.4768    2.5960   11.2700 C.3       3 GLC5        0.0000 
     51 CA        -18.4740    2.4290   12.7460 C.3       9 GLL5        0.0000 
     52 CA        -20.3240    2.1450    9.4730 C.3       6 GLP5        0.0000 
     53 CA        -20.5023    2.5055   13.1105 C.3       3 GLC5        0.0000 
     54 CA        -22.3750    1.9640   13.1540 C.3       6 GLP5        0.0000 
     55 CA        -17.0438    3.4745   13.6275 C.3       3 GLC5        0.0000 
     56 CA        -14.0640    2.1850   13.2882 C.3       3 GLC5        0.0000 
     57 CA        -14.1460    1.4960   11.6000 C.3       9 GLL5        0.0000 
     58 CA        -13.8330    3.4190   14.5720 C.3       6 GLP5        0.0000 
     59 CA        -15.1520   -0.3495   10.7402 C.3       3 GLC5        0.0000 
     60 CA        -16.0923    7.7063   12.5229 C.3       3 GLC5        0.0000 
     61 CA        -14.7790    7.8710   13.8010 C.3       6 GLP5        0.0000 
     62 CA        -13.1101    2.2676   13.6640 C.3       3 GLC5        0.0000 
     63 CA        -11.9540    1.5210   12.6090 C.3       9 GLL5        0.0000 
     64 CA        -12.4287   -0.3848   15.5207 C.3       3 GLC5        0.0000 
     65 CA        -12.9210   -0.9330   17.2530 C.3       6 GLP5        0.0000 
     66 CA        -19.7025    0.7172   10.8898 C.3       3 GLC5        0.0000 
     67 CA        -19.6625   -1.7418   11.0582 C.3       3 GLC5        0.0000 
     68 CA        -19.8180   -0.7170   12.4470 C.3       9 GLL5        0.0000 
     69 CA        -20.2440   -2.7730    9.8100 C.3       6 GLP5        0.0000 
     70 CA        -20.8590    0.7837   13.0457 C.3       3 GLC5        0.0000 
     71 CA        -19.2847   -2.0726   13.4986 C.3       3 GLC5        0.0000 
     72 CA        -19.5950   -3.7520   14.1300 C.3       6 GLP5        0.0000 
     73 CA        -10.0956    0.3139   14.2596 C.3       3 GLC5        0.0000 
     74 CA         -8.3570    0.1930   14.9170 C.3       6 GLP5        0.0000 
@<TRIPOS>BOND
@<TRIPOS>SUBSTRUCTURE
     1 ALC1       34 GROUP        1 X    ALC  0     ROOT ALC X 1
     2 SEC2       31 GROUP        1 X    SEC  0     **** SEC X 2
     3 GLC5        1 GROUP        1 X    GLC  0     **** GLC X 6
     4 ALP1       36 GROUP        1 Y    ALP  0     ROOT ALP Y 8
     5 SEP2       33 GROUP        1 Y    SEP  0     **** SEP Y 9
     6 GLP5        3 GROUP        1 Y    GLP  0     **** GLP Y 13
     7 ALL1       35 GROUP        1 Z    ALL  0     ROOT ALL Z 15
     8 SEL2       32 GROUP        1 Z    SEL  0     **** SEL Z 16
     9 GLL5        2 GROUP        1 Z    GLL  0     **** GLL Z 20
@<TRIPOS>SET

