#    Name: 3nw7_LGV_1_ligand
#    Modification time : Tue Mar 25 02:47:06 2014

@<TRIPOS>MOLECULE
3nw7_LGV_1_ligand
   46    50     1     0     0
SMALL
NO_CHARGES


@<TRIPOS>ATOM
      1 C1        -17.4570    8.9330   11.3080 C.2       1 LGV1        0.0000 
      2 C2        -12.8690    2.0720   11.7070 C.ar      1 LGV1        0.0000 
      3 C3        -17.9820    7.8730   12.0950 C.2       1 LGV1        0.0000 
      4 C4        -11.9540    1.5210   12.6090 C.ar      1 LGV1        0.0000 
      5 C5        -18.4740    2.4290   12.7460 C.2       1 LGV1        0.0000 
      6 C6        -14.4440    0.4060   12.4090 C.ar      1 LGV1        0.0000 
      7 C7        -16.7490    8.3690   10.2640 C.2       1 LGV1        0.0000 
      8 C8        -14.1460    1.4960   11.6000 C.ar      1 LGV1        0.0000 
      9 C9        -17.5770    6.6970   11.5070 C.2       1 LGV1        0.0000 
     10 C10       -18.9330    1.4430   13.6050 C.2       1 LGV1        0.0000 
     11 C11       -18.7850    3.6650   13.3880 C.2       1 LGV1        0.0000 
     12 C12       -12.3630    0.4360   13.3540 C.ar      1 LGV1        0.0000 
     13 C13       -17.7880    5.3070   11.8330 C.2       1 LGV1        0.0000 
     14 C14       -16.4970    4.8650    9.9180 C.2       1 LGV1        0.0000 
     15 C15       -15.2270    1.9800   10.7030 C.2       1 LGV1        0.0000 
     16 C16       -18.3440   -0.7040   12.1660 C.3       1 LGV1        0.0000 
     17 C17       -19.8180   -0.7170   12.4470 C.3       1 LGV1        0.0000 
     18 C18       -18.8680   -0.0760   13.4280 C.3       1 LGV1        0.0000 
     19 C19       -15.9320    3.7260    9.1060 C.3       1 LGV1        0.0000 
     20 N20       -13.5820   -0.1380   13.2800 N.ar      1 LGV1        0.0000 
     21 N21       -19.3920    3.4250   14.5620 N.pl3     1 LGV1        0.0000 
     22 N22       -17.2260    4.4570   11.0090 N.2       1 LGV1        0.0000 
     23 N23       -16.2630    6.0910    9.5670 N.2       1 LGV1        0.0000 
     24 N24       -19.4720    2.0820   14.6740 N.2       1 LGV1        0.0000 
     25 N25       -16.8270    7.0110   10.3940 N.pl3     1 LGV1        0.0000 
     26 N26       -18.5370    4.9380   12.9470 N.pl3     1 LGV1        0.0000 
     27 N27       -14.9470    3.1040    9.9670 N.am      1 LGV1        0.0000 
     28 O28       -16.3050    1.3970   10.6820 O.2       1 LGV1        0.0000 
     29 F29       -11.5100   -0.1090   14.2230 F         1 LGV1        0.0000 
     30 H         -17.5819    9.8483   11.4851 H         1 LGV1        0.0000 
     31 H         -12.6179    2.8754   11.1371 H         1 LGV1        0.0000 
     32 H         -18.5039    7.9821   12.8662 H         1 LGV1        0.0000 
     33 H         -11.0245    1.9125   12.7049 H         1 LGV1        0.0000 
     34 H         -18.0542    2.3328   11.9289 H         1 LGV1        0.0000 
     35 H         -15.4205   -0.0075   12.3167 H         1 LGV1        0.0000 
     36 H         -16.2918    8.8485    9.5809 H         1 LGV1        0.0000 
     37 H         -18.1646   -0.0103   11.5411 H         1 LGV1        0.0000 
     38 H         -17.9903   -1.5591   12.3842 H         1 LGV1        0.0000 
     39 H         -20.0508   -1.5750   12.7812 H         1 LGV1        0.0000 
     40 H         -20.2252   -0.0262   11.9381 H         1 LGV1        0.0000 
     41 H         -18.7408   -0.7293   14.1433 H         1 LGV1        0.0000 
     42 H         -15.4798    4.1229    8.2134 H         1 LGV1        0.0000 
     43 H         -16.7270    3.0431    8.8602 H         1 LGV1        0.0000 
     44 H         -19.7040    4.0685   15.1905 H         1 LGV1        0.0000 
     45 H         -18.9650    5.7486   13.5195 H         1 LGV1        0.0000 
     46 H         -14.0097    3.5466   10.0064 H         1 LGV1        0.0000 
@<TRIPOS>BOND
     1    3    1 1    
     2    7    1 2    
     3   30    1 1    
     4    4    2 ar   
     5    8    2 ar   
     6   31    2 1    
     7    9    3 2    
     8   32    3 1    
     9   12    4 ar   
    10   33    4 1    
    11   10    5 1    
    12   11    5 2    
    13   34    5 1    
    14    8    6 ar   
    15   20    6 ar   
    16   35    6 1    
    17   25    7 1    
    18   36    7 1    
    19   15    8 1    
    20   13    9 1    
    21   25    9 1    
    22   18   10 1    
    23   24   10 2    
    24   21   11 1    
    25   26   11 1    
    26   20   12 ar   
    27   29   12 1    
    28   22   13 2    
    29   26   13 1    
    30   19   14 1    
    31   22   14 1    
    32   23   14 2    
    33   27   15 am   
    34   28   15 2    
    35   17   16 1    
    36   18   16 1    
    37   37   16 1    
    38   38   16 1    
    39   18   17 1    
    40   39   17 1    
    41   40   17 1    
    42   41   18 1    
    43   27   19 1    
    44   42   19 1    
    45   43   19 1    
    46   24   21 1    
    47   44   21 1    
    48   25   23 1    
    49   45   26 1    
    50   46   27 1    
@<TRIPOS>SUBSTRUCTURE
     1 LGV1        1 GROUP   
@<TRIPOS>SET

