#    Name: 3d28_B34_1_INTS_M
#    Modification time : Mon Mar 24 22:34:39 2014

@<TRIPOS>MOLECULE
3d28_B34_1_INTS_M
   47     0     6     0     0
SMALL
NO_CHARGES


@<TRIPOS>ATOM
      1 CA         93.3135    5.7640   54.1340 C.3       2 GLC5        0.0000 
      2 CA         93.8370    7.9020   54.1000 C.3       6 GLL5        0.0000 
      3 CA         92.7900    3.6260   54.1680 C.3       4 GLP5        0.0000 
      4 CA         96.2620    5.7180   47.1905 C.3       2 GLC5        0.0000 
      5 CA         95.1820    6.6050   48.9270 C.3       6 GLL5        0.0000 
      6 CA         97.3420    4.8310   45.4540 C.3       4 GLP5        0.0000 
      7 CA         94.6785    4.4975   48.6475 C.3       2 GLC5        0.0000 
      8 CA         94.1750    2.3900   48.3680 C.3       4 GLP5        0.0000 
      9 N          93.8020    4.8365   52.3360 N.am      1 SEC2        0.0000 
     10 N          94.2450    6.1070   51.8490 N.am      5 SEL2        0.0000 
     11 N          93.3590    3.5660   52.8230 N.am      3 SEP2        0.0000 
     12 CA         92.8560   11.5325   48.2010 C.3       2 GLC5        0.0000 
     13 CA         92.6560   10.3120   49.7390 C.3       6 GLL5        0.0000 
     14 CA         93.0560   12.7530   46.6630 C.3       4 GLP5        0.0000 
     15 CA         88.2325    9.0770   46.3800 C.3       2 GLC5        0.0000 
     16 CA         89.5480   10.2960   47.5700 C.3       6 GLL5        0.0000 
     17 CA         86.9170    7.8580   45.1900 C.3       4 GLP5        0.0000 
     18 CA         90.0450   11.2190   51.8370 C.3       2 GLC5        0.0000 
     19 CA         90.2520    9.7680   50.2360 C.3       6 GLL5        0.0000 
     20 CA         89.8380   12.6700   53.4380 C.3       4 GLP5        0.0000 
     21 CA         87.2405    8.8780   47.4140 C.3       2 GLC5        0.0000 
     22 CA         88.5720    9.8980   48.4900 C.3       6 GLL5        0.0000 
     23 CA         85.9090    7.8580   46.3380 C.3       4 GLP5        0.0000 
     24 CA         90.4525    9.7587   57.4412 C.3       2 GLC5        0.0000 
     25 CA         92.1220   10.2630   56.6000 C.3       6 GLL5        0.0000 
     26 CA         88.5400    9.5640   57.6970 C.3       4 GLP5        0.0000 
     27 CA         91.4760   11.7157   58.0028 C.3       2 GLC5        0.0000 
     28 CA         90.5870   13.4780   58.8200 C.3       4 GLP5        0.0000 
     29 CA         90.6687   10.8558   55.3490 C.3       2 GLC5        0.0000 
     30 CA         89.0450   11.6930   54.7330 C.3       4 GLP5        0.0000 
     31 CA         92.1582    6.5283   52.6347 C.3       2 GLC5        0.0000 
     32 CA         93.5820    8.2430   52.6880 C.3       6 GLL5        0.0000 
     33 CA         90.6250    5.2380   53.0860 C.3       4 GLP5        0.0000 
     34 CA         93.5716    6.8156   48.0966 C.3       2 GLC5        0.0000 
     35 CA         92.4870    6.3400   46.8070 C.3       4 GLP5        0.0000 
     36 CA         90.5132    8.0587   49.1320 C.3       2 GLC5        0.0000 
     37 CA         91.2230   10.1650   49.3120 C.3       6 GLL5        0.0000 
     38 CA         90.2890    6.1510   48.4900 C.3       4 GLP5        0.0000 
     39 CA         91.2278    8.9692   46.8593 C.3       2 GLC5        0.0000 
     40 CA         90.8790   10.4270   47.9830 C.3       6 GLL5        0.0000 
     41 CA         92.2420    7.5770   45.9420 C.3       4 GLP5        0.0000 
     42 CA         87.4715   11.1975   47.8025 C.3       2 GLC5        0.0000 
     43 CA         85.8830   12.2980   47.5750 C.3       4 GLP5        0.0000 
     44 CA         87.2370   10.3995   50.0650 C.3       2 GLC5        0.0000 
     45 CA         85.7260   11.0350   50.9750 C.3       4 GLP5        0.0000 
     46 CA         89.5185    7.9575   48.8225 C.3       2 GLC5        0.0000 
     47 CA         88.9240    9.6300   49.8200 C.3       6 GLL5        0.0000 
@<TRIPOS>BOND
@<TRIPOS>SUBSTRUCTURE
     1 SEC2        9 GROUP        1 X    SEC  0     ROOT SEC X 2
     2 GLC5        1 GROUP        1 X    GLC  0     **** GLC X 6
     3 SEP2       11 GROUP        1 Y    SEP  0     ROOT SEP Y 9
     4 GLP5        3 GROUP        1 Y    GLP  0     **** GLP Y 13
     5 SEL2       10 GROUP        1 Z    SEL  0     ROOT SEL Z 16
     6 GLL5        2 GROUP        1 Z    GLL  0     **** GLL Z 20
@<TRIPOS>SET

