#    Name: 3d28_B34_1_ligand
#    Modification time : Mon Mar 24 22:34:39 2014

@<TRIPOS>MOLECULE
3d28_B34_1_ligand
   48    51     1     0     0
SMALL
NO_CHARGES


@<TRIPOS>ATOM
      1 O26        94.0900    5.5460   56.5450 O.2       1 B34579      0.0000 
      2 S28        94.7710    6.7180   56.0330 S.o2      1 B34579      0.0000 
      3 O25        96.1290    7.0440   56.4170 O.2       1 B34579      0.0000 
      4 C12        93.7620    8.0760   56.4240 C.ar      1 B34579      0.0000 
      5 C9         93.4450    8.5250   57.6880 C.ar      1 B34579      0.0000 
      6 C5         92.6080    9.6440   57.7710 C.ar      1 B34579      0.0000 
      7 N22        94.6080    6.8900   54.4010 N.pl3     1 B34579      0.0000 
      8 C13        93.8370    7.9020   54.1000 C.2       1 B34579      0.0000 
      9 C10        93.2960    8.6630   55.2490 C.ar      1 B34579      0.0000 
     10 C6         92.4630    9.7740   55.3300 C.ar      1 B34579      0.0000 
     11 C2         92.1220   10.2630   56.6000 C.ar      1 B34579      0.0000 
     12 C14        93.5820    8.2430   52.6880 C.2       1 B34579      0.0000 
     13 C16        93.1160    9.5130   52.0700 C.2       1 B34579      0.0000 
     14 O24        92.8170   10.5320   52.6760 O.2       1 B34579      0.0000 
     15 N23        93.0760    9.3000   50.6950 N.am      1 B34579      0.0000 
     16 C17        93.5190    7.9590   50.3140 C.3       1 B34579      0.0000 
     17 C21        94.7420    7.9960   49.3770 C.3       1 B34579      0.0000 
     18 C19        95.1820    6.6050   48.9270 C.3       1 B34579      0.0000 
     19 C18        95.9530    8.7280   49.9700 C.3       1 B34579      0.0000 
     20 C15        93.8010    7.3940   51.6790 C.2       1 B34579      0.0000 
     21 O27        94.2450    6.1070   51.8490 O.co2     1 B34579      0.0000 
     22 C20        92.6560   10.3120   49.7390 C.3       1 B34579      0.0000 
     23 C11        91.2230   10.1650   49.3120 C.ar      1 B34579      0.0000 
     24 C7         90.8790   10.4270   47.9830 C.ar      1 B34579      0.0000 
     25 C3         89.5480   10.2960   47.5700 C.ar      1 B34579      0.0000 
     26 C8         90.2520    9.7680   50.2360 C.ar      1 B34579      0.0000 
     27 C4         88.9240    9.6300   49.8200 C.ar      1 B34579      0.0000 
     28 C1         88.5720    9.8980   48.4900 C.ar      1 B34579      0.0000 
     29 H          93.7940    8.0762   58.5194 H         1 B34579      0.0000 
     30 H          92.3430   10.0208   58.6887 H         1 B34579      0.0000 
     31 H          95.0863    6.2437   53.8940 H         1 B34579      0.0000 
     32 H          92.1070   10.2247   54.4926 H         1 B34579      0.0000 
     33 H          91.5081   11.0857   56.6823 H         1 B34579      0.0000 
     34 H          92.7147    7.4265   49.8788 H         1 B34579      0.0000 
     35 H          94.4490    8.5496   48.4627 H         1 B34579      0.0000 
     36 H          93.2969   10.2763   48.8333 H         1 B34579      0.0000 
     37 H          92.7915   11.3270   50.1676 H         1 B34579      0.0000 
     38 H          91.5980   10.7141   47.3124 H         1 B34579      0.0000 
     39 H          89.2901   10.4906   46.5989 H         1 B34579      0.0000 
     40 H          90.5100    9.5803   51.2065 H         1 B34579      0.0000 
     41 H          88.2050    9.3321   50.4885 H         1 B34579      0.0000 
     42 H          87.5947    9.8016   48.1912 H         1 B34579      0.0000 
     43 H          95.9743    6.6449   48.3182 H         1 B34579      0.0000 
     44 H          95.4370    6.0272   49.7023 H         1 B34579      0.0000 
     45 H          94.4558    6.1278   48.4321 H         1 B34579      0.0000 
     46 H          96.2689    8.2984   50.8160 H         1 B34579      0.0000 
     47 H          96.7281    8.7361   49.3382 H         1 B34579      0.0000 
     48 H          95.7414    9.6811   50.1865 H         1 B34579      0.0000 
@<TRIPOS>BOND
     1    2    1 2    
     2    3    2 2    
     3    4    2 1    
     4    7    2 1    
     5    5    4 ar   
     6    9    4 ar   
     7    6    5 ar   
     8   29    5 1    
     9   11    6 ar   
    10   30    6 1    
    11    8    7 2    
    12   31    7 1    
    13    9    8 1    
    14   12    8 1    
    15   10    9 ar   
    16   11   10 ar   
    17   32   10 1    
    18   33   11 1    
    19   13   12 1    
    20   20   12 2    
    21   14   13 2    
    22   15   13 am   
    23   16   15 1    
    24   22   15 1    
    25   17   16 1    
    26   20   16 1    
    27   34   16 1    
    28   18   17 1    
    29   19   17 1    
    30   35   17 1    
    31   43   18 1    
    32   44   18 1    
    33   45   18 1    
    34   46   19 1    
    35   47   19 1    
    36   48   19 1    
    37   21   20 1    
    38   23   22 1    
    39   36   22 1    
    40   37   22 1    
    41   24   23 ar   
    42   26   23 ar   
    43   25   24 ar   
    44   38   24 1    
    45   28   25 ar   
    46   39   25 1    
    47   27   26 ar   
    48   40   26 1    
    49   28   27 ar   
    50   41   27 1    
    51   42   28 1    
@<TRIPOS>SUBSTRUCTURE
     1 B34579      1 GROUP   
@<TRIPOS>SET

