#    Name: 3le8_2B5_1_INTS_M
#    Modification time : Mon Mar 24 21:33:52 2014

@<TRIPOS>MOLECULE
3le8_2B5_1_INTS_M
   84     0     6     0     0
SMALL
NO_CHARGES


@<TRIPOS>ATOM
      1 N          17.5415   13.1175   -1.3825 N.am      1 SEC2        0.0000 
      2 N          18.3090   12.2840   -0.5210 N.am      5 SEL2        0.0000 
      3 N          16.7740   13.9510   -2.2440 N.am      3 SEP2        0.0000 
      4 N          19.4095   13.1845   -1.0645 N.am      1 SEC2        0.0000 
      5 N          20.5100   14.0850   -1.6080 N.am      3 SEP2        0.0000 
      6 CA         17.7760    8.6285   -2.3115 C.3       2 GLC5        0.0000 
      7 CA         17.7310   10.1900   -1.2570 C.3       6 GLL5        0.0000 
      8 CA         17.8210    7.0670   -3.3660 C.3       4 GLP5        0.0000 
      9 CA         18.9825   11.3750   -2.3560 C.3       2 GLC5        0.0000 
     10 CA         20.2340   12.5600   -3.4550 C.3       4 GLP5        0.0000 
     11 CA         11.8895   11.4115   -4.9210 C.3       2 GLC5        0.0000 
     12 CA         11.0640    9.5750   -4.8030 C.3       6 GLL5        0.0000 
     13 CA         12.7150   13.2480   -5.0390 C.3       4 GLP5        0.0000 
     14 CA          9.7490   10.9675   -5.5925 C.3       2 GLC5        0.0000 
     15 CA          8.4340   12.3600   -6.3820 C.3       4 GLP5        0.0000 
     16 CA          9.9715    9.6385   -3.3610 C.3       2 GLC5        0.0000 
     17 CA          8.8790    9.7020   -1.9190 C.3       4 GLP5        0.0000 
     18 CA         11.3180    8.1625   -3.3255 C.3       2 GLC5        0.0000 
     19 CA         11.5720    6.7500   -1.8480 C.3       4 GLP5        0.0000 
     20 CA          9.2065    8.9195   -5.0355 C.3       2 GLC5        0.0000 
     21 CA          7.3490    8.2640   -5.2680 C.3       4 GLP5        0.0000 
     22 CA         12.1730    8.3095   -6.0795 C.3       2 GLC5        0.0000 
     23 CA         13.2820    7.0440   -7.3560 C.3       4 GLP5        0.0000 
     24 CA         11.2460   10.6585   -6.4340 C.3       2 GLC5        0.0000 
     25 CA         11.4280   11.7420   -8.0650 C.3       4 GLP5        0.0000 
     26 N          15.1630   13.3940    4.7865 N.am      1 SEC2        0.0000 
     27 N          15.3190   12.5630    3.5510 N.am      5 SEL2        0.0000 
     28 N          15.0070   14.2250    6.0220 N.am      3 SEP2        0.0000 
     29 N          14.9220   13.3305    2.3720 N.am      1 SEC2        0.0000 
     30 N          14.5250   14.0980    1.1930 N.am      3 SEP2        0.0000 
     31 CA         13.7895    8.7600   10.5785 C.3       2 GLC5        0.0000 
     32 CA         13.1810    9.2160    8.6200 C.3       6 GLL5        0.0000 
     33 CA         14.3980    8.3040   12.5370 C.3       4 GLP5        0.0000 
     34 CA         11.7225   10.0150   10.0935 C.3       2 GLC5        0.0000 
     35 CA         10.2640   10.8140   11.5670 C.3       4 GLP5        0.0000 
     36 CA         14.3370    6.2335    8.5925 C.3       2 GLC5        0.0000 
     37 CA         13.0790    7.9600    7.9790 C.3       6 GLL5        0.0000 
     38 CA         15.5950    4.5070    9.2060 C.3       4 GLP5        0.0000 
     39 CA         15.2435    8.5105   -5.9590 C.3       2 GLC5        0.0000 
     40 CA         14.7260    9.8180   -4.5820 C.3       6 GLL5        0.0000 
     41 CA         15.7610    7.2030   -7.3360 C.3       4 GLP5        0.0000 
     42 CA         11.0010   10.0100   -2.3940 C.3       2 GLC5        0.0000 
     43 CA         13.1230   10.3180   -2.8690 C.3       6 GLL5        0.0000 
     44 CA         11.9715   10.7515   -0.2285 C.3       2 GLC5        0.0000 
     45 CA         14.1330   10.7590   -0.6210 C.3       6 GLL5        0.0000 
     46 CA          9.8100   10.7440    0.1640 C.3       4 GLP5        0.0000 
     47 CA         14.5790   12.5820    1.0670 C.3       2 GLC5        0.0000 
     48 CA         15.9930   11.0120    1.1780 C.3       6 GLL5        0.0000 
     49 CA         13.1650   14.1520    0.9560 C.3       4 GLP5        0.0000 
     50 N          12.8565    9.5900   -6.6440 N.am      1 SEC2        0.0000 
     51 N          12.4150    9.8210   -5.1960 N.am      5 SEL2        0.0000 
     52 N          13.2980    9.3590   -8.0920 N.am      3 SEP2        0.0000 
     53 CA         13.3360    8.5155   -5.7885 C.3       2 GLC5        0.0000 
     54 CA         13.3900    9.9870   -4.2210 C.3       6 GLL5        0.0000 
     55 N          20.9985   11.1485   -1.3755 N.am      1 SEC2        0.0000 
     56 N          19.8310   10.7280   -0.4130 N.am      5 SEL2        0.0000 
     57 N          22.1660   11.5690   -2.3380 N.am      3 SEP2        0.0000 
     58 CA         11.5050    9.5215    7.8688 C.3       2 GLC5        0.0000 
     59 CA          9.8800   10.4550    7.4380 C.3       4 GLP5        0.0000 
     60 CA         13.3865   11.5753   -4.7203 C.3       2 GLC5        0.0000 
     61 CA         16.0312   11.2755   -5.2317 C.3       2 GLC5        0.0000 
     62 CA         15.7630    9.9440   -3.6410 C.3       6 GLL5        0.0000 
     63 CA         16.8180   12.6700   -6.3520 C.3       4 GLP5        0.0000 
     64 CA         11.8260   10.3495    7.3320 C.3       2 GLC5        0.0000 
     65 CA         13.9360   10.1640    6.5850 C.3       6 GLL5        0.0000 
     66 CA         13.2415   11.9465    6.4155 C.3       2 GLC5        0.0000 
     67 CA         13.6080   10.3240    7.8670 C.3       6 GLL5        0.0000 
     68 CA         12.7110   13.6490    5.6050 C.3       4 GLP5        0.0000 
     69 CA         11.7637    9.4277    6.8712 C.3       2 GLC5        0.0000 
     70 CA         13.8450    8.9540    5.9690 C.3       6 GLL5        0.0000 
     71 CA         12.5495    6.9313    8.7234 C.3       2 GLC5        0.0000 
     72 CA         11.8090    5.6450    9.9770 C.3       4 GLP5        0.0000 
     73 CA         13.1760   11.8148   -3.7262 C.3       2 GLC5        0.0000 
     74 CA         14.1510   10.4450   -1.9580 C.3       6 GLL5        0.0000 
     75 CA         12.4142    8.4512   -2.6965 C.3       2 GLC5        0.0000 
     76 CA         13.9740   12.4433    0.2742 C.3       2 GLC5        0.0000 
     77 CA         13.6030   12.2542    5.3590 C.3       2 GLC5        0.0000 
     78 CA         14.6050   10.6150    4.5030 C.3       6 GLL5        0.0000 
     79 CA         15.5448   11.6550    7.1348 C.3       2 GLC5        0.0000 
     80 CA         14.3850   11.1040    5.7230 C.3       6 GLL5        0.0000 
     81 CA         17.0110   12.6360    7.7950 C.3       4 GLP5        0.0000 
     82 CA         15.9376    8.2960   -3.4319 C.3       2 GLC5        0.0000 
     83 CA         15.4440   10.2470   -2.3340 C.3       6 GLL5        0.0000 
     84 CA         16.5310    6.5280   -3.6410 C.3       4 GLP5        0.0000 
@<TRIPOS>BOND
@<TRIPOS>SUBSTRUCTURE
     1 SEC2        1 GROUP        1 X    SEC  0     ROOT SEC X 2
     2 GLC5        6 GROUP        1 X    GLC  0     **** GLC X 6
     3 SEP2        3 GROUP        1 Y    SEP  0     ROOT SEP Y 9
     4 GLP5        8 GROUP        1 Y    GLP  0     **** GLP Y 13
     5 SEL2        2 GROUP        1 Z    SEL  0     ROOT SEL Z 16
     6 GLL5        7 GROUP        1 Z    GLL  0     **** GLL Z 20
@<TRIPOS>SET

