#    Name: 3le8_2B5_1_ligand
#    Modification time : Mon Mar 24 21:33:52 2014

@<TRIPOS>MOLECULE
3le8_2B5_1_ligand
   45    48     1     0     0
SMALL
NO_CHARGES


@<TRIPOS>ATOM
      1 C          18.6800   11.1590   -0.6510 C.2       1 2B5301      0.0000 
      2 N          16.2250   10.4230   -1.2310 N.pl3     1 2B5301      0.0000 
      3 O          18.3090   12.2840   -0.5210 O.co2     1 2B5301      0.0000 
      4 CA         17.7310   10.1900   -1.2570 C.3       1 2B5301      0.0000 
      5 CAA        11.0640    9.5750   -4.8030 C.3       1 2B5301      0.0000 
      6 OAC        15.3190   12.5630    3.5510 O.2       1 2B5301      0.0000 
      7 CAE        13.1810    9.2160    8.6200 C.ar      1 2B5301      0.0000 
      8 CAF        13.0790    7.9600    7.9790 C.ar      1 2B5301      0.0000 
      9 CAG        14.7260    9.8180   -4.5820 C.ar      1 2B5301      0.0000 
     10 CAH        13.6080   10.3240    7.8670 C.ar      1 2B5301      0.0000 
     11 CAI        13.4500    7.8470    6.6400 C.ar      1 2B5301      0.0000 
     12 CAJ        15.7630    9.9440   -3.6410 C.ar      1 2B5301      0.0000 
     13 CAK        13.1230   10.3180   -2.8690 C.ar      1 2B5301      0.0000 
     14 CAL        14.1330   10.7590   -0.6210 C.2       1 2B5301      0.0000 
     15 CAM        14.3850   11.1040    5.7230 C.2       1 2B5301      0.0000 
     16 CAN        15.9930   11.0120    1.1780 C.3       1 2B5301      0.0000 
     17 NAP        15.3370   10.5090    2.3940 N.am      1 2B5301      0.0000 
     18 OAQ        12.4150    9.8210   -5.1960 O.3       1 2B5301      0.0000 
     19 OAR        14.3100    9.1300    4.5280 O.3       1 2B5301      0.0000 
     20 CAT        15.0780   11.3280    3.4430 C.2       1 2B5301      0.0000 
     21 CAU        13.3900    9.9870   -4.2210 C.ar      1 2B5301      0.0000 
     22 CAV        15.4330   10.7100   -0.1940 C.2       1 2B5301      0.0000 
     23 CAW        14.6050   10.6150    4.5030 C.2       1 2B5301      0.0000 
     24 CAX        13.9360   10.1640    6.5850 C.ar      1 2B5301      0.0000 
     25 CAY        14.1510   10.4450   -1.9580 C.ar      1 2B5301      0.0000 
     26 CAZ        13.8450    8.9540    5.9690 C.ar      1 2B5301      0.0000 
     27 CBA        15.4440   10.2470   -2.3340 C.ar      1 2B5301      0.0000 
     28 OXT        19.8310   10.7280   -0.4130 O.co2     1 2B5301      0.0000 
     29 H          17.9214    9.1587   -0.8028 H         1 2B5301      0.0000 
     30 H          18.0280   10.0203   -2.3475 H         1 2B5301      0.0000 
     31 H          12.9506    9.3120    9.6009 H         1 2B5301      0.0000 
     32 H          12.7374    7.1526    8.4972 H         1 2B5301      0.0000 
     33 H          14.9653    9.5944   -5.5647 H         1 2B5301      0.0000 
     34 H          13.6561   11.2441    8.3355 H         1 2B5301      0.0000 
     35 H          13.4176    6.9256    6.1844 H         1 2B5301      0.0000 
     36 H          16.7315    9.8111   -3.9325 H         1 2B5301      0.0000 
     37 H          12.1440   10.4622   -2.5796 H         1 2B5301      0.0000 
     38 H          13.3726   10.9672   -0.1011 H         1 2B5301      0.0000 
     39 H          14.5316   12.0535    5.9813 H         1 2B5301      0.0000 
     40 H          17.0856   10.6756    1.1807 H         1 2B5301      0.0000 
     41 H          16.1014   12.1472    1.2585 H         1 2B5301      0.0000 
     42 H          15.0890    9.5085    2.4008 H         1 2B5301      0.0000 
     43 H          10.9813    8.7388   -4.2609 H         1 2B5301      0.0000 
     44 H          10.6968   10.3215   -4.2482 H         1 2B5301      0.0000 
     45 H          10.4600    9.4728   -5.5934 H         1 2B5301      0.0000 
@<TRIPOS>BOND
     1    3    1 ar   
     2    4    1 1    
     3   28    1 ar   
     4    4    2 1    
     5   22    2 1    
     6   27    2 1    
     7   29    4 1    
     8   30    4 1    
     9   18    5 1    
    10   43    5 1    
    11   44    5 1    
    12   45    5 1    
    13   20    6 2    
    14    8    7 ar   
    15   10    7 ar   
    16   31    7 1    
    17   11    8 ar   
    18   32    8 1    
    19   12    9 ar   
    20   21    9 ar   
    21   33    9 1    
    22   24   10 ar   
    23   34   10 1    
    24   26   11 ar   
    25   35   11 1    
    26   27   12 ar   
    27   36   12 1    
    28   21   13 ar   
    29   25   13 ar   
    30   37   13 1    
    31   22   14 2    
    32   25   14 1    
    33   38   14 1    
    34   23   15 2    
    35   24   15 1    
    36   39   15 1    
    37   17   16 1    
    38   22   16 1    
    39   40   16 1    
    40   41   16 1    
    41   20   17 am   
    42   42   17 1    
    43   21   18 1    
    44   23   19 1    
    45   26   19 1    
    46   23   20 1    
    47   26   24 ar   
    48   27   25 ar   
@<TRIPOS>SUBSTRUCTURE
     1 2B5301      1 GROUP   
@<TRIPOS>SET

