#    Name: 2O3T_1_CAVITY_N1_ALL.mol2
#    Modification time : Tue Mar 11 01:36:56 2014

@<TRIPOS>MOLECULE
2O3T_1_CAVITY_N1_ALL.mol2
   97     0     7     0     0
SMALL
NO_CHARGES


@<TRIPOS>ATOM
      1 O           4.8767    3.8802    6.6506 O.2       2 ALA2        0.0000 
      2 O           5.5311    4.2856    5.3632 O.2       2 ALA2        0.0000 
      3 CA          6.1855    4.6909    4.0758 C.3       6 GLY6        0.0000 
      4 O           6.1998    2.9454    5.2812 O.2       2 ALA2        0.0000 
      5 O           6.8543    3.3508    3.9938 O.2       2 ALA2        0.0000 
      6 OG          7.5230    2.0106    3.9117 O.2       1 SER1        0.0000 
      7 OG          8.1774    2.4160    2.6243 O.2       1 SER1        0.0000 
      8 OG          3.6900    5.0876    4.6799 O.2       1 SER1        0.0000 
      9 OG          4.3444    5.4930    3.3925 O.2       1 SER1        0.0000 
     10 CZ          3.7043    3.3420    5.8852 C.ar      5 PHE5        0.0000 
     11 DU          4.3587    3.7474    4.5978 H         7 CUB7        0.0000 
     12 O           5.0131    4.1528    3.3104 O.2       2 ALA2        0.0000 
     13 CZ          3.7186    1.5965    7.0906 C.ar      5 PHE5        0.0000 
     14 CZ          4.3730    2.0019    5.8032 C.ar      5 PHE5        0.0000 
     15 DU          5.0275    2.4072    4.5158 H         7 CUB7        0.0000 
     16 OG          5.6819    2.8126    3.2284 O.2       1 SER1        0.0000 
     17 DU          5.0418    0.6617    5.7211 H         7 CUB7        0.0000 
     18 DU          5.6962    1.0671    4.4337 H         7 CUB7        0.0000 
     19 OG          6.3506    1.4724    3.1463 O.2       1 SER1        0.0000 
     20 DU          6.3649   -0.2731    4.3517 H         7 CUB7        0.0000 
     21 OG          7.6738    0.5376    1.7769 O.2       1 SER1        0.0000 
     22 CA         -2.8407    3.7369    0.9348 C.3       6 GLY6        0.0000 
     23 O          -2.1720    2.3968    0.8527 O.2       2 ALA2        0.0000 
     24 O          -1.5176    2.8021   -0.4347 O.2       2 ALA2        0.0000 
     25 CA         -1.5033    1.0566    0.7707 C.3       6 GLY6        0.0000 
     26 CA         -0.8488    1.4620   -0.5167 C.3       6 GLY6        0.0000 
     27 NZ         -1.4889   -0.6889    1.9760 N.2       4 LYS4        0.0000 
     28 CA         -0.8345   -0.2836    0.6886 C.3       6 GLY6        0.0000 
     29 O           8.0267    3.8889    4.7592 O.2       2 ALA2        0.0000 
     30 CA          8.6811    4.2943    3.4718 C.3       6 GLY6        0.0000 
     31 N           2.5176    4.5494    3.9144 N.2       2 ALA2        0.0000 
     32 O           3.1720    4.9548    2.6270 O.2       2 ALA2        0.0000 
     33 CZ          3.1863    3.2092    3.8324 C.ar      5 PHE5        0.0000 
     34 CA          3.8407    3.6146    2.5450 C.3       6 GLY6        0.0000 
     35 CZ          3.2006    1.4637    5.0377 C.ar      5 PHE5        0.0000 
     36 CZ          3.8551    1.8691    3.7503 C.ar      5 PHE5        0.0000 
     37 CA          4.5095    2.2745    2.4629 C.3       6 GLY6        0.0000 
     38 CZ          3.2149   -0.2818    6.2431 C.ar      5 PHE5        0.0000 
     39 CZ          3.8694    0.1235    4.9557 C.ar      5 PHE5        0.0000 
     40 DU          4.5238    0.5289    3.6683 H         7 CUB7        0.0000 
     41 OG          5.1782    0.9343    2.3809 O.2       1 SER1        0.0000 
     42 DU          3.8837   -1.6220    6.1610 H         7 CUB7        0.0000 
     43 DU          4.5381   -1.2166    4.8736 H         7 CUB7        0.0000 
     44 DU          5.1925   -0.8113    3.5862 H         7 CUB7        0.0000 
     45 OG          5.8470   -0.4059    2.2988 O.2       1 SER1        0.0000 
     46 OG          6.5014   -0.0005    1.0115 O.2       1 SER1        0.0000 
     47 DU          5.2069   -2.5568    4.7916 H         7 CUB7        0.0000 
     48 CZ          2.0139    2.6711    3.0670 C.ar      5 PHE5        0.0000 
     49 CA          2.6684    3.0765    1.7796 C.3       6 GLY6        0.0000 
     50 CZ          2.6827    1.3309    2.9849 C.ar      5 PHE5        0.0000 
     51 CA          3.3371    1.7363    1.6975 C.3       6 GLY6        0.0000 
     52 CZ          2.0425   -0.8200    5.4777 C.ar      5 PHE5        0.0000 
     53 CZ          2.6970   -0.4146    4.1903 C.ar      5 PHE5        0.0000 
     54 DU          3.3514   -0.0093    2.9029 H         7 CUB7        0.0000 
     55 OG          4.0058    0.3961    1.6155 O.2       1 SER1        0.0000 
     56 OG          4.6603    0.8015    0.3281 O.2       1 SER1        0.0000 
     57 OD1         2.0569   -2.5655    6.6830 O.3       3 ASP3        0.0000 
     58 DU          2.7113   -2.1602    5.3956 H         7 CUB7        0.0000 
     59 DU          3.3657   -1.7548    4.1082 H         7 CUB7        0.0000 
     60 CA          4.0201   -1.3494    2.8208 C.3       6 GLY6        0.0000 
     61 CA          4.6746   -0.9440    1.5334 C.3       6 GLY6        0.0000 
     62 DU          3.3800   -3.5003    5.3136 H         7 CUB7        0.0000 
     63 O           4.0345   -3.0950    4.0262 O.2       2 ALA2        0.0000 
     64 CA          4.6889   -2.6896    2.7388 C.3       6 GLY6        0.0000 
     65 CA          3.3943   -5.2459    6.5189 C.3       6 GLY6        0.0000 
     66 O           4.0488   -4.8405    5.2315 O.2       2 ALA2        0.0000 
     67 O           4.7032   -4.4351    3.9441 O.2       2 ALA2        0.0000 
     68 N           0.1728    3.4731    2.3836 N.2       2 ALA2        0.0000 
     69 N           0.8272    3.8785    1.0962 N.2       2 ALA2        0.0000 
     70 CZ          0.8415    2.1329    2.3015 C.ar      5 PHE5        0.0000 
     71 OG          1.4960    2.5383    1.0141 O.2       1 SER1        0.0000 
     72 CA          2.1504    2.9437   -0.2733 C.3       6 GLY6        0.0000 
     73 CZ          1.5103    0.7928    2.2195 C.ar      5 PHE5        0.0000 
     74 OG          2.1647    1.1981    0.9321 O.2       1 SER1        0.0000 
     75 CZ          0.8702   -1.3582    4.7122 C.ar      5 PHE5        0.0000 
     76 CZ          1.5246   -0.9528    3.4248 C.ar      5 PHE5        0.0000 
     77 CZ          2.1790   -0.5474    2.1374 C.ar      5 PHE5        0.0000 
     78 OG          2.8334   -0.1420    0.8500 O.2       1 SER1        0.0000 
     79 OD1         1.5389   -2.6983    4.6302 O.3       3 ASP3        0.0000 
     80 CZ          2.1933   -2.2930    3.3428 C.ar      5 PHE5        0.0000 
     81 CZ          2.8478   -1.8876    2.0554 C.ar      5 PHE5        0.0000 
     82 OD1         1.5532   -4.4439    5.8355 O.3       3 ASP3        0.0000 
     83 CZ          2.2076   -4.0385    4.5481 C.ar      5 PHE5        0.0000 
     84 CZ          2.8621   -3.6331    3.2608 C.ar      5 PHE5        0.0000 
     85 O          -0.9996    2.9349    1.6182 O.2       2 ALA2        0.0000 
     86 N          -0.3452    3.3403    0.3308 N.2       2 ALA2        0.0000 
     87 CZ         -0.3309    1.5948    1.5361 C.ar      5 PHE5        0.0000 
     88 OG          0.3236    2.0001    0.2487 O.2       1 SER1        0.0000 
     89 O           0.9780    2.4055   -1.0387 O.2       2 ALA2        0.0000 
     90 CZ          0.3379    0.2546    1.4541 C.ar      5 PHE5        0.0000 
     91 OG          0.9923    0.6600    0.1667 O.2       1 SER1        0.0000 
     92 CZ         -0.3022   -1.8963    3.9468 C.ar      5 PHE5        0.0000 
     93 CZ          0.3522   -1.4909    2.6594 C.ar      5 PHE5        0.0000 
     94 CZ          1.0066   -1.0856    1.3720 C.ar      5 PHE5        0.0000 
     95 CZ          1.6610   -0.6802    0.0846 C.ar      5 PHE5        0.0000 
     96 NZ          0.3665   -3.2365    3.8648 N.2       4 LYS4        0.0000 
     97 CZ          1.0209   -2.8311    2.5774 C.ar      5 PHE5        0.0000 
@<TRIPOS>BOND
@<TRIPOS>SUBSTRUCTURE
     1 SER1        6 GROUP   
     2 ALA2        1 GROUP   
     3 ASP3       57 GROUP   
     4 LYS4       27 GROUP   
     5 PHE5       10 GROUP   
     6 GLY6        3 GROUP   
     7 CUB7       11 GROUP   
@<TRIPOS>SET

