#    Name: 2o3t_CGR_1_INTS_M
#    Modification time : Tue Mar 25 21:57:52 2014

@<TRIPOS>MOLECULE
2o3t_CGR_1_INTS_M
   66     0    12     0     0
SMALL
NO_CHARGES


@<TRIPOS>ATOM
      1 N           6.2870    4.6300    2.3215 N.am      2 SEC2        0.0000 
      2 N           5.7850    3.9130    3.3840 N.am     10 SEL2        0.0000 
      3 N           6.7890    5.3470    1.2590 N.am      6 SEP2        0.0000 
      4 N           3.7715    6.8305    4.0380 N.am      2 SEC2        0.0000 
      5 N           3.9140    5.7890    3.0980 N.am     10 SEL2        0.0000 
      6 N           3.6290    7.8720    4.9780 N.am      6 SEP2        0.0000 
      7 N           4.1525    6.1505    1.7290 N.am      2 SEC2        0.0000 
      8 N           4.3910    6.5120    0.3600 N.am      6 SEP2        0.0000 
      9 N           3.7425    6.1285    5.0365 N.am      2 SEC2        0.0000 
     10 N           3.8560    4.3850    5.0950 N.am     10 SEL2        0.0000 
     11 NZ          6.0960    4.9735    6.8860 N.4       3 LYC4        0.0000 
     12 NZ          5.8520    3.7070    6.5650 N.4      11 LYL4        0.0000 
     13 NZ          7.5190    6.8690    7.1890 N.4       7 LYP4        0.0000 
     14 N           6.0960    4.9735    6.8860 N.am      2 SEC2        0.0000 
     15 N           5.8520    3.7070    6.5650 N.am     10 SEL2        0.0000 
     16 N           6.3400    6.2400    7.2070 N.am      6 SEP2        0.0000 
     17 N           2.7280    4.6515    7.5425 N.am      2 SEC2        0.0000 
     18 N           3.4700    3.4710    7.3620 N.am     10 SEL2        0.0000 
     19 N           1.9860    5.8320    7.7230 N.am      6 SEP2        0.0000 
     20 CA          1.2920    3.0470    4.3625 C.3       4 GLC5        0.0000 
     21 CA          1.9530    3.6190    2.8140 C.3      12 GLL5        0.0000 
     22 CA          0.6310    2.4750    5.9110 C.3       8 GLP5        0.0000 
     23 CA          1.6850    5.3105    4.2380 C.3       4 GLC5        0.0000 
     24 CA          1.4170    7.0020    5.6620 C.3       8 GLP5        0.0000 
     25 CA          3.4885    3.7230    0.7475 C.3       4 GLC5        0.0000 
     26 CA          1.3950    3.9080    1.4090 C.3      12 GLL5        0.0000 
     27 CA          5.5820    3.5380    0.0860 C.3       8 GLP5        0.0000 
     28 CA          2.0170    5.9900    1.2425 C.3       4 GLC5        0.0000 
     29 CA          2.6390    8.0720    1.0760 C.3       8 GLP5        0.0000 
     30 CA          1.7825    1.6655   -1.5265 C.3       4 GLC5        0.0000 
     31 CA          0.9710    1.8380    0.2700 C.3      12 GLL5        0.0000 
     32 CA          2.5940    1.4930   -3.3230 C.3       8 GLP5        0.0000 
     33 CA          2.9445    2.4720   -0.4865 C.3       4 GLC5        0.0000 
     34 CA          4.9180    3.1060   -1.2430 C.3       8 GLP5        0.0000 
     35 N          -0.6090    3.2705   -1.5995 N.am      2 SEC2        0.0000 
     36 N          -1.2540    2.5410   -0.4180 N.am     10 SEL2        0.0000 
     37 N           0.0360    4.0000   -2.7810 N.am      6 SEP2        0.0000 
     38 N          -1.5180    5.6335    1.6835 N.am      2 SEC2        0.0000 
     39 N          -0.7490    4.8460    0.7540 N.am     10 SEL2        0.0000 
     40 N          -2.2870    6.4210    2.6130 N.am      6 SEP2        0.0000 
     41 O          -0.0435    5.2675   -0.3035 O.2       1 ALC1        0.0000 
     42 O          -0.7490    4.8460    0.7540 O.2       9 ALL1        0.0000 
     43 O           0.6620    5.6890   -1.3610 O.2       5 ALP1        0.0000 
     44 CA          2.3895   -1.2240    0.6135 C.3       4 GLC5        0.0000 
     45 CA          2.8280    0.7560    1.5580 C.3      12 GLL5        0.0000 
     46 CA          1.9510   -3.2040   -0.3310 C.3       8 GLP5        0.0000 
     47 CA          4.2050    2.1470    0.8220 C.3       4 GLC5        0.0000 
     48 CA          4.4065   -2.1465    1.6020 C.3       4 GLC5        0.0000 
     49 CA          4.3290   -0.6580    3.0440 C.3      12 GLL5        0.0000 
     50 CA          4.4840   -3.6350    0.1600 C.3       8 GLP5        0.0000 
     51 CA          5.4790    1.9825    1.4790 C.3       4 GLC5        0.0000 
     52 CA          5.3760    0.4270    2.8720 C.3      12 GLL5        0.0000 
     53 O           6.3320    1.4190    1.0075 O.2       1 ALC1        0.0000 
     54 O           6.0280    0.2280    1.6060 O.2       9 ALL1        0.0000 
     55 O           6.6360    2.6100    0.4090 O.2       5 ALP1        0.0000 
     56 O          -0.7205   -4.3900    4.8130 O.2       1 ALC1        0.0000 
     57 O           0.0910   -3.6330    3.9820 O.2       9 ALL1        0.0000 
     58 O          -1.5320   -5.1470    5.6440 O.2       5 ALP1        0.0000 
     59 O          -1.7080   -2.6840    2.5345 O.2       1 ALC1        0.0000 
     60 O          -0.6160   -1.9560    2.5170 O.2       9 ALL1        0.0000 
     61 O          -2.8000   -3.4120    2.5520 O.2       5 ALP1        0.0000 
     62 CA         -0.5308    0.7438   -0.9095 C.3       4 GLC5        0.0000 
     63 CA         -0.3880    2.3690    0.7320 C.3      12 GLL5        0.0000 
     64 CA         -1.3530   -0.6160   -2.3200 C.3       8 GLP5        0.0000 
     65 CA         -0.9795    2.5955    2.7670 C.3       4 GLC5        0.0000 
     66 CA         -1.7010    2.1480    4.4550 C.3       8 GLP5        0.0000 
@<TRIPOS>BOND
@<TRIPOS>SUBSTRUCTURE
     1 ALC1       41 GROUP        1 X    ALC  0     ROOT ALC X 1
     2 SEC2        1 GROUP        1 X    SEC  0     **** SEC X 2
     3 LYC4       11 GROUP        1 X    LYC  0     **** LYC X 4
     4 GLC5       20 GROUP        1 X    GLC  0     **** GLC X 6
     5 ALP1       43 GROUP        1 Y    ALP  0     ROOT ALP Y 8
     6 SEP2        3 GROUP        1 Y    SEP  0     **** SEP Y 9
     7 LYP4       13 GROUP        1 Y    LYP  0     **** LYP Y 11
     8 GLP5       22 GROUP        1 Y    GLP  0     **** GLP Y 13
     9 ALL1       42 GROUP        1 Z    ALL  0     ROOT ALL Z 15
    10 SEL2        2 GROUP        1 Z    SEL  0     **** SEL Z 16
    11 LYL4       12 GROUP        1 Z    LYL  0     **** LYL Z 18
    12 GLL5       21 GROUP        1 Z    GLL  0     **** GLL Z 20
@<TRIPOS>SET

