#    Name: 2o3t_CGR_1_ligand
#    Modification time : Tue Mar 25 21:57:52 2014

@<TRIPOS>MOLECULE
2o3t_CGR_1_ligand
   57    61     1     0     0
SMALL
NO_CHARGES


@<TRIPOS>ATOM
      1 O2B         5.7850    3.9130    3.3840 O.co2     1 CGR301      0.0000 
      2 PB          4.3660    4.4240    3.5620 P.3       1 CGR301      0.0000 
      3 O1B         3.9140    5.7890    3.0980 O.co2     1 CGR301      0.0000 
      4 O3          3.8560    4.3850    5.0950 O.3       1 CGR301      0.0000 
      5 PA          4.4160    3.3560    6.2180 P.3       1 CGR301      0.0000 
      6 O2A         5.8520    3.7070    6.5650 O.co2     1 CGR301      0.0000 
      7 O1A         3.4700    3.4710    7.3620 O.co2     1 CGR301      0.0000 
      8 O5'R        3.3940    3.4080    2.7840 O.3       1 CGR301      0.0000 
      9 C5'R        1.9530    3.6190    2.8140 C.3       1 CGR301      0.0000 
     10 C4'R        1.3950    3.9080    1.4090 C.3       1 CGR301      0.0000 
     11 O4'R        1.8640    2.9730    0.3920 O.3       1 CGR301      0.0000 
     12 C1'R        0.9710    1.8380    0.2700 C.3       1 CGR301      0.0000 
     13 C2'R       -0.3880    2.3690    0.7320 C.3       1 CGR301      0.0000 
     14 O2'R       -1.2540    2.5410   -0.4180 O.3       1 CGR301      0.0000 
     15 C3'R       -0.1280    3.7170    1.4260 C.3       1 CGR301      0.0000 
     16 O3'R       -0.7490    4.8460    0.7540 O.3       1 CGR301      0.0000 
     17 N7          1.5280    0.7730    1.1730 N.pl3     1 CGR301      0.0000 
     18 C8          2.8280    0.7560    1.5580 C.3       1 CGR301      0.0000 
     19 N9          3.0600   -0.2870    2.3840 N.pl3     1 CGR301      0.0000 
     20 C1'         4.3290   -0.6580    3.0440 C.3       1 CGR301      0.0000 
     21 O4'         4.0840   -0.7670    4.4370 O.3       1 CGR301      0.0000 
     22 C2'         5.3760    0.4270    2.8720 C.3       1 CGR301      0.0000 
     23 O2'         6.0280    0.2280    1.6060 O.3       1 CGR301      0.0000 
     24 C3'         6.2370    0.2230    4.1000 C.3       1 CGR301      0.0000 
     25 O3'         7.2350   -0.7850    3.8010 O.3       1 CGR301      0.0000 
     26 C4'         5.2590   -0.3030    5.1440 C.3       1 CGR301      0.0000 
     27 C5'         4.8030    0.7410    6.1520 C.3       1 CGR301      0.0000 
     28 O5'         4.3180    1.9260    5.4960 O.3       1 CGR301      0.0000 
     29 C4A         1.9240   -0.9580    2.5500 C.2       1 CGR301      0.0000 
     30 C5A         0.9560   -0.3120    1.8040 C.2       1 CGR301      0.0000 
     31 N3A         1.6390   -2.0550    3.2800 N.2       1 CGR301      0.0000 
     32 C2A         0.3740   -2.5430    3.2560 C.2       1 CGR301      0.0000 
     33 N2A         0.0910   -3.6330    3.9820 N.pl3     1 CGR301      0.0000 
     34 N1A        -0.6160   -1.9560    2.5170 N.am      1 CGR301      0.0000 
     35 C6A        -0.3410   -0.8390    1.7700 C.2       1 CGR301      0.0000 
     36 O6A        -1.2530   -0.3290    1.0840 O.2       1 CGR301      0.0000 
     37 H           1.6916    4.4687    3.4599 H         1 CGR301      0.0000 
     38 H           1.4324    2.7343    3.2061 H         1 CGR301      0.0000 
     39 H           1.5933    4.9135    1.1352 H         1 CGR301      0.0000 
     40 H           0.9141    1.5119   -0.7216 H         1 CGR301      0.0000 
     41 H          -0.7912    1.6916    1.4445 H         1 CGR301      0.0000 
     42 H          -0.4294    3.6373    2.4490 H         1 CGR301      0.0000 
     43 H           3.1059    1.7282    2.0547 H         1 CGR301      0.0000 
     44 H           3.5059    0.7120    0.6593 H         1 CGR301      0.0000 
     45 H           4.7071   -1.5689    2.6451 H         1 CGR301      0.0000 
     46 H           4.8723    1.3609    2.9514 H         1 CGR301      0.0000 
     47 H           6.6318    1.1317    4.4099 H         1 CGR301      0.0000 
     48 H           5.7135   -1.1252    5.6677 H         1 CGR301      0.0000 
     49 H           5.6556    0.9707    6.8116 H         1 CGR301      0.0000 
     50 H           4.0217    0.2856    6.7820 H         1 CGR301      0.0000 
     51 H          -0.8553   -3.7211    4.2929 H         1 CGR301      0.0000 
     52 H           0.8514   -4.2608    4.1479 H         1 CGR301      0.0000 
     53 H          -1.5716   -2.3527    2.5203 H         1 CGR301      0.0000 
     54 H          -1.7357    3.4017   -0.2527 H         1 CGR301      0.0000 
     55 H          -0.1535    5.0430   -0.0248 H         1 CGR301      0.0000 
     56 H           6.2313    1.1485    1.2722 H         1 CGR301      0.0000 
     57 H           7.3549   -0.7441    2.8091 H         1 CGR301      0.0000 
@<TRIPOS>BOND
     1    2    1 ar   
     2    3    2 ar   
     3    4    2 1    
     4    8    2 1    
     5    5    4 1    
     6    6    5 ar   
     7    7    5 ar   
     8   28    5 1    
     9    9    8 1    
    10   10    9 1    
    11   37    9 1    
    12   38    9 1    
    13   11   10 1    
    14   15   10 1    
    15   39   10 1    
    16   12   11 1    
    17   13   12 1    
    18   17   12 1    
    19   40   12 1    
    20   14   13 1    
    21   15   13 1    
    22   41   13 1    
    23   54   14 1    
    24   16   15 1    
    25   42   15 1    
    26   55   16 1    
    27   18   17 1    
    28   30   17 1    
    29   19   18 1    
    30   43   18 1    
    31   44   18 1    
    32   20   19 1    
    33   29   19 1    
    34   21   20 1    
    35   22   20 1    
    36   45   20 1    
    37   26   21 1    
    38   23   22 1    
    39   24   22 1    
    40   46   22 1    
    41   56   23 1    
    42   25   24 1    
    43   26   24 1    
    44   47   24 1    
    45   57   25 1    
    46   27   26 1    
    47   48   26 1    
    48   28   27 1    
    49   49   27 1    
    50   50   27 1    
    51   30   29 2    
    52   31   29 1    
    53   35   30 1    
    54   32   31 2    
    55   33   32 1    
    56   34   32 1    
    57   51   33 1    
    58   52   33 1    
    59   35   34 am   
    60   53   34 1    
    61   36   35 2    
@<TRIPOS>SUBSTRUCTURE
     1 CGR301      1 GROUP   
@<TRIPOS>SET

