#    Name: 1v2x_SAM_1_INTS_M
#    Modification time : Tue Mar 25 07:27:51 2014

@<TRIPOS>MOLECULE
1v2x_SAM_1_INTS_M
   78     0     9     0     0
SMALL
NO_CHARGES


@<TRIPOS>ATOM
      1 O         -14.3680   -9.5795    6.6110 O.2       1 ALC1        0.0000 
      2 O         -14.5080   -8.3170    6.4880 O.2       7 ALL1        0.0000 
      3 O         -14.2280  -10.8420    6.7340 O.2       4 ALP1        0.0000 
      4 CA        -12.1885   -3.6075    6.3920 C.3       3 GLC5        0.0000 
      5 CA        -11.7600   -5.5840    6.3890 C.3       9 GLL5        0.0000 
      6 CA        -12.6170   -1.6310    6.3950 C.3       6 GLP5        0.0000 
      7 CA        -11.8945   -6.0070    8.2570 C.3       3 GLC5        0.0000 
      8 CA        -12.0290   -6.4300   10.1250 C.3       6 GLP5        0.0000 
      9 CA         -9.4445   -8.7740    5.6915 C.3       3 GLC5        0.0000 
     10 CA        -10.3960   -7.3530    4.5070 C.3       9 GLL5        0.0000 
     11 CA         -8.4930  -10.1950    6.8760 C.3       6 GLP5        0.0000 
     12 CA        -11.3275   -5.6500    3.5405 C.3       3 GLC5        0.0000 
     13 CA        -12.2590   -3.9470    2.5740 C.3       6 GLP5        0.0000 
     14 CA         -8.5880   -8.1085    6.7765 C.3       3 GLC5        0.0000 
     15 CA         -8.6830   -6.0220    6.6770 C.3       9 GLL5        0.0000 
     16 CA         -7.0200   -3.8240   10.0515 C.3       3 GLC5        0.0000 
     17 CA         -8.3600   -4.5850    8.4570 C.3       9 GLL5        0.0000 
     18 CA         -5.6800   -3.0630   11.6460 C.3       6 GLP5        0.0000 
     19 CA         -8.2085   -5.3075   10.1350 C.3       3 GLC5        0.0000 
     20 CA         -8.0570   -6.0300   11.8130 C.3       6 GLP5        0.0000 
     21 CA        -10.1945   -5.5075    9.2910 C.3       3 GLC5        0.0000 
     22 CA         -6.5550   -5.1035    8.0120 C.3       3 GLC5        0.0000 
     23 CA         -4.7500   -5.6220    7.5670 C.3       6 GLP5        0.0000 
     24 O          -7.1400   -6.0445    9.4115 O.2       1 ALC1        0.0000 
     25 O          -7.0280   -4.9060    8.9520 O.2       7 ALL1        0.0000 
     26 O          -7.2520   -7.1830    9.8710 O.2       4 ALP1        0.0000 
     27 CA         -8.3915   -1.1360    8.9930 C.3       3 GLC5        0.0000 
     28 CA         -8.5660   -3.1260    8.1430 C.3       9 GLL5        0.0000 
     29 CA         -8.2170    0.8540    9.8430 C.3       6 GLP5        0.0000 
     30 N          -7.5220   -3.6285   10.1785 N.am      2 SEC2        0.0000 
     31 N          -7.6860   -2.4410    8.9500 N.am      8 SEL2        0.0000 
     32 N          -7.3580   -4.8160   11.4070 N.am      5 SEP2        0.0000 
     33 O          -7.7765   -1.4450    9.6350 O.2       1 ALC1        0.0000 
     34 O          -7.6860   -2.4410    8.9500 O.2       7 ALL1        0.0000 
     35 O          -7.8670   -0.4490   10.3200 O.2       4 ALP1        0.0000 
     36 CA        -10.5905   -2.2700    6.5075 C.3       3 GLC5        0.0000 
     37 CA         -8.5640   -2.9090    6.6200 C.3       9 GLL5        0.0000 
     38 CA         -7.0525   -1.9680    5.6120 C.3       3 GLC5        0.0000 
     39 CA         -5.5410   -1.0270    4.6040 C.3       6 GLP5        0.0000 
     40 N          -9.6960   -2.2340    2.3915 N.am      2 SEC2        0.0000 
     41 N          -9.5650   -1.4920    3.6540 N.am      8 SEL2        0.0000 
     42 N          -9.8270   -2.9760    1.1290 N.am      5 SEP2        0.0000 
     43 CA        -11.6120    0.1020    4.1145 C.3       3 GLC5        0.0000 
     44 CA         -9.8220    1.0160    4.0120 C.3       9 GLL5        0.0000 
     45 CA        -13.4020   -0.8120    4.2170 C.3       6 GLP5        0.0000 
     46 CA        -11.2540    2.5970    4.5505 C.3       3 GLC5        0.0000 
     47 CA        -12.6860    4.1780    5.0890 C.3       6 GLP5        0.0000 
     48 CA         -8.9475    2.4945    3.4005 C.3       3 GLC5        0.0000 
     49 CA         -8.0730    3.9730    2.7890 C.3       6 GLP5        0.0000 
     50 CA         -9.9110    1.6130    1.9805 C.3       3 GLC5        0.0000 
     51 CA        -10.0000    2.2100   -0.0510 C.3       6 GLP5        0.0000 
     52 O         -10.6745    2.7065    2.4310 O.2       1 ALC1        0.0000 
     53 O         -10.3290    1.3110    2.8380 O.2       7 ALL1        0.0000 
     54 O         -11.0200    4.1020    2.0240 O.2       4 ALP1        0.0000 
     55 N          -9.7100    3.2980    4.7285 N.am      2 SEC2        0.0000 
     56 N          -9.6030    1.9340    4.9930 N.am      8 SEL2        0.0000 
     57 N          -9.8170    4.6620    4.4640 N.am      5 SEP2        0.0000 
     58 CA         -8.6530    1.2390    8.0505 C.3       3 GLC5        0.0000 
     59 CA         -9.0890    1.6240    6.2580 C.3       9 GLL5        0.0000 
     60 CA         -9.9620    3.3470    6.4370 C.3       3 GLC5        0.0000 
     61 CA        -10.8350    5.0700    6.6160 C.3       6 GLP5        0.0000 
     62 CA         -7.9890    2.8155    5.0105 C.3       3 GLC5        0.0000 
     63 CA         -6.8890    4.0070    3.7630 C.3       6 GLP5        0.0000 
     64 CA         -8.5910    0.1425    7.7795 C.3       3 GLC5        0.0000 
     65 CA         -8.9650   -0.5690    5.7160 C.3       9 GLL5        0.0000 
     66 CA        -13.6463   -8.1575    7.8315 C.3       3 GLC5        0.0000 
     67 CA        -12.6930   -6.7160    6.2900 C.3       9 GLL5        0.0000 
     68 CA        -13.9410   -9.4990    9.0620 C.3       6 GLP5        0.0000 
     69 CA        -12.6903   -6.6230    8.3630 C.3       3 GLC5        0.0000 
     70 CA        -14.0100   -6.9160    6.9120 C.3       9 GLL5        0.0000 
     71 CA        -11.6345   -4.8197    4.2328 C.3       3 GLC5        0.0000 
     72 CA         -6.8950   -5.9893    6.5968 C.3       3 GLC5        0.0000 
     73 CA         -5.1490   -6.3420    6.2980 C.3       6 GLP5        0.0000 
     74 CA        -10.9158   -1.0482    5.7235 C.3       3 GLC5        0.0000 
     75 CA         -8.3730    0.3355    2.4555 C.3       3 GLC5        0.0000 
     76 CA         -9.4640   -0.3620    4.3880 C.3       9 GLL5        0.0000 
     77 CA         -7.1030    0.3440    0.7110 C.3       6 GLP5        0.0000 
     78 CA         -7.3778   -0.7462    4.8280 C.3       3 GLC5        0.0000 
@<TRIPOS>BOND
@<TRIPOS>SUBSTRUCTURE
     1 ALC1        1 GROUP        1 X    ALC  0     ROOT ALC X 1
     2 SEC2       30 GROUP        1 X    SEC  0     **** SEC X 2
     3 GLC5        4 GROUP        1 X    GLC  0     **** GLC X 6
     4 ALP1        3 GROUP        1 Y    ALP  0     ROOT ALP Y 8
     5 SEP2       32 GROUP        1 Y    SEP  0     **** SEP Y 9
     6 GLP5        6 GROUP        1 Y    GLP  0     **** GLP Y 13
     7 ALL1        2 GROUP        1 Z    ALL  0     ROOT ALL Z 15
     8 SEL2       31 GROUP        1 Z    SEL  0     **** SEL Z 16
     9 GLL5        5 GROUP        1 Z    GLL  0     **** GLL Z 20
@<TRIPOS>SET

