#    Name: 1v2x_SAM_1_ligand
#    Modification time : Tue Mar 25 07:27:51 2014

@<TRIPOS>MOLECULE
1v2x_SAM_1_ligand
   50    52     1     0     0
SMALL
NO_CHARGES


@<TRIPOS>ATOM
      1 N         -14.5080   -8.3170    6.4880 N.4       1 SAM400      0.0000 
      2 CA        -14.0100   -6.9160    6.9120 C.3       1 SAM400      0.0000 
      3 C         -14.9880   -5.9450    6.4300 C.2       1 SAM400      0.0000 
      4 O         -15.6130   -6.2930    5.3630 O.co2     1 SAM400      0.0000 
      5 OXT       -15.1410   -4.8640    7.1100 O.co2     1 SAM400      0.0000 
      6 CB        -12.6930   -6.7160    6.2900 C.3       1 SAM400      0.0000 
      7 CG        -11.7600   -5.5840    6.3890 C.3       1 SAM400      0.0000 
      8 SD        -10.2600   -5.8010    5.3940 S.3       1 SAM400      0.0000 
      9 CE        -10.3960   -7.3530    4.5070 C.3       1 SAM400      0.0000 
     10 C5'        -8.6830   -6.0220    6.6770 C.3       1 SAM400      0.0000 
     11 C4'        -8.5990   -5.2510    7.1140 C.3       1 SAM400      0.0000 
     12 O4'        -8.6410   -4.1840    6.1350 O.3       1 SAM400      0.0000 
     13 C3'        -8.3600   -4.5850    8.4570 C.3       1 SAM400      0.0000 
     14 O3'        -7.0280   -4.9060    8.9520 O.3       1 SAM400      0.0000 
     15 C2'        -8.5660   -3.1260    8.1430 C.3       1 SAM400      0.0000 
     16 O2'        -7.6860   -2.4410    8.9500 O.3       1 SAM400      0.0000 
     17 C1'        -8.5640   -2.9090    6.6200 C.3       1 SAM400      0.0000 
     18 N9         -8.8330   -1.8910    5.7510 N.pl3     1 SAM400      0.0000 
     19 C8         -9.1960   -2.3820    4.4700 C.2       1 SAM400      0.0000 
     20 N7         -9.5650   -1.4920    3.6540 N.2       1 SAM400      0.0000 
     21 C5         -9.4640   -0.3620    4.3880 C.ar      1 SAM400      0.0000 
     22 C6         -9.8220    1.0160    4.0120 C.ar      1 SAM400      0.0000 
     23 N6        -10.3290    1.3110    2.8380 N.pl3     1 SAM400      0.0000 
     24 N1         -9.6030    1.9340    4.9930 N.ar      1 SAM400      0.0000 
     25 C2         -9.0890    1.6240    6.2580 C.ar      1 SAM400      0.0000 
     26 N3         -8.7660    0.3580    6.6740 N.ar      1 SAM400      0.0000 
     27 C4         -8.9650   -0.5690    5.7160 C.ar      1 SAM400      0.0000 
     28 H         -13.9404   -6.9079    7.9708 H         1 SAM400      0.0000 
     29 H         -12.8339   -6.9348    5.1265 H         1 SAM400      0.0000 
     30 H         -12.0575   -7.6970    6.5252 H         1 SAM400      0.0000 
     31 H         -11.3411   -5.4254    7.3765 H         1 SAM400      0.0000 
     32 H         -12.1409   -4.6459    6.0008 H         1 SAM400      0.0000 
     33 H          -8.0668   -6.4684    5.7572 H         1 SAM400      0.0000 
     34 H          -9.1701   -7.0592    7.0117 H         1 SAM400      0.0000 
     35 H         -10.0038   -4.9884    7.2904 H         1 SAM400      0.0000 
     36 H          -9.1351   -4.9077    9.1173 H         1 SAM400      0.0000 
     37 H          -9.6298   -2.9301    8.4843 H         1 SAM400      0.0000 
     38 H          -7.2146   -2.9002    6.5498 H         1 SAM400      0.0000 
     39 H          -9.1364   -3.3772    4.3039 H         1 SAM400      0.0000 
     40 H         -10.5265    2.2775    2.6743 H         1 SAM400      0.0000 
     41 H         -10.4715    0.5423    2.2145 H         1 SAM400      0.0000 
     42 H          -8.9439    2.4310    6.9315 H         1 SAM400      0.0000 
     43 H         -14.5925   -8.3962    5.4947 H         1 SAM400      0.0000 
     44 H         -13.8846   -9.0392    6.7877 H         1 SAM400      0.0000 
     45 H         -15.4058   -8.5252    6.8760 H         1 SAM400      0.0000 
     46 H          -9.5909   -7.5288    3.9406 H         1 SAM400      0.0000 
     47 H         -10.4915   -8.1296    5.1298 H         1 SAM400      0.0000 
     48 H         -11.1901   -7.3652    3.8994 H         1 SAM400      0.0000 
     49 H          -6.9651   -5.9025    8.8976 H         1 SAM400      0.0000 
     50 H          -8.2374   -1.7336    9.3921 H         1 SAM400      0.0000 
@<TRIPOS>BOND
     1    2    1 1    
     2   43    1 1    
     3   44    1 1    
     4   45    1 1    
     5    3    2 1    
     6    6    2 1    
     7   28    2 1    
     8    4    3 ar   
     9    5    3 ar   
    10    7    6 1    
    11   29    6 1    
    12   30    6 1    
    13    8    7 1    
    14   31    7 1    
    15   32    7 1    
    16    9    8 1    
    17   10    8 1    
    18   46    9 1    
    19   47    9 1    
    20   48    9 1    
    21   11   10 1    
    22   33   10 1    
    23   34   10 1    
    24   12   11 1    
    25   13   11 1    
    26   35   11 1    
    27   17   12 1    
    28   14   13 1    
    29   15   13 1    
    30   36   13 1    
    31   49   14 1    
    32   16   15 1    
    33   17   15 1    
    34   37   15 1    
    35   50   16 1    
    36   18   17 1    
    37   38   17 1    
    38   19   18 1    
    39   27   18 1    
    40   20   19 2    
    41   39   19 1    
    42   21   20 1    
    43   22   21 ar   
    44   27   21 ar   
    45   23   22 1    
    46   24   22 ar   
    47   40   23 1    
    48   41   23 1    
    49   25   24 ar   
    50   26   25 ar   
    51   42   25 1    
    52   27   26 ar   
@<TRIPOS>SUBSTRUCTURE
     1 SAM400      1 GROUP   
@<TRIPOS>SET

