#    Name: 1ay0_TPP_1_INTS_M
#    Modification time : Mon Mar 24 18:58:56 2014

@<TRIPOS>MOLECULE
1ay0_TPP_1_INTS_M
   70     0     9     0     0
SMALL
NO_CHARGES


@<TRIPOS>ATOM
      1 CA         -1.2025   59.2320   19.0550 C.3       3 GLC5        0.0000 
      2 CA         -2.3220   60.0650   20.5740 C.3       9 GLL5        0.0000 
      3 CA         -0.0830   58.3990   17.5360 C.3       6 GLP5        0.0000 
      4 CA         -2.9885   61.3580   22.2890 C.3       3 GLC5        0.0000 
      5 CA         -3.6550   62.6510   24.0040 C.3       6 GLP5        0.0000 
      6 CA         -0.1520   59.0210   19.8505 C.3       3 GLC5        0.0000 
      7 CA         -1.0400   60.4000   21.1020 C.3       9 GLL5        0.0000 
      8 CA          0.7360   57.6420   18.5990 C.3       6 GLP5        0.0000 
      9 CA         -1.8235   60.3990   22.8100 C.3       3 GLC5        0.0000 
     10 CA         -2.6070   60.3980   24.5180 C.3       6 GLP5        0.0000 
     11 CA          0.4285   60.5945   21.9400 C.3       3 GLC5        0.0000 
     12 CA          1.8970   60.7890   22.7780 C.3       6 GLP5        0.0000 
     13 N          -1.4025   58.1960   20.2850 N.am      2 SEC2        0.0000 
     14 N          -2.7990   58.8630   20.7290 N.am      8 SEL2        0.0000 
     15 N          -0.0060   57.5290   19.8410 N.am      5 SEP2        0.0000 
     16 CA         -2.2835   57.4845   21.0110 C.3       3 GLC5        0.0000 
     17 CA         -3.9750   58.5180   20.0740 C.3       9 GLL5        0.0000 
     18 CA         -0.5920   56.4510   21.9480 C.3       6 GLP5        0.0000 
     19 CA         -2.7150   58.1455   18.6420 C.3       3 GLC5        0.0000 
     20 CA         -1.4550   57.7730   17.2100 C.3       6 GLP5        0.0000 
     21 O          -3.2600   56.0625   20.2565 O.2       1 ALC1        0.0000 
     22 O          -4.3530   57.2970   20.1830 O.2       7 ALL1        0.0000 
     23 O          -2.1670   54.8280   20.3300 O.2       4 ALP1        0.0000 
     24 CA         -2.9005   61.5070   17.8400 C.3       3 GLC5        0.0000 
     25 CA         -4.2390   60.7330   19.3800 C.3       9 GLL5        0.0000 
     26 CA         -1.5620   62.2810   16.3000 C.3       6 GLP5        0.0000 
     27 CA         -7.3405   60.9150   19.3655 C.3       3 GLC5        0.0000 
     28 CA         -6.1110   59.1820   18.8930 C.3       9 GLL5        0.0000 
     29 CA         -8.5700   62.6480   19.8380 C.3       6 GLP5        0.0000 
     30 CA         -7.7405   59.2250   20.2905 C.3       3 GLC5        0.0000 
     31 CA         -9.3700   59.2680   21.6880 C.3       6 GLP5        0.0000 
     32 CA         -4.1890   57.8675   16.8635 C.3       3 GLC5        0.0000 
     33 CA         -6.1720   57.1310   17.5180 C.3       9 GLL5        0.0000 
     34 CA         -2.2060   58.6040   16.2090 C.3       6 GLP5        0.0000 
     35 CA         -5.7805   54.5015   15.7555 C.3       3 GLC5        0.0000 
     36 CA         -6.3040   56.6190   15.9230 C.3       9 GLL5        0.0000 
     37 CA         -5.2570   52.3840   15.5880 C.3       6 GLP5        0.0000 
     38 CA         -6.2860   62.1170   15.1920 C.3       3 GLC5        0.0000 
     39 CA         -5.8850   60.4710   16.3940 C.3       9 GLL5        0.0000 
     40 CA         -6.6870   63.7630   13.9900 C.3       6 GLP5        0.0000 
     41 CA         -7.5725   61.4765   17.4575 C.3       3 GLC5        0.0000 
     42 CA         -9.2600   62.4820   18.5210 C.3       6 GLP5        0.0000 
     43 CA         -4.1135   58.5600   15.0830 C.3       3 GLC5        0.0000 
     44 CA         -6.0210   58.5160   13.9570 C.3       9 GLL5        0.0000 
     45 CA         -4.8385   60.2435   13.5965 C.3       3 GLC5        0.0000 
     46 CA         -3.6560   61.9710   13.2360 C.3       6 GLP5        0.0000 
     47 CA         -6.5010   58.4915   11.1325 C.3       3 GLC5        0.0000 
     48 CA         -5.7260   57.4610   12.9340 C.3       9 GLL5        0.0000 
     49 CA         -7.2760   59.5220    9.3310 C.3       6 GLP5        0.0000 
     50 N          -1.4940   57.4975   11.6920 N.am      2 SEC2        0.0000 
     51 N          -2.2740   56.2960   11.8730 N.am      8 SEL2        0.0000 
     52 N          -0.7140   58.6990   11.5110 N.am      5 SEP2        0.0000 
     53 N          -5.1295   52.9680   12.1460 N.am      2 SEC2        0.0000 
     54 N          -5.3570   52.9540   10.7880 N.am      8 SEL2        0.0000 
     55 N          -4.9020   52.9820   13.5040 N.am      5 SEP2        0.0000 
     56 N          -4.9025   53.9415    7.8335 N.am      2 SEC2        0.0000 
     57 N          -4.8350   54.5960    9.1030 N.am      8 SEL2        0.0000 
     58 N          -4.9700   53.2870    6.5640 N.am      5 SEP2        0.0000 
     59 CA         -1.1365   58.3417   21.3930 C.3       3 GLC5        0.0000 
     60 CA         -3.3570   59.3585   17.8125 C.3       3 GLC5        0.0000 
     61 CA         -4.7770   59.4930   19.4520 C.3       9 GLL5        0.0000 
     62 CA         -7.7555   58.1435   16.1242 C.3       3 GLC5        0.0000 
     63 CA         -9.2730   59.4120   15.5280 C.3       6 GLP5        0.0000 
     64 CA         -4.6010   60.9220   15.5660 C.3       3 GLC5        0.0000 
     65 CA         -5.7390   59.0310   16.4560 C.3       9 GLL5        0.0000 
     66 CA         -3.3900   62.0930   14.7070 C.3       6 GLP5        0.0000 
     67 CA         -4.0177   59.0690   16.1849 C.3       3 GLC5        0.0000 
     68 CA         -7.5512   59.4730   15.8444 C.3       3 GLC5        0.0000 
     69 CA         -7.7313   58.5943   13.7652 C.3       3 GLC5        0.0000 
     70 CA         -9.5890   59.2000   14.0850 C.3       6 GLP5        0.0000 
@<TRIPOS>BOND
@<TRIPOS>SUBSTRUCTURE
     1 ALC1       21 GROUP        1 X    ALC  0     ROOT ALC X 1
     2 SEC2       13 GROUP        1 X    SEC  0     **** SEC X 2
     3 GLC5        1 GROUP        1 X    GLC  0     **** GLC X 6
     4 ALP1       23 GROUP        1 Y    ALP  0     ROOT ALP Y 8
     5 SEP2       15 GROUP        1 Y    SEP  0     **** SEP Y 9
     6 GLP5        3 GROUP        1 Y    GLP  0     **** GLP Y 13
     7 ALL1       22 GROUP        1 Z    ALL  0     ROOT ALL Z 15
     8 SEL2       14 GROUP        1 Z    SEL  0     **** SEL Z 16
     9 GLL5        2 GROUP        1 Z    GLL  0     **** GLL Z 20
@<TRIPOS>SET

