#    Name: 1ay0_TPP_1_ligand
#    Modification time : Mon Mar 24 18:58:57 2014

@<TRIPOS>MOLECULE
1ay0_TPP_1_ligand
   42    43     1     0     0
SMALL
NO_CHARGES


@<TRIPOS>ATOM
      1 N1'        -3.0160   61.0140   19.9440 N.ar      1 TPP682      0.0000 
      2 C2'        -2.3220   60.0650   20.5740 C.ar      1 TPP682      0.0000 
      3 CM2        -1.0400   60.4000   21.1020 C.3       1 TPP682      0.0000 
      4 N3'        -2.7990   58.8630   20.7290 N.ar      1 TPP682      0.0000 
      5 C4'        -3.9750   58.5180   20.0740 C.ar      1 TPP682      0.0000 
      6 N4'        -4.3530   57.2970   20.1830 N.pl3     1 TPP682      0.0000 
      7 C5'        -4.7770   59.4930   19.4520 C.ar      1 TPP682      0.0000 
      8 C6'        -4.2390   60.7330   19.3800 C.ar      1 TPP682      0.0000 
      9 C7'        -6.1110   59.1820   18.8930 C.3       1 TPP682      0.0000 
     10 N3         -5.8620   58.4330   17.6210 N.pl3     1 TPP682      0.0000 
     11 C2         -6.1720   57.1310   17.5180 C.2       1 TPP682      0.0000 
     12 S1         -6.3040   56.6190   15.9230 S.3       1 TPP682      0.0000 
     13 C5         -5.8090   58.1630   15.3990 C.2       1 TPP682      0.0000 
     14 C4         -5.7390   59.0310   16.4560 C.2       1 TPP682      0.0000 
     15 CM4        -5.8850   60.4710   16.3940 C.3       1 TPP682      0.0000 
     16 C6         -6.0210   58.5160   13.9570 C.3       1 TPP682      0.0000 
     17 C7         -5.7260   57.4610   12.9340 C.3       1 TPP682      0.0000 
     18 O7         -4.3060   57.3980   12.7310 O.3       1 TPP682      0.0000 
     19 PA         -3.7310   56.5540   11.5690 P.3       1 TPP682      0.0000 
     20 O1A        -4.0440   57.4260   10.4600 O.co2     1 TPP682      0.0000 
     21 O2A        -2.2740   56.2960   11.8730 O.co2     1 TPP682      0.0000 
     22 O3A        -4.6310   55.2420   11.4490 O.3       1 TPP682      0.0000 
     23 PB         -5.4630   54.3690   10.4150 P.3       1 TPP682      0.0000 
     24 O1B        -5.3570   52.9540   10.7880 O.co2     1 TPP682      0.0000 
     25 O2B        -6.8210   54.8920   10.5970 O.co2     1 TPP682      0.0000 
     26 O3B        -4.8350   54.5960    9.1030 O.co2     1 TPP682      0.0000 
     27 H          -5.3406   57.1406   20.1844 H         1 TPP682      0.0000 
     28 H          -3.6246   56.6158   20.2564 H         1 TPP682      0.0000 
     29 H          -4.7549   61.4982   18.8887 H         1 TPP682      0.0000 
     30 H          -6.6502   60.0908   18.6796 H         1 TPP682      0.0000 
     31 H          -6.6694   58.5623   19.5759 H         1 TPP682      0.0000 
     32 H          -6.3306   56.4459   18.1514 H         1 TPP682      0.0000 
     33 H          -5.4100   59.4295   13.7176 H         1 TPP682      0.0000 
     34 H          -7.0841   58.8584   13.8239 H         1 TPP682      0.0000 
     35 H          -6.2479   57.7161   12.0069 H         1 TPP682      0.0000 
     36 H          -6.1177   56.5048   13.2936 H         1 TPP682      0.0000 
     37 H          -0.6094   59.6194   21.5551 H         1 TPP682      0.0000 
     38 H          -0.4122   60.7064   20.3865 H         1 TPP682      0.0000 
     39 H          -1.0970   61.1358   21.7768 H         1 TPP682      0.0000 
     40 H          -5.2105   60.9377   16.9660 H         1 TPP682      0.0000 
     41 H          -5.7687   60.8163   15.4628 H         1 TPP682      0.0000 
     42 H          -6.7881   60.7665   16.7055 H         1 TPP682      0.0000 
@<TRIPOS>BOND
     1    2    1 ar   
     2    8    1 ar   
     3    3    2 1    
     4    4    2 ar   
     5   37    3 1    
     6   38    3 1    
     7   39    3 1    
     8    5    4 ar   
     9    6    5 1    
    10    7    5 ar   
    11   27    6 1    
    12   28    6 1    
    13    8    7 ar   
    14    9    7 1    
    15   29    8 1    
    16   10    9 1    
    17   30    9 1    
    18   31    9 1    
    19   11   10 2    
    20   14   10 1    
    21   12   11 1    
    22   32   11 1    
    23   13   12 1    
    24   14   13 2    
    25   16   13 1    
    26   15   14 1    
    27   40   15 1    
    28   41   15 1    
    29   42   15 1    
    30   17   16 1    
    31   33   16 1    
    32   34   16 1    
    33   18   17 1    
    34   35   17 1    
    35   36   17 1    
    36   19   18 1    
    37   20   19 ar   
    38   21   19 ar   
    39   22   19 1    
    40   23   22 1    
    41   24   23 ar   
    42   25   23 ar   
    43   26   23 ar   
@<TRIPOS>SUBSTRUCTURE
     1 TPP682      1 GROUP   
@<TRIPOS>SET

