#    Name: 1m79_MQ1_2_INTS_M
#    Modification time : Mon Apr  7 14:31:32 2014

@<TRIPOS>MOLECULE
1m79_MQ1_2_INTS_M
   51     0     9     0     0
SMALL
NO_CHARGES


@<TRIPOS>ATOM
      1 CA          7.0330   33.7345   16.7150 C.3       3 GLC5        0.0000 
      2 CA          8.3790   34.7200   18.0110 C.3       9 GLL5        0.0000 
      3 CA          5.6870   32.7490   15.4190 C.3       6 GLP5        0.0000 
      4 CA          5.9725   33.0310   19.1790 C.3       3 GLC5        0.0000 
      5 CA          6.2260   35.0350   18.6560 C.3       9 GLL5        0.0000 
      6 CA          5.7190   31.0270   19.7020 C.3       6 GLP5        0.0000 
      7 CA          5.9565   33.8920   17.0375 C.3       3 GLC5        0.0000 
      8 CA          5.1515   36.0735   17.3130 C.3       3 GLC5        0.0000 
      9 CA          4.0770   37.1120   15.9700 C.3       6 GLP5        0.0000 
     10 CA          6.8475   35.3020   20.7045 C.3       3 GLC5        0.0000 
     11 CA          7.4690   35.5690   22.7530 C.3       6 GLP5        0.0000 
     12 N           5.6075   37.2365   19.4495 N.am      2 SEC2        0.0000 
     13 N           6.4920   36.3210   19.1420 N.am      8 SEL2        0.0000 
     14 N           4.7230   38.1520   19.7570 N.am      5 SEP2        0.0000 
     15 O           8.4830   32.4670   16.9315 O.2       1 ALC1        0.0000 
     16 O           9.1960   33.7720   17.4400 O.2       7 ALL1        0.0000 
     17 O           7.7700   31.1620   16.4230 O.2       4 ALP1        0.0000 
     18 O           9.1665   33.0540   15.8970 O.2       1 ALC1        0.0000 
     19 O           9.1370   32.3360   14.3540 O.2       4 ALP1        0.0000 
     20 O           4.1955   33.9340   17.3715 O.2       1 ALC1        0.0000 
     21 O           4.9790   34.6390   18.7590 O.2       7 ALL1        0.0000 
     22 O           3.4120   33.2290   15.9840 O.2       4 ALP1        0.0000 
     23 O           4.0935   35.5995   19.3345 O.2       1 ALC1        0.0000 
     24 O           3.2080   36.5600   19.9100 O.2       4 ALP1        0.0000 
     25 O           3.6955   33.4920   18.9250 O.2       1 ALC1        0.0000 
     26 O           2.4120   32.3450   19.0910 O.2       4 ALP1        0.0000 
     27 CA         11.0065   38.4450   16.3030 C.3       3 GLC5        0.0000 
     28 CA         12.5380   37.2440   16.8670 C.3       9 GLL5        0.0000 
     29 CA          9.4750   39.6460   15.7390 C.3       6 GLP5        0.0000 
     30 CA         16.8155   37.8320   18.4640 C.3       3 GLC5        0.0000 
     31 CA         14.7720   37.5300   17.7090 C.3       9 GLL5        0.0000 
     32 CA         18.8590   38.1340   19.2190 C.3       6 GLP5        0.0000 
     33 CA         16.2525   37.1080   15.9855 C.3       3 GLC5        0.0000 
     34 CA         16.2670   38.9390   16.5080 C.3       9 GLL5        0.0000 
     35 CA         16.2380   35.2770   15.4630 C.3       6 GLP5        0.0000 
     36 CA         17.5215   39.6045   15.4285 C.3       3 GLC5        0.0000 
     37 CA         18.7760   40.2700   14.3490 C.3       6 GLP5        0.0000 
     38 CA         17.5630   38.5365   17.8635 C.3       3 GLC5        0.0000 
     39 CA          7.8377   38.6420   17.7380 C.3       3 GLC5        0.0000 
     40 CA          8.1370   38.0730   19.7150 C.3       9 GLL5        0.0000 
     41 CA          7.6890   39.8220   16.0530 C.3       6 GLP5        0.0000 
     42 CA          8.2393   39.9547   20.8723 C.3       3 GLC5        0.0000 
     43 CA          7.6960   41.5800   22.0600 C.3       6 GLP5        0.0000 
     44 CA          7.8470   36.4078   21.0168 C.3       3 GLC5        0.0000 
     45 CA          9.7361   38.4928   17.3564 C.3       3 GLC5        0.0000 
     46 CA          9.4280   38.5860   19.6540 C.3       9 GLL5        0.0000 
     47 CA         14.7050   36.4170   16.1362 C.3       3 GLC5        0.0000 
     48 CA         15.4488   36.1705   16.8345 C.3       3 GLC5        0.0000 
     49 CA         14.2835   34.3267   19.1268 C.3       3 GLC5        0.0000 
     50 CA         14.5470   36.5980   18.7030 C.3       9 GLL5        0.0000 
     51 CA         14.6550   32.3480   19.4820 C.3       6 GLP5        0.0000 
@<TRIPOS>BOND
@<TRIPOS>SUBSTRUCTURE
     1 ALC1       15 GROUP        1 X    ALC  0     ROOT ALC X 1
     2 SEC2       12 GROUP        1 X    SEC  0     **** SEC X 2
     3 GLC5        1 GROUP        1 X    GLC  0     **** GLC X 6
     4 ALP1       17 GROUP        1 Y    ALP  0     ROOT ALP Y 8
     5 SEP2       14 GROUP        1 Y    SEP  0     **** SEP Y 9
     6 GLP5        3 GROUP        1 Y    GLP  0     **** GLP Y 13
     7 ALL1       16 GROUP        1 Z    ALL  0     ROOT ALL Z 15
     8 SEL2       13 GROUP        1 Z    SEL  0     **** SEL Z 16
     9 GLL5        2 GROUP        1 Z    GLL  0     **** GLL Z 20
@<TRIPOS>SET

