#    Name: 1m79_MQ1_2_ligand
#    Modification time : Mon Apr  7 14:31:32 2014

@<TRIPOS>MOLECULE
1m79_MQ1_2_ligand
   34    36     1     0     0
SMALL
NO_CHARGES


@<TRIPOS>ATOM
      1 C1          7.8360   36.8510   19.1310 C.ar      1 MQ1196      0.0000 
      2 C2          8.7900   35.9890   18.5610 C.ar      1 MQ1196      0.0000 
      3 C3          8.3790   34.7200   18.0110 C.ar      1 MQ1196      0.0000 
      4 N4          7.1710   34.2580   18.1090 N.ar      1 MQ1196      0.0000 
      5 C5          6.2260   35.0350   18.6560 C.ar      1 MQ1196      0.0000 
      6 N6          6.4920   36.3210   19.1420 N.ar      1 MQ1196      0.0000 
      7 N7          9.1960   33.7720   17.4400 N.pl3     1 MQ1196      0.0000 
      8 C8          8.1370   38.0730   19.7150 C.ar      1 MQ1196      0.0000 
      9 C9          9.4280   38.5860   19.6540 C.ar      1 MQ1196      0.0000 
     10 C12        10.3850   37.7500   19.0970 C.ar      1 MQ1196      0.0000 
     11 C13        10.0880   36.5110   18.5720 C.ar      1 MQ1196      0.0000 
     12 N14         4.9790   34.6390   18.7590 N.pl3     1 MQ1196      0.0000 
     13 O20        11.0840   35.7450   17.9870 O.3       1 MQ1196      0.0000 
     14 C22        12.3180   36.3310   17.8940 C.ar      1 MQ1196      0.0000 
     15 C23        12.5380   37.2440   16.8670 C.ar      1 MQ1196      0.0000 
     16 C24        13.8060   37.8700   16.7520 C.ar      1 MQ1196      0.0000 
     17 C25        14.7720   37.5300   17.7090 C.ar      1 MQ1196      0.0000 
     18 C26        14.5470   36.5980   18.7030 C.ar      1 MQ1196      0.0000 
     19 C27        13.2770   36.0130   18.8400 C.ar      1 MQ1196      0.0000 
     20 O32        16.0110   38.1360   17.6710 O.3       1 MQ1196      0.0000 
     21 C33        16.2670   38.9390   16.5080 C.3       1 MQ1196      0.0000 
     22 H           7.3975   38.6068   20.1990 H         1 MQ1196      0.0000 
     23 H           9.6512   39.5006   19.9910 H         1 MQ1196      0.0000 
     24 H          11.3839   38.0813   19.0763 H         1 MQ1196      0.0000 
     25 H           4.3490   35.2789   19.1991 H         1 MQ1196      0.0000 
     26 H           4.7728   33.7335   18.3880 H         1 MQ1196      0.0000 
     27 H          11.8032   37.4691   16.1977 H         1 MQ1196      0.0000 
     28 H          13.9941   38.5234   16.0181 H         1 MQ1196      0.0000 
     29 H          15.2997   36.3259   19.3463 H         1 MQ1196      0.0000 
     30 H          13.0804   35.3835   19.6057 H         1 MQ1196      0.0000 
     31 H          17.1779   39.3507   16.5341 H         1 MQ1196      0.0000 
     32 H          16.2122   38.4018   15.6663 H         1 MQ1196      0.0000 
     33 H          15.6094   39.6874   16.4213 H         1 MQ1196      0.0000 
     34 H           8.6204   33.3047   16.7689 H         1 MQ1196      0.0000 
@<TRIPOS>BOND
     1    2    1 ar   
     2    6    1 ar   
     3    8    1 ar   
     4    3    2 ar   
     5   11    2 ar   
     6    4    3 ar   
     7    7    3 1    
     8    5    4 ar   
     9    6    5 ar   
    10   12    5 1    
    11   34    7 1    
    12    9    8 ar   
    13   22    8 1    
    14   10    9 ar   
    15   23    9 1    
    16   11   10 ar   
    17   24   10 1    
    18   13   11 1    
    19   25   12 1    
    20   26   12 1    
    21   14   13 1    
    22   15   14 ar   
    23   19   14 ar   
    24   16   15 ar   
    25   27   15 1    
    26   17   16 ar   
    27   28   16 1    
    28   18   17 ar   
    29   20   17 1    
    30   19   18 ar   
    31   29   18 1    
    32   30   19 1    
    33   21   20 1    
    34   31   21 1    
    35   32   21 1    
    36   33   21 1    
@<TRIPOS>SUBSTRUCTURE
     1 MQ1196      1 GROUP   
@<TRIPOS>SET

