#    Name: 1ie4_T44_2_INTS_M
#    Modification time : Tue Mar 25 06:58:00 2014

@<TRIPOS>MOLECULE
1ie4_T44_2_INTS_M
   66     0     9     0     0
SMALL
NO_CHARGES


@<TRIPOS>ATOM
      1 CA         46.1620   95.2325   45.1890 C.3       3 GLC5        0.0000 
      2 CA         46.6340   96.3710   43.8710 C.3       9 GLL5        0.0000 
      3 CA         45.6900   94.0940   46.5070 C.3       6 GLP5        0.0000 
      4 CA         48.3050   95.6400   45.1365 C.3       3 GLC5        0.0000 
      5 CA         49.9760   94.9090   46.4020 C.3       6 GLP5        0.0000 
      6 CA         38.8195   90.6825   43.9380 C.3       3 GLC5        0.0000 
      7 CA         40.0310   90.3820   42.2170 C.3       9 GLL5        0.0000 
      8 CA         37.6080   90.9830   45.6590 C.3       6 GLP5        0.0000 
      9 CA         40.3550   88.6600   44.6515 C.3       3 GLC5        0.0000 
     10 CA         40.7670   89.3330   42.6860 C.3       9 GLL5        0.0000 
     11 CA         39.9430   87.9870   46.6170 C.3       6 GLP5        0.0000 
     12 CA         41.8720   90.5735   44.7725 C.3       3 GLC5        0.0000 
     13 CA         42.1310   89.5280   42.8020 C.3       9 GLL5        0.0000 
     14 CA         41.6130   91.6190   46.7430 C.3       6 GLP5        0.0000 
     15 OD1        49.1910   97.7035   44.3495 O.co2     1 ASC3        0.0000 
     16 OD1        47.8540   98.4890   43.4580 O.co2     7 ASL3        0.0000 
     17 OD1        50.5280   96.9180   45.2410 O.co2     4 ASP3        0.0000 
     18 OD1        48.2425   97.6770   44.9085 O.co2     1 ASC3        0.0000 
     19 OD1        48.6310   96.8650   46.3590 O.co2     4 ASP3        0.0000 
     20 NZ         44.6135   97.8870   39.9800 N.4       2 LYC4        0.0000 
     21 NZ         45.1300   98.4510   41.4830 N.4       8 LYL4        0.0000 
     22 NZ         44.0970   97.3230   38.4770 N.4       5 LYP4        0.0000 
     23 CA         45.7280   90.7120   41.0570 C.3       3 GLC5        0.0000 
     24 CA         45.4440   92.6000   40.1530 C.3       9 GLL5        0.0000 
     25 CA         46.0120   88.8240   41.9610 C.3       6 GLP5        0.0000 
     26 CA         45.8050   91.5585   38.3075 C.3       3 GLC5        0.0000 
     27 CA         46.1660   90.5170   36.4620 C.3       6 GLP5        0.0000 
     28 CA         44.4825   94.3650   39.6660 C.3       3 GLC5        0.0000 
     29 CA         43.5210   96.1300   39.1790 C.3       6 GLP5        0.0000 
     30 CA         43.9535   91.7730   39.0785 C.3       3 GLC5        0.0000 
     31 CA         42.4630   90.9460   38.0040 C.3       6 GLP5        0.0000 
     32 CA         38.0600   91.8040   42.4605 C.3       3 GLC5        0.0000 
     33 CA         37.9750   90.0900   42.0350 C.3       9 GLL5        0.0000 
     34 CA         38.1450   93.5180   42.8860 C.3       6 GLP5        0.0000 
     35 CA         36.7620   90.9375   40.8460 C.3       3 GLC5        0.0000 
     36 CA         35.5490   91.7850   39.6570 C.3       6 GLP5        0.0000 
     37 CA         37.9435   88.9515   40.3065 C.3       3 GLC5        0.0000 
     38 CA         37.9120   87.8130   38.5780 C.3       6 GLP5        0.0000 
     39 CA         37.7915   90.5365   43.8470 C.3       3 GLC5        0.0000 
     40 CA         41.5160   93.2265   45.4325 C.3       3 GLC5        0.0000 
     41 CA         41.4190   94.8340   44.1220 C.3       9 GLL5        0.0000 
     42 CA         41.8685   95.6520   42.0925 C.3       3 GLC5        0.0000 
     43 CA         42.3180   96.4700   40.0630 C.3       6 GLP5        0.0000 
     44 CA         40.3485   96.5450   44.6265 C.3       3 GLC5        0.0000 
     45 CA         39.2780   98.2560   45.1310 C.3       6 GLP5        0.0000 
     46 CA         39.7820   94.1760   43.5040 C.3       3 GLC5        0.0000 
     47 CA         40.5575   94.7170   46.1680 C.3       3 GLC5        0.0000 
     48 CA         39.6960   94.6000   48.2140 C.3       6 GLP5        0.0000 
     49 CA         44.6260   88.3775   42.7345 C.3       3 GLC5        0.0000 
     50 CA         43.2400   87.9310   43.5080 C.3       9 GLL5        0.0000 
     51 CA         44.3720   86.7210   44.3500 C.3       3 GLC5        0.0000 
     52 CA         45.5040   85.5110   45.1920 C.3       6 GLP5        0.0000 
     53 CA         42.0635   86.8495   44.7315 C.3       3 GLC5        0.0000 
     54 CA         40.8870   85.7680   45.9550 C.3       6 GLP5        0.0000 
     55 CA         46.0955   93.2700   43.5347 C.3       3 GLC5        0.0000 
     56 CA         45.8950   94.5650   42.3210 C.3       9 GLL5        0.0000 
     57 CA         46.8010   92.3630   45.0340 C.3       6 GLP5        0.0000 
     58 CA         44.4555   95.1535   40.6073 C.3       3 GLC5        0.0000 
     59 CA         44.9099   94.5665   44.9845 C.3       3 GLC5        0.0000 
     60 CA         43.3100   94.6580   43.2980 C.3       9 GLL5        0.0000 
     61 CA         43.0939   95.6541   41.6887 C.3       3 GLC5        0.0000 
     62 CA         44.3080   95.4460   43.8770 C.3       9 GLL5        0.0000 
     63 CA         39.4045   92.2796   42.4779 C.3       3 GLC5        0.0000 
     64 CA         44.2335   89.4803   42.2965 C.3       3 GLC5        0.0000 
     65 CA         42.7790   90.7450   42.4620 C.3       9 GLL5        0.0000 
     66 CA         42.2505   91.0844   40.0981 C.3       3 GLC5        0.0000 
@<TRIPOS>BOND
@<TRIPOS>SUBSTRUCTURE
     1 ASC3       15 GROUP        1 X    ASC  0     ROOT ASC X 3
     2 LYC4       20 GROUP        1 X    LYC  0     **** LYC X 4
     3 GLC5        1 GROUP        1 X    GLC  0     **** GLC X 6
     4 ASP3       17 GROUP        1 Y    ASP  0     ROOT ASP Y 10
     5 LYP4       22 GROUP        1 Y    LYP  0     **** LYP Y 11
     6 GLP5        3 GROUP        1 Y    GLP  0     **** GLP Y 13
     7 ASL3       16 GROUP        1 Z    ASL  0     ROOT ASL Z 17
     8 LYL4       21 GROUP        1 Z    LYL  0     **** LYL Z 18
     9 GLL5        2 GROUP        1 Z    GLL  0     **** GLL Z 20
@<TRIPOS>SET

