#    Name: 1ie4_T44_2_ligand
#    Modification time : Tue Mar 25 06:58:00 2014

@<TRIPOS>MOLECULE
1ie4_T44_2_ligand
   35    36     1     0     0
SMALL
NO_CHARGES


@<TRIPOS>ATOM
      1 C1         45.5910   95.3940   43.3750 C.ar      1 T44328      0.0000 
      2 C2         45.8950   94.5650   42.3210 C.ar      1 T44328      0.0000 
      3 C3         44.8850   93.7890   41.7500 C.ar      1 T44328      0.0000 
      4 C4         43.5530   93.8030   42.2060 C.ar      1 T44328      0.0000 
      5 C5         43.3100   94.6580   43.2980 C.ar      1 T44328      0.0000 
      6 C6         44.3080   95.4460   43.8770 C.ar      1 T44328      0.0000 
      7 C7         46.6340   96.3710   43.8710 C.3       1 T44328      0.0000 
      8 C8         46.8410   97.5470   42.9060 C.3       1 T44328      0.0000 
      9 C9         45.5330   98.3810   42.6500 C.2       1 T44328      0.0000 
     10 C1'        41.9870   91.7870   41.9870 C.ar      1 T44328      0.0000 
     11 C2'        40.6070   91.6140   41.8580 C.ar      1 T44328      0.0000 
     12 C3'        40.0310   90.3820   42.2170 C.ar      1 T44328      0.0000 
     13 C4'        40.7670   89.3330   42.6860 C.ar      1 T44328      0.0000 
     14 C5'        42.1310   89.5280   42.8020 C.ar      1 T44328      0.0000 
     15 C6'        42.7790   90.7450   42.4620 C.ar      1 T44328      0.0000 
     16 N8         47.8540   98.4890   43.4580 N.4       1 T44328      0.0000 
     17 O4         42.5370   93.0280   41.5820 O.3       1 T44328      0.0000 
     18 O4'        40.1920   88.1830   43.0130 O.3       1 T44328      0.0000 
     19 O9         44.9980   98.9030   43.6350 O.co2     1 T44328      0.0000 
     20 O10        45.1300   98.4510   41.4830 O.co2     1 T44328      0.0000 
     21 I3         45.4440   92.6000   40.1530 I         1 T44328      0.0000 
     22 I3'        37.9750   90.0900   42.0350 I         1 T44328      0.0000 
     23 I5         41.4190   94.8340   44.1220 I         1 T44328      0.0000 
     24 I5'        43.2400   87.9310   43.5080 I         1 T44328      0.0000 
     25 H          46.8496   94.5107   41.9519 H         1 T44328      0.0000 
     26 H          44.0793   96.0559   44.6694 H         1 T44328      0.0000 
     27 H          47.5908   95.8517   44.0020 H         1 T44328      0.0000 
     28 H          46.3311   96.7673   44.8475 H         1 T44328      0.0000 
     29 H          47.1823   97.1779   41.9545 H         1 T44328      0.0000 
     30 H          40.0194   92.3702   41.5077 H         1 T44328      0.0000 
     31 H          43.7757   90.8380   42.5653 H         1 T44328      0.0000 
     32 H          48.7385   98.0436   43.5970 H         1 T44328      0.0000 
     33 H          48.0097   99.2661   42.8482 H         1 T44328      0.0000 
     34 H          47.5716   98.8620   44.3418 H         1 T44328      0.0000 
     35 H          40.7044   87.4858   42.5116 H         1 T44328      0.0000 
@<TRIPOS>BOND
     1    2    1 ar   
     2    6    1 ar   
     3    7    1 1    
     4    3    2 ar   
     5   25    2 1    
     6    4    3 ar   
     7   21    3 1    
     8    5    4 ar   
     9   17    4 1    
    10    6    5 ar   
    11   23    5 1    
    12   26    6 1    
    13    8    7 1    
    14   27    7 1    
    15   28    7 1    
    16    9    8 1    
    17   16    8 1    
    18   29    8 1    
    19   19    9 ar   
    20   20    9 ar   
    21   11   10 ar   
    22   15   10 ar   
    23   17   10 1    
    24   12   11 ar   
    25   30   11 1    
    26   13   12 ar   
    27   22   12 1    
    28   14   13 ar   
    29   18   13 1    
    30   15   14 ar   
    31   24   14 1    
    32   31   15 1    
    33   32   16 1    
    34   33   16 1    
    35   34   16 1    
    36   35   18 1    
@<TRIPOS>SUBSTRUCTURE
     1 T44328      1 GROUP   
@<TRIPOS>SET

