#    Name: 4h1j_0YH_1_INTS_M
#    Modification time : Tue Mar 25 00:06:35 2014

@<TRIPOS>MOLECULE
4h1j_0YH_1_INTS_M
  101     0     9     0     0
SMALL
NO_CHARGES


@<TRIPOS>ATOM
      1 CA        -10.4270   -0.5765   16.3500 C.3       3 GLC5        0.0000 
      2 CA         -9.4640    0.9050   17.0560 C.3       9 GLL5        0.0000 
      3 CA        -11.3900   -2.0580   15.6440 C.3       6 GLP5        0.0000 
      4 CA          0.4820   -5.7955   12.0720 C.3       3 GLC5        0.0000 
      5 CA         -0.1920   -7.4860   11.7500 C.3       9 GLL5        0.0000 
      6 CA          1.1560   -4.1050   12.3940 C.3       6 GLP5        0.0000 
      7 CA         -8.4960    0.8630    9.0310 C.3       3 GLC5        0.0000 
      8 CA         -7.4180    2.3900    8.0780 C.3       9 GLL5        0.0000 
      9 CA         -9.5740   -0.6640    9.9840 C.3       6 GLP5        0.0000 
     10 CA         -9.3580    1.9525    7.9660 C.3       3 GLC5        0.0000 
     11 CA        -11.2980    1.5150    7.8540 C.3       6 GLP5        0.0000 
     12 CA         -7.4060    1.2095    6.5980 C.3       3 GLC5        0.0000 
     13 CA         -7.3940    0.0290    5.1180 C.3       6 GLP5        0.0000 
     14 CA         -7.8245    4.3535    7.5200 C.3       3 GLC5        0.0000 
     15 CA         -8.2310    6.3170    6.9620 C.3       6 GLP5        0.0000 
     16 CA         -6.1755    1.0120    6.5030 C.3       3 GLC5        0.0000 
     17 CA         -4.9570    1.9950    7.8880 C.3       9 GLL5        0.0000 
     18 CA         -3.4895    3.3245    8.4715 C.3       3 GLC5        0.0000 
     19 CA         -2.0220    4.6540    9.0550 C.3       6 GLP5        0.0000 
     20 CA         -3.3830    2.2810    6.7325 C.3       3 GLC5        0.0000 
     21 CA         -1.8090    2.5670    5.5770 C.3       6 GLP5        0.0000 
     22 CA         -3.6560    0.4840    8.0620 C.3       3 GLC5        0.0000 
     23 CA         -2.3550   -1.0270    8.2360 C.3       6 GLP5        0.0000 
     24 CA         -5.7785    5.0300    7.9885 C.3       3 GLC5        0.0000 
     25 CA         -5.8120    3.7630    9.4080 C.3       9 GLL5        0.0000 
     26 CA         -5.7450    6.2970    6.5690 C.3       6 GLP5        0.0000 
     27 CA         -3.9170    4.2085    9.2315 C.3       3 GLC5        0.0000 
     28 CA         -0.1170  -11.9830    8.3845 C.3       3 GLC5        0.0000 
     29 CA          0.9480  -10.5010    7.7840 C.3       9 GLL5        0.0000 
     30 CA         -1.1820  -13.4650    8.9850 C.3       6 GLP5        0.0000 
     31 CA          0.1150  -10.8525    5.7635 C.3       3 GLC5        0.0000 
     32 CA         -0.7180  -11.2040    3.7430 C.3       6 GLP5        0.0000 
     33 CA          1.4495   -8.6785    7.3200 C.3       3 GLC5        0.0000 
     34 CA          1.9510   -6.8560    6.8560 C.3       6 GLP5        0.0000 
     35 CA        -10.3860   -0.3640   15.1115 C.3       3 GLC5        0.0000 
     36 CA         -9.3820    1.3300   14.5790 C.3       9 GLL5        0.0000 
     37 CA        -11.2295    2.0420   14.8345 C.3       3 GLC5        0.0000 
     38 CA        -13.0770    2.7540   15.0900 C.3       6 GLP5        0.0000 
     39 CA         -9.7875    3.2615   14.8520 C.3       3 GLC5        0.0000 
     40 CA        -10.1930    5.1930   15.1250 C.3       6 GLP5        0.0000 
     41 CA        -10.6850    1.6015   12.6260 C.3       3 GLC5        0.0000 
     42 CA         -8.7470    1.2270   13.3460 C.3       9 GLL5        0.0000 
     43 CA        -12.6230    1.9760   11.9060 C.3       6 GLP5        0.0000 
     44 CA         -2.7465  -10.5445    7.3180 C.3       3 GLC5        0.0000 
     45 CA         -2.3060   -8.7890    8.2250 C.3       9 GLL5        0.0000 
     46 CA         -3.1870  -12.3000    6.4110 C.3       6 GLP5        0.0000 
     47 CA         -4.8425   -8.4690    9.6325 C.3       3 GLC5        0.0000 
     48 CA         -2.9340   -7.8970    9.0800 C.3       9 GLL5        0.0000 
     49 CA         -6.7510   -9.0410   10.1850 C.3       6 GLP5        0.0000 
     50 CA         -4.7030   -4.3440    9.1660 C.3       3 GLC5        0.0000 
     51 CA         -3.8690   -5.4380   10.7500 C.3       9 GLL5        0.0000 
     52 CA         -5.5370   -3.2500    7.5820 C.3       6 GLP5        0.0000 
     53 CA         -7.3405   -0.7705    9.3435 C.3       3 GLC5        0.0000 
     54 CA         -5.9210    0.0370   10.0700 C.3       9 GLL5        0.0000 
     55 CA         -8.7600   -1.5780    8.6170 C.3       6 GLP5        0.0000 
     56 CA         -5.7290   -1.6065    8.8260 C.3       3 GLC5        0.0000 
     57 CA         -4.1380   -0.4950    9.1530 C.3       3 GLC5        0.0000 
     58 CA         -9.4310   -1.0075   15.8275 C.3       3 GLC5        0.0000 
     59 CA         -8.7710    0.7980   15.7150 C.3       9 GLL5        0.0000 
     60 CA        -10.0910   -2.8130   15.9400 C.3       6 GLP5        0.0000 
     61 CA         -1.0980  -11.3515    8.7420 C.3       3 GLC5        0.0000 
     62 CA         -1.0140   -9.2380    8.4990 C.3       9 GLL5        0.0000 
     63 CA         -7.9365   -0.5555   10.6425 C.3       3 GLC5        0.0000 
     64 CA         -6.2990   -0.4470   11.3010 C.3       9 GLL5        0.0000 
     65 N          -6.5920    2.8680   11.9740 N.am      2 SEC2        0.0000 
     66 N          -6.8510    1.7060   11.1360 N.am      8 SEL2        0.0000 
     67 N          -6.3330    4.0300   12.8120 N.am      5 SEP2        0.0000 
     68 O          -6.0990   -3.4965   13.0905 O.2       1 ALC1        0.0000 
     69 O          -5.2730   -3.8470   12.0580 O.2       7 ALL1        0.0000 
     70 O          -6.9250   -3.1460   14.1230 O.2       4 ALP1        0.0000 
     71 O          -6.5440   -2.4490   12.9620 O.2       1 ALC1        0.0000 
     72 O          -6.1630   -1.7520   11.8010 O.2       7 ALL1        0.0000 
     73 N          -3.4365   -1.3510   10.5575 N.am      2 SEC2        0.0000 
     74 N          -4.4050   -2.4250   10.5670 N.am      8 SEL2        0.0000 
     75 N          -2.4680   -0.2770   10.5480 N.am      5 SEP2        0.0000 
     76 N          -0.9440  -10.7445    6.2940 N.am      2 SEC2        0.0000 
     77 N          -0.4230  -10.1010    7.6150 N.am      8 SEL2        0.0000 
     78 N          -1.4650  -11.3880    4.9730 N.am      5 SEP2        0.0000 
     79 CA         -4.4082    2.3468   10.3771 C.3       3 GLC5        0.0000 
     80 CA         -3.1470    1.7220   11.8650 C.3       6 GLP5        0.0000 
     81 CA         -8.2112   -1.4318   14.8558 C.3       3 GLC5        0.0000 
     82 CA         -6.8730    0.0930   14.3920 C.3       9 GLL5        0.0000 
     83 CA         -9.2180   -2.9920   14.7050 C.3       6 GLP5        0.0000 
     84 CA         -5.6182    0.8237   15.6698 C.3       3 GLC5        0.0000 
     85 CA         -7.5360    0.1640   15.6210 C.3       9 GLL5        0.0000 
     86 CA         -4.0320    1.5190   16.3330 C.3       6 GLP5        0.0000 
     87 CA         -8.6670   -1.0360   14.0005 C.3       3 GLC5        0.0000 
     88 CA         -7.4850    0.6130   13.2460 C.3       9 GLL5        0.0000 
     89 CA         -8.8450    0.1280   11.6400 C.3       3 GLC5        0.0000 
     90 CA         -3.1455   -9.9620    9.9977 C.3       3 GLC5        0.0000 
     91 CA         -3.6710  -11.5810   11.3430 C.3       6 GLP5        0.0000 
     92 CA         -0.1338  -10.0502   11.3008 C.3       3 GLC5        0.0000 
     93 CA         -0.3630   -8.7860    9.6590 C.3       9 GLL5        0.0000 
     94 CA          0.2080  -11.8590   12.2000 C.3       6 GLP5        0.0000 
     95 CA         -5.9047   -5.4765   10.5240 C.3       3 GLC5        0.0000 
     96 CA         -7.6800   -5.7790    9.7270 C.3       6 GLP5        0.0000 
     97 CA         -2.6128   -4.3660   12.3605 C.3       3 GLC5        0.0000 
     98 CA         -1.0960   -3.5580   13.4000 C.3       6 GLP5        0.0000 
     99 CA         -4.6285    0.7585   11.2752 C.3       3 GLC5        0.0000 
    100 CA         -1.0483   -7.2474    8.1384 C.3       3 GLC5        0.0000 
    101 CA         -0.4480   -6.1520    6.9040 C.3       6 GLP5        0.0000 
@<TRIPOS>BOND
@<TRIPOS>SUBSTRUCTURE
     1 ALC1       68 GROUP        1 X    ALC  0     ROOT ALC X 1
     2 SEC2       65 GROUP        1 X    SEC  0     **** SEC X 2
     3 GLC5        1 GROUP        1 X    GLC  0     **** GLC X 6
     4 ALP1       70 GROUP        1 Y    ALP  0     ROOT ALP Y 8
     5 SEP2       67 GROUP        1 Y    SEP  0     **** SEP Y 9
     6 GLP5        3 GROUP        1 Y    GLP  0     **** GLP Y 13
     7 ALL1       69 GROUP        1 Z    ALL  0     ROOT ALL Z 15
     8 SEL2       66 GROUP        1 Z    SEL  0     **** SEL Z 16
     9 GLL5        2 GROUP        1 Z    GLL  0     **** GLL Z 20
@<TRIPOS>SET

