#    Name: 4h1j_0YH_1_ligand
#    Modification time : Tue Mar 25 00:06:35 2014

@<TRIPOS>MOLECULE
4h1j_0YH_1_ligand
   64    67     1     0     0
SMALL
NO_CHARGES


@<TRIPOS>ATOM
      1 C1         -9.4640    0.9050   17.0560 C.3       1 0YH701      0.0000 
      2 C2         -0.1920   -7.4860   11.7500 C.3       1 0YH701      0.0000 
      3 C3         -7.4180    2.3900    8.0780 C.3       1 0YH701      0.0000 
      4 C4         -4.9570    1.9950    7.8880 C.3       1 0YH701      0.0000 
      5 C5         -5.8120    3.7630    9.4080 C.3       1 0YH701      0.0000 
      6 C6          0.9480  -10.5010    7.7840 C.3       1 0YH701      0.0000 
      7 C7         -7.5360    0.1640   15.6210 C.ar      1 0YH701      0.0000 
      8 C8         -9.3820    1.3300   14.5790 C.ar      1 0YH701      0.0000 
      9 C9         -6.8730    0.0930   14.3920 C.ar      1 0YH701      0.0000 
     10 C10        -8.7470    1.2270   13.3460 C.ar      1 0YH701      0.0000 
     11 C11        -2.3060   -8.7890    8.2250 C.ar      1 0YH701      0.0000 
     12 C12        -2.9340   -7.8970    9.0800 C.ar      1 0YH701      0.0000 
     13 C13        -0.3630   -8.7860    9.6590 C.ar      1 0YH701      0.0000 
     14 C14        -3.8690   -5.4380   10.7500 C.2       1 0YH701      0.0000 
     15 C15        -5.9210    0.0370   10.0700 C.2       1 0YH701      0.0000 
     16 C16        -8.7710    0.7980   15.7150 C.ar      1 0YH701      0.0000 
     17 C17        -0.9840   -7.9080   10.5380 C.ar      1 0YH701      0.0000 
     18 C18        -7.4850    0.6130   13.2460 C.ar      1 0YH701      0.0000 
     19 C19        -1.0140   -9.2380    8.4990 C.ar      1 0YH701      0.0000 
     20 C20        -2.2870   -7.4430   10.2410 C.ar      1 0YH701      0.0000 
     21 C21        -3.0530   -6.5310   11.1350 C.2       1 0YH701      0.0000 
     22 C22        -6.2760    1.3910   10.0010 C.2       1 0YH701      0.0000 
     23 C23        -4.3900   -4.9100   11.8920 C.2       1 0YH701      0.0000 
     24 C24        -6.2990   -0.4470   11.3010 C.2       1 0YH701      0.0000 
     25 C25        -5.2340   -2.6570   11.4270 C.2       1 0YH701      0.0000 
     26 C26        -6.0970    2.3650    8.8530 C.3       1 0YH701      0.0000 
     27 N27        -3.9400   -5.6460   12.9360 N.pl3     1 0YH701      0.0000 
     28 N28        -3.1300   -6.6560   12.4360 N.2       1 0YH701      0.0000 
     29 N29        -6.8510    1.7060   11.1360 N.2       1 0YH701      0.0000 
     30 N30        -5.2730   -3.8470   12.0580 N.am      1 0YH701      0.0000 
     31 N31        -6.1630   -1.7520   11.8010 N.am      1 0YH701      0.0000 
     32 N32        -6.8700    0.5960   11.9850 N.pl3     1 0YH701      0.0000 
     33 O33        -4.4050   -2.4250   10.5670 O.2       1 0YH701      0.0000 
     34 O34        -0.4230  -10.1010    7.6150 O.3       1 0YH701      0.0000 
     35 H          -7.1069   -0.2547   16.4566 H         1 0YH701      0.0000 
     36 H         -10.2927    1.7932   14.6549 H         1 0YH701      0.0000 
     37 H          -5.9469   -0.3360   14.3304 H         1 0YH701      0.0000 
     38 H          -9.1958    1.5990   12.4995 H         1 0YH701      0.0000 
     39 H          -2.7931   -9.1249    7.3808 H         1 0YH701      0.0000 
     40 H          -3.8849   -7.5588    8.8690 H         1 0YH701      0.0000 
     41 H           0.5974   -9.1176    9.8562 H         1 0YH701      0.0000 
     42 H          -4.0042   -5.1561    9.8626 H         1 0YH701      0.0000 
     43 H          -5.4925   -0.4504    9.3764 H         1 0YH701      0.0000 
     44 H          -4.1347   -5.5097   13.8617 H         1 0YH701      0.0000 
     45 H          -6.0701   -4.0100   12.7739 H         1 0YH701      0.0000 
     46 H          -6.8780   -2.0383   12.5538 H         1 0YH701      0.0000 
     47 H          -8.9094    1.4040   17.7219 H         1 0YH701      0.0000 
     48 H         -10.3386    1.3846   16.9849 H         1 0YH701      0.0000 
     49 H          -9.6542    0.0052   17.4486 H         1 0YH701      0.0000 
     50 H           0.0583   -8.2680   12.3208 H         1 0YH701      0.0000 
     51 H           0.6580   -7.0245   11.4960 H         1 0YH701      0.0000 
     52 H          -0.7072   -6.8537   12.3286 H         1 0YH701      0.0000 
     53 H          -7.4011    3.0611    7.3368 H         1 0YH701      0.0000 
     54 H          -7.6233    1.5026    7.6652 H         1 0YH701      0.0000 
     55 H          -8.1905    2.6245    8.6682 H         1 0YH701      0.0000 
     56 H          -4.0718    1.9665    8.3524 H         1 0YH701      0.0000 
     57 H          -5.0990    1.0966    7.4725 H         1 0YH701      0.0000 
     58 H          -4.8747    2.6540    7.1404 H         1 0YH701      0.0000 
     59 H          -4.9561    3.7902    9.9245 H         1 0YH701      0.0000 
     60 H          -5.7363    4.4436    8.6792 H         1 0YH701      0.0000 
     61 H          -6.5362    4.0727   10.0242 H         1 0YH701      0.0000 
     62 H           1.5691   -9.7177    7.7598 H         1 0YH701      0.0000 
     63 H           1.0946  -10.9644    8.6579 H         1 0YH701      0.0000 
     64 H           1.2424  -11.1309    7.0652 H         1 0YH701      0.0000 
@<TRIPOS>BOND
     1   16    1 1    
     2   47    1 1    
     3   48    1 1    
     4   49    1 1    
     5   17    2 1    
     6   50    2 1    
     7   51    2 1    
     8   52    2 1    
     9   26    3 1    
    10   53    3 1    
    11   54    3 1    
    12   55    3 1    
    13   26    4 1    
    14   56    4 1    
    15   57    4 1    
    16   58    4 1    
    17   26    5 1    
    18   59    5 1    
    19   60    5 1    
    20   61    5 1    
    21   34    6 1    
    22   62    6 1    
    23   63    6 1    
    24   64    6 1    
    25    9    7 ar   
    26   16    7 ar   
    27   35    7 1    
    28   10    8 ar   
    29   16    8 ar   
    30   36    8 1    
    31   18    9 ar   
    32   37    9 1    
    33   18   10 ar   
    34   38   10 1    
    35   12   11 ar   
    36   19   11 ar   
    37   39   11 1    
    38   20   12 ar   
    39   40   12 1    
    40   17   13 ar   
    41   19   13 ar   
    42   41   13 1    
    43   21   14 1    
    44   23   14 2    
    45   42   14 1    
    46   22   15 1    
    47   24   15 2    
    48   43   15 1    
    49   20   17 ar   
    50   32   18 1    
    51   34   19 1    
    52   21   20 1    
    53   28   21 2    
    54   26   22 1    
    55   29   22 2    
    56   27   23 1    
    57   30   23 1    
    58   31   24 1    
    59   32   24 1    
    60   30   25 am   
    61   31   25 am   
    62   33   25 2    
    63   28   27 1    
    64   44   27 1    
    65   32   29 1    
    66   45   30 1    
    67   46   31 1    
@<TRIPOS>SUBSTRUCTURE
     1 0YH701      1 GROUP   
@<TRIPOS>SET

