#    Name: 1QON_1_CAVITY_N1_ALL.mol2
#    Modification time : Tue Mar 11 04:07:20 2014

@<TRIPOS>MOLECULE
1QON_1_CAVITY_N1_ALL.mol2
  114     0     6     0     0
SMALL
NO_CHARGES


@<TRIPOS>ATOM
      1 OG         31.9755   78.4233   11.4574 O.2       1 SER1        0.0000 
      2 CZ         30.3218   78.4140   10.1287 C.ar      4 PHE5        0.0000 
      3 NZ         32.0808   75.1104   13.0429 N.2       3 LYS4        0.0000 
      4 OG         31.7185   75.8601   11.7952 O.2       1 SER1        0.0000 
      5 CZ         31.3561   76.6098   10.5476 C.ar      4 PHE5        0.0000 
      6 CA         33.1151   73.3062   13.4618 C.3       5 GLY6        0.0000 
      7 CA         32.7527   74.0560   12.2141 C.3       5 GLY6        0.0000 
      8 CZ         32.3903   74.8057   10.9665 C.ar      4 PHE5        0.0000 
      9 CZ         33.7869   72.2518   12.6330 C.ar      4 PHE5        0.0000 
     10 CZ         33.4245   73.0015   11.3854 C.ar      4 PHE5        0.0000 
     11 CZ         34.4588   71.1974   11.8043 C.ar      4 PHE5        0.0000 
     12 CZ         34.0964   71.9471   10.5566 C.ar      4 PHE5        0.0000 
     13 CZ         35.1306   70.1430   10.9755 C.ar      4 PHE5        0.0000 
     14 CZ         34.7682   70.8927    9.7279 C.ar      4 PHE5        0.0000 
     15 CZ         36.1649   68.3389   11.3944 C.ar      4 PHE5        0.0000 
     16 OG         35.8025   69.0886   10.1468 O.2       1 SER1        0.0000 
     17 OG         35.4401   69.8383    8.8991 O.2       1 SER1        0.0000 
     18 CA         35.0777   70.5880    7.6515 C.3       5 GLY6        0.0000 
     19 CZ         37.1991   66.5347   11.8133 C.ar      4 PHE5        0.0000 
     20 CZ         36.8367   67.2845   10.5656 C.ar      4 PHE5        0.0000 
     21 CA         36.4743   68.0342    9.3180 C.3       5 GLY6        0.0000 
     22 N          36.1120   68.7839    8.0704 N.2       2 ALA2        0.0000 
     23 N          35.7496   69.5336    6.8227 N.2       2 ALA2        0.0000 
     24 O          37.8709   65.4803   10.9845 O.2       2 ALA2        0.0000 
     25 CA         37.5086   66.2300    9.7369 C.3       5 GLY6        0.0000 
     26 OG         30.7896   74.3513   12.9618 O.2       1 SER1        0.0000 
     27 OG         30.0648   75.8508   10.4665 O.2       1 SER1        0.0000 
     28 CZ         31.8238   72.5472   13.3807 C.ar      4 PHE5        0.0000 
     29 DU         31.4614   73.2969   12.1330 H         6 CUB7        0.0000 
     30 OG         31.0991   74.0466   10.8854 O.2       1 SER1        0.0000 
     31 CZ         32.4957   71.4928   12.5519 C.ar      4 PHE5        0.0000 
     32 CZ         32.1333   72.2425   11.3043 C.ar      4 PHE5        0.0000 
     33 CZ         33.1675   70.4384   11.7232 C.ar      4 PHE5        0.0000 
     34 CZ         32.8052   71.1881   10.4755 C.ar      4 PHE5        0.0000 
     35 CZ         33.8394   69.3840   10.8944 C.ar      4 PHE5        0.0000 
     36 CZ         33.4770   70.1337    9.6468 C.ar      4 PHE5        0.0000 
     37 CZ         33.1146   70.8834    8.3992 C.ar      4 PHE5        0.0000 
     38 CZ         34.8736   67.5798   11.3133 C.ar      4 PHE5        0.0000 
     39 CZ         34.5112   68.3296   10.0657 C.ar      4 PHE5        0.0000 
     40 DU         34.1489   69.0793    8.8180 H         6 CUB7        0.0000 
     41 CZ         33.7865   69.8290    7.5704 C.ar      4 PHE5        0.0000 
     42 CZ         35.9078   65.7757   11.7322 C.ar      4 PHE5        0.0000 
     43 CA         35.5455   66.5254   10.4846 C.3       5 GLY6        0.0000 
     44 CA         35.1831   67.2751    9.2369 C.3       5 GLY6        0.0000 
     45 CA         34.8207   68.0249    7.9893 C.3       5 GLY6        0.0000 
     46 CA         34.4583   68.7746    6.7417 C.3       5 GLY6        0.0000 
     47 CA         36.9421   63.9716   12.1511 C.3       5 GLY6        0.0000 
     48 O          36.5797   64.7213   10.9035 O.2       2 ALA2        0.0000 
     49 CZ         29.1360   74.3420   11.6331 C.ar      4 PHE5        0.0000 
     50 CZ         30.1702   72.5379   12.0520 C.ar      4 PHE5        0.0000 
     51 OG         29.8078   73.2876   10.8043 O.2       1 SER1        0.0000 
     52 CZ         30.8421   71.4835   11.2232 C.ar      4 PHE5        0.0000 
     53 CZ         31.5139   70.4291   10.3945 C.ar      4 PHE5        0.0000 
     54 CZ         31.1515   71.1788    9.1468 C.ar      4 PHE5        0.0000 
     55 OG         32.1858   69.3747    9.5657 O.2       1 SER1        0.0000 
     56 CZ         31.8234   70.1244    8.3181 C.ar      4 PHE5        0.0000 
     57 OG         33.2200   67.5705    9.9846 O.2       1 SER1        0.0000 
     58 OG         32.8576   68.3202    8.7370 O.2       1 SER1        0.0000 
     59 CZ         32.4952   69.0700    7.4893 C.ar      4 PHE5        0.0000 
     60 CA         32.1329   69.8197    6.2417 C.3       5 GLY6        0.0000 
     61 CZ         34.6166   65.0167   11.6511 C.ar      4 PHE5        0.0000 
     62 OG         34.2542   65.7664   10.4035 O.2       1 SER1        0.0000 
     63 CA         33.8919   66.5161    9.1559 C.3       5 GLY6        0.0000 
     64 CA         33.5295   67.2658    7.9082 C.3       5 GLY6        0.0000 
     65 CA         33.1671   68.0156    6.6606 C.3       5 GLY6        0.0000 
     66 N          35.6508   63.2125   12.0700 N.2       2 ALA2        0.0000 
     67 O          35.2885   63.9623   10.8224 O.2       2 ALA2        0.0000 
     68 CZ         29.5508   70.7244   11.1422 C.ar      4 PHE5        0.0000 
     69 OG         29.1884   71.4742    9.8945 O.2       1 SER1        0.0000 
     70 OG         30.5851   68.9203   11.5610 O.2       1 SER1        0.0000 
     71 CZ         30.2227   69.6700   10.3134 C.ar      4 PHE5        0.0000 
     72 OG         29.8603   70.4198    9.0658 O.2       1 SER1        0.0000 
     73 OG         30.8945   68.6156    9.4847 O.2       1 SER1        0.0000 
     74 CA         30.5322   69.3653    8.2370 C.3       5 GLY6        0.0000 
     75 OG         31.5664   67.5612    8.6559 O.2       1 SER1        0.0000 
     76 CA         31.2040   68.3109    7.4083 C.3       5 GLY6        0.0000 
     77 N          33.3254   64.2576   11.5701 N.2       2 ALA2        0.0000 
     78 OG         32.9630   65.0074   10.3224 O.2       1 SER1        0.0000 
     79 OG         32.6006   65.7571    9.0748 O.2       1 SER1        0.0000 
     80 CA         32.2382   66.5068    7.8271 C.3       5 GLY6        0.0000 
     81 CA         31.8759   67.2565    6.5795 C.3       5 GLY6        0.0000 
     82 CZ         33.9972   63.2032   10.7413 C.ar      4 PHE5        0.0000 
     83 CZ         33.6348   63.9529    9.4937 C.ar      4 PHE5        0.0000 
     84 CA         32.9101   65.4524    6.9984 C.3       5 GLY6        0.0000 
     85 N          32.5477   66.2021    5.7508 N.2       2 ALA2        0.0000 
     86 CZ         28.2596   69.9654   11.0611 C.ar      4 PHE5        0.0000 
     87 CZ         29.2938   68.1613   11.4800 C.ar      4 PHE5        0.0000 
     88 O          28.9314   68.9110   10.2323 O.2       2 ALA2        0.0000 
     89 N          28.5691   69.6607    8.9847 N.2       2 ALA2        0.0000 
     90 OG         29.9657   67.1069   10.6512 O.2       1 SER1        0.0000 
     91 CA         29.6033   67.8566    9.4036 C.3       5 GLY6        0.0000 
     92 OG         30.6375   66.0525    9.8225 O.2       1 SER1        0.0000 
     93 CA         30.2751   66.8022    8.5748 C.3       5 GLY6        0.0000 
     94 CA         29.9128   67.5519    7.3272 C.3       5 GLY6        0.0000 
     95 N          32.0341   63.4986   11.4890 N.2       2 ALA2        0.0000 
     96 OG         31.6718   64.2483   10.2414 O.2       1 SER1        0.0000 
     97 OG         31.3094   64.9980    8.9937 O.2       1 SER1        0.0000 
     98 N          30.9470   65.7478    7.7461 N.2       2 ALA2        0.0000 
     99 N          30.5846   66.4975    6.4984 N.2       2 ALA2        0.0000 
    100 CA         32.7060   62.4442   10.6602 C.3       5 GLY6        0.0000 
    101 CZ         32.3436   63.1939    9.4126 C.ar      4 PHE5        0.0000 
    102 CZ         31.6189   64.6934    6.9173 C.ar      4 PHE5        0.0000 
    103 N          31.2565   65.4431    5.6697 N.2       2 ALA2        0.0000 
    104 OG         28.0026   67.4022   11.3989 O.2       1 SER1        0.0000 
    105 OG         28.6744   66.3478   10.5701 O.2       1 SER1        0.0000 
    106 N          29.7087   64.5437   10.9890 N.2       2 ALA2        0.0000 
    107 O          29.3463   65.2934    9.7414 O.2       2 ALA2        0.0000 
    108 NZ         30.3805   63.4893   10.1603 N.2       3 LYS4        0.0000 
    109 NZ         30.0181   64.2390    8.9126 N.2       3 LYS4        0.0000 
    110 N          29.6558   64.9887    7.6650 N.2       2 ALA2        0.0000 
    111 NZ         31.0524   62.4349    9.3315 N.2       3 LYS4        0.0000 
    112 OG         30.6900   63.1846    8.0839 O.2       1 SER1        0.0000 
    113 OG         30.3276   63.9343    6.8363 O.2       1 SER1        0.0000 
    114 NZ         28.7269   63.4800    8.8316 N.2       3 LYS4        0.0000 
@<TRIPOS>BOND
@<TRIPOS>SUBSTRUCTURE
     1 SER1        1 GROUP   
     2 ALA2       22 GROUP   
     3 LYS4        3 GROUP   
     4 PHE5        2 GROUP   
     5 GLY6        6 GROUP   
     6 CUB7       29 GROUP   
@<TRIPOS>SET

