#    Name: 1qon_I40_1_INTS_M
#    Modification time : Mon Mar 24 23:43:55 2014

@<TRIPOS>MOLECULE
1qon_I40_1_INTS_M
   32     0     3     0     0
SMALL
NO_CHARGES


@<TRIPOS>ATOM
      1 CA         31.0735   64.1470   11.8710 C.3       1 GLC5        0.0000 
      2 CA         31.8800   63.6290    9.8680 C.3       3 GLL5        0.0000 
      3 CA         30.2670   64.6650   13.8740 C.3       2 GLP5        0.0000 
      4 CA         32.2440   62.0655   11.3150 C.3       1 GLC5        0.0000 
      5 CA         32.6080   60.5020   12.7620 C.3       2 GLP5        0.0000 
      6 CA         38.5195   67.7330    9.1665 C.3       1 GLC5        0.0000 
      7 CA         37.1020   67.4270   10.8440 C.3       3 GLL5        0.0000 
      8 CA         39.9370   68.0390    7.4890 C.3       2 GLP5        0.0000 
      9 CA         27.7370   71.4935   11.5020 C.3       1 GLC5        0.0000 
     10 CA         28.9990   71.0380   10.6010 C.3       3 GLL5        0.0000 
     11 CA         26.4750   71.9490   12.4030 C.3       2 GLP5        0.0000 
     12 CA         29.4760   70.2590   12.3905 C.3       1 GLC5        0.0000 
     13 CA         29.9530   69.4800   14.1800 C.3       2 GLP5        0.0000 
     14 CA         33.5595   71.0140    7.4060 C.3       1 GLC5        0.0000 
     15 CA         33.7980   69.4540    8.4450 C.3       3 GLL5        0.0000 
     16 CA         33.3210   72.5740    6.3670 C.3       2 GLP5        0.0000 
     17 CA         34.2910   72.8425   12.7870 C.3       1 GLC5        0.0000 
     18 CA         33.0330   71.7230   11.5060 C.3       3 GLL5        0.0000 
     19 CA         35.5490   73.9620   14.0680 C.3       2 GLP5        0.0000 
     20 CA         32.3540   62.7203    8.2973 C.3       1 GLC5        0.0000 
     21 CA         33.3510   61.7830    7.2870 C.3       2 GLP5        0.0000 
     22 CA         32.2265   64.2993    7.6315 C.3       1 GLC5        0.0000 
     23 CA         30.2550   64.9410    8.5700 C.3       3 GLL5        0.0000 
     24 CA         33.7240   63.0230    6.7740 C.3       2 GLP5        0.0000 
     25 CA         29.0195   66.4777    7.9730 C.3       1 GLC5        0.0000 
     26 CA         27.3100   67.3800    7.4570 C.3       2 GLP5        0.0000 
     27 CA         37.1388   65.0337   13.1618 C.3       1 GLC5        0.0000 
     28 CA         36.2670   65.2160   11.3640 C.3       3 GLL5        0.0000 
     29 CA         37.5370   64.3870   14.9190 C.3       2 GLP5        0.0000 
     30 CA         34.5780   66.2641    7.7731 C.3       1 GLC5        0.0000 
     31 CA         34.8840   66.8410    9.9730 C.3       3 GLL5        0.0000 
     32 CA         35.1640   65.8580    5.9510 C.3       2 GLP5        0.0000 
@<TRIPOS>BOND
@<TRIPOS>SUBSTRUCTURE
     1 GLC5        1 GROUP        1 X    GLC  0     ROOT GLC X 6
     2 GLP5        3 GROUP        1 Y    GLP  0     ROOT GLP Y 13
     3 GLL5        2 GROUP        1 Z    GLL  0     ROOT GLL Z 20
@<TRIPOS>SET

