#    Name: 1qon_I40_1_ligand
#    Modification time : Mon Mar 24 23:43:55 2014

@<TRIPOS>MOLECULE
1qon_I40_1_ligand
   43    46     1     0     0
SMALL
NO_CHARGES


@<TRIPOS>ATOM
      1 C1         31.8800   63.6290    9.8680 C.3       1 I40997      0.0000 
      2 C2         30.8340   63.6860    8.7470 C.3       1 I40997      0.0000 
      3 C3         30.2550   64.9410    8.5700 C.3       1 I40997      0.0000 
      4 C4         31.2030   66.2100    8.4080 C.3       1 I40997      0.0000 
      5 C5         33.6250   67.0380    9.2530 C.ar      1 I40997      0.0000 
      6 C6         35.9450   67.7160   10.1380 C.ar      1 I40997      0.0000 
      7 C7         37.1020   67.4270   10.8440 C.ar      1 I40997      0.0000 
      8 C8         37.2140   66.1450   11.4450 C.ar      1 I40997      0.0000 
      9 C9         36.2670   65.2160   11.3640 C.ar      1 I40997      0.0000 
     10 N1         34.0400   64.5160   10.5460 N.pl3     1 I40997      0.0000 
     11 C10        32.9550   64.7550    9.9000 C.ar      1 I40997      0.0000 
     12 C11        32.5750   65.9610    9.1820 C.ar      1 I40997      0.0000 
     13 C12        34.8840   66.8410    9.9730 C.ar      1 I40997      0.0000 
     14 C13        35.0370   65.4680   10.6350 C.ar      1 I40997      0.0000 
     15 N2         33.1870   68.1090    8.6030 N.pl3     1 I40997      0.0000 
     16 I1         28.9990   71.0380   10.6010 I         1 I40997      0.0000 
     17 C14        33.7980   69.4540    8.4450 C.3       1 I40997      0.0000 
     18 C15        33.0450   70.2770    9.5330 C.ar      1 I40997      0.0000 
     19 C16        31.6720   70.2820    9.5570 C.ar      1 I40997      0.0000 
     20 C17        31.0360   70.9770   10.5100 C.ar      1 I40997      0.0000 
     21 C18        31.6910   71.7060   11.4950 C.ar      1 I40997      0.0000 
     22 C19        33.0330   71.7230   11.5060 C.ar      1 I40997      0.0000 
     23 C20        33.7830   71.0070   10.5230 C.ar      1 I40997      0.0000 
     24 H          32.4097   62.6506    9.8157 H         1 I40997      0.0000 
     25 H          31.3545   63.6287   10.8500 H         1 I40997      0.0000 
     26 H          30.0727   62.9004    8.9816 H         1 I40997      0.0000 
     27 H          31.3418   63.3219    7.8189 H         1 I40997      0.0000 
     28 H          29.5531   65.2145    9.4193 H         1 I40997      0.0000 
     29 H          29.5725   64.9758    7.6635 H         1 I40997      0.0000 
     30 H          30.7166   67.0620    8.8352 H         1 I40997      0.0000 
     31 H          31.4151   66.3530    7.3690 H         1 I40997      0.0000 
     32 H          35.8665   68.6773    9.6916 H         1 I40997      0.0000 
     33 H          37.8523   68.0970   10.9376 H         1 I40997      0.0000 
     34 H          38.1095   65.9570   11.9748 H         1 I40997      0.0000 
     35 H          36.3562   64.2842   11.8075 H         1 I40997      0.0000 
     36 H          34.2123   63.5948   11.0290 H         1 I40997      0.0000 
     37 H          32.2218   68.0455    8.0795 H         1 I40997      0.0000 
     38 H          33.5786   69.8690    7.5005 H         1 I40997      0.0000 
     39 H          34.8247   69.4421    8.6858 H         1 I40997      0.0000 
     40 H          31.1482   69.7502    8.8405 H         1 I40997      0.0000 
     41 H          31.1362   72.2175   12.1952 H         1 I40997      0.0000 
     42 H          33.5673   72.2507   12.2206 H         1 I40997      0.0000 
     43 H          34.7788   71.0129   10.5229 H         1 I40997      0.0000 
@<TRIPOS>BOND
     1    2    1 1    
     2   11    1 1    
     3   24    1 1    
     4   25    1 1    
     5    3    2 1    
     6   26    2 1    
     7   27    2 1    
     8    4    3 1    
     9   28    3 1    
    10   29    3 1    
    11   12    4 1    
    12   30    4 1    
    13   31    4 1    
    14   12    5 ar   
    15   13    5 ar   
    16   15    5 1    
    17    7    6 ar   
    18   13    6 ar   
    19   32    6 1    
    20    8    7 ar   
    21   33    7 1    
    22    9    8 ar   
    23   34    8 1    
    24   14    9 ar   
    25   35    9 1    
    26   11   10 ar   
    27   14   10 ar   
    28   36   10 1    
    29   12   11 ar   
    30   14   13 ar   
    31   17   15 1    
    32   37   15 1    
    33   20   16 1    
    34   18   17 1    
    35   38   17 1    
    36   39   17 1    
    37   19   18 ar   
    38   23   18 ar   
    39   20   19 ar   
    40   40   19 1    
    41   21   20 ar   
    42   22   21 ar   
    43   41   21 1    
    44   23   22 ar   
    45   42   22 1    
    46   43   23 1    
@<TRIPOS>SUBSTRUCTURE
     1 I40997      1 GROUP   
@<TRIPOS>SET

