#    Name: 3b99_U51_3_INTS_M
#    Modification time : Mon Mar 24 19:10:04 2014

@<TRIPOS>MOLECULE
3b99_U51_3_INTS_M
   72     0     9     0     0
SMALL
NO_CHARGES


@<TRIPOS>ATOM
      1 N           0.5395   -3.1020   40.5215 N.am      1 SEC2        0.0000 
      2 N           0.7410   -2.4500   39.1230 N.am      7 SEL2        0.0000 
      3 N           0.3380   -3.7540   41.9200 N.am      4 SEP2        0.0000 
      4 NZ          0.9945   -2.4355   41.2750 N.4       2 LYC4        0.0000 
      5 NZ          1.6510   -1.1170   40.6300 N.4       8 LYL4        0.0000 
      6 NZ          0.9840   -4.0480   43.0320 N.4       5 LYP4        0.0000 
      7 N           0.9945   -2.4355   41.2750 N.am      1 SEC2        0.0000 
      8 N           1.6510   -1.1170   40.6300 N.am      7 SEL2        0.0000 
      9 CA         -2.5500    4.3040   38.9325 C.3       3 GLC5        0.0000 
     10 CA         -3.2280    2.3020   38.3300 C.3       9 GLL5        0.0000 
     11 CA         -1.8720    6.3060   39.5350 C.3       6 GLP5        0.0000 
     12 CA         -2.1780    1.7460   35.3340 C.3       3 GLC5        0.0000 
     13 CA         -3.2100    1.5140   37.0230 C.3       9 GLL5        0.0000 
     14 CA         -1.1460    1.9780   33.6450 C.3       6 GLP5        0.0000 
     15 CA         -4.2170    0.1220   33.6965 C.3       3 GLC5        0.0000 
     16 CA         -4.4970   -0.2840   35.6810 C.3       9 GLL5        0.0000 
     17 CA         -3.9370    0.5280   31.7120 C.3       6 GLP5        0.0000 
     18 CA         -6.2510    0.4630   35.5660 C.3       3 GLC5        0.0000 
     19 CA         -5.4240   -1.4090   36.0970 C.3       9 GLL5        0.0000 
     20 CA         -7.0780    2.3350   35.0350 C.3       6 GLP5        0.0000 
     21 CA         -7.2935   -1.2515   35.8970 C.3       3 GLC5        0.0000 
     22 CA         -9.1630   -1.0940   35.6970 C.3       6 GLP5        0.0000 
     23 CA         -5.2155   -3.2760   35.0115 C.3       3 GLC5        0.0000 
     24 CA         -5.0070   -5.1430   33.9260 C.3       6 GLP5        0.0000 
     25 N          -2.3280   -2.4205   35.2625 N.am      1 SEC2        0.0000 
     26 N          -3.3200   -1.1390   35.5960 N.am      7 SEL2        0.0000 
     27 N          -1.3360   -3.7020   34.9290 N.am      4 SEP2        0.0000 
     28 N          -2.3530   -2.8740   35.6915 N.am      1 SEC2        0.0000 
     29 N          -3.3700   -2.0460   36.4540 N.am      7 SEL2        0.0000 
     30 CA         -3.9305   -3.6280   37.8000 C.3       3 GLC5        0.0000 
     31 CA         -4.5830   -1.9190   37.2490 C.3       9 GLL5        0.0000 
     32 CA         -3.2780   -5.3370   38.3510 C.3       6 GLP5        0.0000 
     33 CA         -5.5575    0.2210   41.9965 C.3       3 GLC5        0.0000 
     34 CA         -5.9100   -0.0220   39.9310 C.3       9 GLL5        0.0000 
     35 CA         -5.2050    0.4640   44.0620 C.3       6 GLP5        0.0000 
     36 CA         -7.5770    1.4620   37.6760 C.3       3 GLC5        0.0000 
     37 CA         -7.2400    0.2440   39.2900 C.3       9 GLL5        0.0000 
     38 CA         -7.9140    2.6800   36.0620 C.3       6 GLP5        0.0000 
     39 CA         -9.0715   -1.4695   41.5910 C.3       3 GLC5        0.0000 
     40 CA         -8.2850   -0.6260   39.9990 C.3       9 GLL5        0.0000 
     41 CA         -9.8580   -2.3130   43.1830 C.3       6 GLP5        0.0000 
     42 CA        -10.8780   -2.7115   39.2045 C.3       3 GLC5        0.0000 
     43 CA         -8.9870   -3.0560   39.5400 C.3       9 GLL5        0.0000 
     44 CA        -12.7690   -2.3670   38.8690 C.3       6 GLP5        0.0000 
     45 CA         -6.0040   -5.6425   38.2110 C.3       3 GLC5        0.0000 
     46 CA         -7.8570   -5.2280   38.8790 C.3       9 GLL5        0.0000 
     47 CA         -4.1510   -6.0570   37.5430 C.3       6 GLP5        0.0000 
     48 CA         -6.4620   -6.5805   39.6120 C.3       3 GLC5        0.0000 
     49 CA         -5.0670   -7.9330   40.3450 C.3       6 GLP5        0.0000 
     50 CA          1.0573    2.1690   39.5218 C.3       3 GLC5        0.0000 
     51 CA         -0.5050    0.7670   40.2220 C.3       9 GLL5        0.0000 
     52 CA          2.8360    3.1810   39.4410 C.3       6 GLP5        0.0000 
     53 CA         -1.0617    3.8590   39.5897 C.3       3 GLC5        0.0000 
     54 CA         -0.9380    1.5470   38.9830 C.3       9 GLL5        0.0000 
     55 CA         -0.5420    5.7880   40.0790 C.3       6 GLP5        0.0000 
     56 CA         -1.2023    3.1890   37.7067 C.3       3 GLC5        0.0000 
     57 CA         -2.2250    2.3130   39.2180 C.3       9 GLL5        0.0000 
     58 CA         -0.8230    4.4480   36.3130 C.3       6 GLP5        0.0000 
     59 CA         -4.3630    2.9700   36.7133 C.3       3 GLC5        0.0000 
     60 CA         -5.5070    4.0320   35.7500 C.3       6 GLP5        0.0000 
     61 CA         -2.0210    3.1780   36.9948 C.3       3 GLC5        0.0000 
     62 CA         -5.1458    1.5610   35.6015 C.3       3 GLC5        0.0000 
     63 CA         -4.3520    0.4900   36.9910 C.3       9 GLL5        0.0000 
     64 CA         -5.8670    3.0190   34.8670 C.3       6 GLP5        0.0000 
     65 CA         -5.7588   -1.3037   34.2750 C.3       3 GLC5        0.0000 
     66 CA         -6.5570   -1.7610   32.6610 C.3       6 GLP5        0.0000 
     67 CA         -8.4627   -0.6425   37.6707 C.3       3 GLC5        0.0000 
     68 CA         -8.6067   -2.8880   41.4875 C.3       3 GLC5        0.0000 
     69 CA         -7.8720   -2.0980   39.9500 C.3       9 GLL5        0.0000 
     70 CA         -8.7840   -3.1990   43.2300 C.3       6 GLP5        0.0000 
     71 CA         -9.8830   -3.1617   37.3945 C.3       3 GLC5        0.0000 
     72 CA        -10.9940   -2.8070   35.8190 C.3       6 GLP5        0.0000 
@<TRIPOS>BOND
@<TRIPOS>SUBSTRUCTURE
     1 SEC2        1 GROUP        1 X    SEC  0     ROOT SEC X 2
     2 LYC4        4 GROUP        1 X    LYC  0     **** LYC X 4
     3 GLC5        9 GROUP        1 X    GLC  0     **** GLC X 6
     4 SEP2        3 GROUP        1 Y    SEP  0     ROOT SEP Y 9
     5 LYP4        6 GROUP        1 Y    LYP  0     **** LYP Y 11
     6 GLP5       11 GROUP        1 Y    GLP  0     **** GLP Y 13
     7 SEL2        2 GROUP        1 Z    SEL  0     ROOT SEL Z 16
     8 LYL4        5 GROUP        1 Z    LYL  0     **** LYL Z 18
     9 GLL5       10 GROUP        1 Z    GLL  0     **** GLL Z 20
@<TRIPOS>SET

