#    Name: 3b99_U51_3_ligand
#    Modification time : Mon Mar 24 19:10:04 2014

@<TRIPOS>MOLECULE
3b99_U51_3_ligand
   55    56     1     0     0
SMALL
NO_CHARGES


@<TRIPOS>ATOM
      1 OAW         0.7410   -2.4500   39.1230 O.co2     1 U51702      0.0000 
      2 CAV         0.6790   -1.4720   39.9090 C.2       1 U51702      0.0000 
      3 OAX         1.6510   -1.1170   40.6300 O.co2     1 U51702      0.0000 
      4 CAR        -0.6440   -0.7350   39.9870 C.3       1 U51702      0.0000 
      5 CAQ        -0.5050    0.7670   40.2220 C.3       1 U51702      0.0000 
      6 CAP        -0.9380    1.5470   38.9830 C.3       1 U51702      0.0000 
      7 CAO        -2.2250    2.3130   39.2180 C.3       1 U51702      0.0000 
      8 CAN        -3.2280    2.3020   38.3300 C.2       1 U51702      0.0000 
      9 CAF        -3.2100    1.5140   37.0230 C.2       1 U51702      0.0000 
     10 CAD        -4.3520    0.4900   36.9910 C.3       1 U51702      0.0000 
     11 CAC        -4.4970   -0.2840   35.6810 C.3       1 U51702      0.0000 
     12 CAB        -5.4240   -1.4090   36.0970 C.3       1 U51702      0.0000 
     13 NAT        -3.3200   -1.1390   35.5960 N.2       1 U51702      0.0000 
     14 NAS        -3.3700   -2.0460   36.4540 N.2       1 U51702      0.0000 
     15 CAA        -4.5830   -1.9190   37.2490 C.3       1 U51702      0.0000 
     16 CAE        -4.1770   -0.6500   38.0040 C.3       1 U51702      0.0000 
     17 CAG        -4.7360   -0.3940   39.4020 C.2       1 U51702      0.0000 
     18 CAH        -5.9100   -0.0220   39.9310 C.2       1 U51702      0.0000 
     19 CAI        -7.2400    0.2440   39.2900 C.3       1 U51702      0.0000 
     20 CAJ        -8.2850   -0.6260   39.9990 C.3       1 U51702      0.0000 
     21 CAK        -7.8720   -2.0980   39.9500 C.3       1 U51702      0.0000 
     22 CAL        -8.9870   -3.0560   39.5400 C.3       1 U51702      0.0000 
     23 CAM        -8.5570   -3.9770   38.4000 C.3       1 U51702      0.0000 
     24 CAU        -7.8570   -5.2280   38.8790 C.3       1 U51702      0.0000 
     25 H          -1.2519   -1.1669   40.8010 H         1 U51702      0.0000 
     26 H          -1.2049   -0.8973   39.0502 H         1 U51702      0.0000 
     27 H           0.5330    1.0008   40.4494 H         1 U51702      0.0000 
     28 H          -1.1274    1.0581   41.0657 H         1 U51702      0.0000 
     29 H          -1.0774    0.8475   38.1524 H         1 U51702      0.0000 
     30 H          -0.1430    2.2473   38.7071 H         1 U51702      0.0000 
     31 H          -1.8867    3.3965   39.4679 H         1 U51702      0.0000 
     32 H          -2.5833    1.9795   40.2722 H         1 U51702      0.0000 
     33 H          -4.1134    2.8448   38.4735 H         1 U51702      0.0000 
     34 H          -2.6053    1.6324   36.3508 H         1 U51702      0.0000 
     35 H          -5.2985    0.9592   37.2025 H         1 U51702      0.0000 
     36 H          -4.7667    0.1836   34.9230 H         1 U51702      0.0000 
     37 H          -5.4778   -2.1246   35.3473 H         1 U51702      0.0000 
     38 H          -6.3202   -1.0227   36.4501 H         1 U51702      0.0000 
     39 H          -4.8744   -2.6319   37.7181 H         1 U51702      0.0000 
     40 H          -3.0338   -0.7374   38.1066 H         1 U51702      0.0000 
     41 H          -3.8967   -0.5822   40.1533 H         1 U51702      0.0000 
     42 H          -5.9624    0.1283   41.0212 H         1 U51702      0.0000 
     43 H          -7.2122   -0.0232   38.2452 H         1 U51702      0.0000 
     44 H          -7.5108    1.2817   39.4063 H         1 U51702      0.0000 
     45 H          -9.2446   -0.5048   39.5058 H         1 U51702      0.0000 
     46 H          -8.3696   -0.3102   41.0343 H         1 U51702      0.0000 
     47 H          -7.4929   -2.3944   40.9446 H         1 U51702      0.0000 
     48 H          -7.0284   -2.2075   39.2448 H         1 U51702      0.0000 
     49 H          -9.8596   -2.4775   39.2237 H         1 U51702      0.0000 
     50 H          -9.2741   -3.6636   40.4029 H         1 U51702      0.0000 
     51 H          -7.8883   -3.4190   37.7272 H         1 U51702      0.0000 
     52 H          -9.4470   -4.2571   37.8163 H         1 U51702      0.0000 
     53 H          -7.5865   -5.8169   38.1174 H         1 U51702      0.0000 
     54 H          -7.0267   -5.0149   39.3940 H         1 U51702      0.0000 
     55 H          -8.4418   -5.7743   39.4786 H         1 U51702      0.0000 
@<TRIPOS>BOND
     1    2    1 ar   
     2    3    2 ar   
     3    4    2 1    
     4    5    4 1    
     5   25    4 1    
     6   26    4 1    
     7    6    5 1    
     8   27    5 1    
     9   28    5 1    
    10    7    6 1    
    11   29    6 1    
    12   30    6 1    
    13    8    7 1    
    14   31    7 1    
    15   32    7 1    
    16    9    8 2    
    17   33    8 1    
    18   10    9 1    
    19   34    9 1    
    20   11   10 1    
    21   16   10 1    
    22   35   10 1    
    23   12   11 1    
    24   13   11 1    
    25   36   11 1    
    26   15   12 1    
    27   37   12 1    
    28   38   12 1    
    29   14   13 2    
    30   15   14 1    
    31   16   15 1    
    32   39   15 1    
    33   17   16 1    
    34   40   16 1    
    35   18   17 2    
    36   41   17 1    
    37   19   18 1    
    38   42   18 1    
    39   20   19 1    
    40   43   19 1    
    41   44   19 1    
    42   21   20 1    
    43   45   20 1    
    44   46   20 1    
    45   22   21 1    
    46   47   21 1    
    47   48   21 1    
    48   23   22 1    
    49   49   22 1    
    50   50   22 1    
    51   24   23 1    
    52   51   23 1    
    53   52   23 1    
    54   53   24 1    
    55   54   24 1    
    56   55   24 1    
@<TRIPOS>SUBSTRUCTURE
     1 U51702      1 GROUP   
@<TRIPOS>SET

