#    Name: 2dte_NAI_1_INTS_M
#    Modification time : Tue Mar 25 10:18:05 2014

@<TRIPOS>MOLECULE
2dte_NAI_1_INTS_M
   91     0     9     0     0
SMALL
NO_CHARGES


@<TRIPOS>ATOM
      1 N          33.6460  -29.2110   26.4550 N.am      2 SEC2        0.0000 
      2 N          34.1960  -28.4970   24.9960 N.am      8 SEL2        0.0000 
      3 N          33.0960  -29.9250   27.9140 N.am      5 SEP2        0.0000 
      4 O          34.2515  -29.7825   25.3420 O.2       1 ALC1        0.0000 
      5 O          34.1960  -28.4970   24.9960 O.2       7 ALL1        0.0000 
      6 O          34.3070  -31.0680   25.6880 O.2       4 ALP1        0.0000 
      7 O          34.2295  -30.4840   24.1510 O.2       1 ALC1        0.0000 
      8 O          34.1520  -29.9000   22.6140 O.2       7 ALL1        0.0000 
      9 CA         31.0285  -26.9115   21.9950 C.3       3 GLC5        0.0000 
     10 CA         32.8650  -27.8310   22.2260 C.3       9 GLL5        0.0000 
     11 CA         29.1920  -25.9920   21.7640 C.3       6 GLP5        0.0000 
     12 CA         29.1435  -30.6990   17.8145 C.3       3 GLC5        0.0000 
     13 CA         30.4550  -28.9930   18.1190 C.3       9 GLL5        0.0000 
     14 CA         27.8320  -32.4050   17.5100 C.3       6 GLP5        0.0000 
     15 O          29.4220  -29.8075   16.0770 O.2       1 ALC1        0.0000 
     16 O          30.3530  -28.8620   16.7880 O.2       7 ALL1        0.0000 
     17 O          28.4910  -30.7530   15.3660 O.2       4 ALP1        0.0000 
     18 N          28.1625  -30.0070   18.3700 N.am      2 SEC2        0.0000 
     19 N          29.5440  -29.7810   18.8240 N.am      8 SEL2        0.0000 
     20 N          26.7810  -30.2330   17.9160 N.am      5 SEP2        0.0000 
     21 CA         29.7705  -30.9660   21.7080 C.3       3 GLC5        0.0000 
     22 CA         29.6580  -29.9130   20.1940 C.3       9 GLL5        0.0000 
     23 CA         29.8830  -32.0190   23.2220 C.3       6 GLP5        0.0000 
     24 CA         30.4505  -31.4640   19.4245 C.3       3 GLC5        0.0000 
     25 CA         31.2430  -33.0150   18.6550 C.3       6 GLP5        0.0000 
     26 CA         28.7450  -31.1590   18.8520 C.3       3 GLC5        0.0000 
     27 CA         27.9120  -29.1830   20.1870 C.3       3 GLC5        0.0000 
     28 CA         26.1660  -28.4530   20.1800 C.3       6 GLP5        0.0000 
     29 CA         29.4250  -27.9525   20.9790 C.3       3 GLC5        0.0000 
     30 CA         32.3610  -30.1795   19.9185 C.3       3 GLC5        0.0000 
     31 CA         31.4560  -28.5910   20.2980 C.3       9 GLL5        0.0000 
     32 CA         33.2660  -31.7680   19.5390 C.3       6 GLP5        0.0000 
     33 N          38.1300  -20.4250   26.0250 N.am      2 SEC2        0.0000 
     34 N          36.8990  -20.5280   25.4330 N.am      8 SEL2        0.0000 
     35 N          39.3610  -20.3220   26.6170 N.am      5 SEP2        0.0000 
     36 N          35.5600  -22.5425   28.0310 N.am      2 SEC2        0.0000 
     37 N          35.7640  -22.3740   26.6260 N.am      8 SEL2        0.0000 
     38 N          35.3560  -22.7110   29.4360 N.am      5 SEP2        0.0000 
     39 CA         33.5015  -21.1275   27.2705 C.3       3 GLC5        0.0000 
     40 CA         33.2800  -21.3730   25.2720 C.3       9 GLL5        0.0000 
     41 CA         33.7230  -20.8820   29.2690 C.3       6 GLP5        0.0000 
     42 CA         30.9820  -19.0490   25.5710 C.3       3 GLC5        0.0000 
     43 CA         32.2570  -20.4020   24.7180 C.3       9 GLL5        0.0000 
     44 CA         29.7070  -17.6960   26.4240 C.3       6 GLP5        0.0000 
     45 CA         31.9665  -21.3495   21.6125 C.3       3 GLC5        0.0000 
     46 CA         32.2170  -20.1920   23.1940 C.3       9 GLL5        0.0000 
     47 CA         31.7160  -22.5070   20.0310 C.3       6 GLP5        0.0000 
     48 N          30.4155  -18.7775   22.0045 N.am      2 SEC2        0.0000 
     49 N          30.8830  -19.9470   22.7240 N.am      8 SEL2        0.0000 
     50 N          29.9480  -17.6080   21.2850 N.am      5 SEP2        0.0000 
     51 O          30.5045  -21.1420   23.2055 O.2       1 ALC1        0.0000 
     52 O          30.8830  -19.9470   22.7240 O.2       7 ALL1        0.0000 
     53 O          30.1260  -22.3370   23.6870 O.2       4 ALP1        0.0000 
     54 CA         31.8995  -17.7885   21.7270 C.3       3 GLC5        0.0000 
     55 CA         33.1130  -18.9700   23.0170 C.3       9 GLL5        0.0000 
     56 CA         30.6860  -16.6070   20.4370 C.3       6 GLP5        0.0000 
     57 N          33.4280  -17.0915   21.4090 N.am      2 SEC2        0.0000 
     58 N          32.8390  -18.3460   21.7340 N.am      8 SEL2        0.0000 
     59 N          34.0170  -15.8370   21.0840 N.am      5 SEP2        0.0000 
     60 N          31.3935  -17.9770   21.5095 N.am      2 SEC2        0.0000 
     61 CA         31.1975  -17.9345   25.3255 C.3       3 GLC5        0.0000 
     62 CA         32.6880  -18.1730   24.2270 C.3       9 GLL5        0.0000 
     63 N          38.4385  -15.1685   27.3370 N.am      2 SEC2        0.0000 
     64 N          37.8770  -15.6590   26.1220 N.am      8 SEL2        0.0000 
     65 N          39.0000  -14.6780   28.5520 N.am      5 SEP2        0.0000 
     66 CA         34.1890  -14.4660   26.9455 C.3       3 GLC5        0.0000 
     67 CA         35.3350  -15.0210   25.2980 C.3       9 GLL5        0.0000 
     68 CA         33.0430  -13.9110   28.5930 C.3       6 GLP5        0.0000 
     69 CA         31.4070  -16.7250   25.4590 C.3       3 GLC5        0.0000 
     70 CA         33.1070  -15.7540   24.4940 C.3       9 GLL5        0.0000 
     71 CA         35.9017  -27.2407   24.9496 C.3       3 GLC5        0.0000 
     72 CA         34.6160  -27.7730   23.8210 C.3       9 GLL5        0.0000 
     73 CA         37.3410  -27.6760   26.1720 C.3       6 GLP5        0.0000 
     74 CA         32.3107  -29.9072   18.3600 C.3       3 GLC5        0.0000 
     75 CA         31.4840  -28.3500   18.9050 C.3       9 GLL5        0.0000 
     76 CA         33.6520  -31.1430   18.2080 C.3       6 GLP5        0.0000 
     77 CA         29.0768  -27.9652   18.3645 C.3       3 GLC5        0.0000 
     78 CA         27.1840  -27.2590   18.2170 C.3       6 GLP5        0.0000 
     79 CA         30.3310  -27.2312   20.6827 C.3       3 GLC5        0.0000 
     80 CA         30.5892  -26.6628   17.7900 C.3       3 GLC5        0.0000 
     81 CA         30.2090  -24.6540   17.0680 C.3       6 GLP5        0.0000 
     82 CA         34.9177  -17.7780   26.7805 C.3       3 GLC5        0.0000 
     83 CA         34.8960  -17.4530   25.0230 C.3       9 GLL5        0.0000 
     84 CA         34.5100  -18.6240   28.3660 C.3       6 GLP5        0.0000 
     85 CA         32.7147  -14.0130   23.5467 C.3       3 GLC5        0.0000 
     86 CA         31.8710  -12.7530   22.4190 C.3       6 GLP5        0.0000 
     87 CA         32.3058  -14.5735   25.9793 C.3       3 GLC5        0.0000 
     88 CA         34.0100  -14.7920   24.8550 C.3       9 GLL5        0.0000 
     89 CA         31.0530  -13.8740   27.2840 C.3       6 GLP5        0.0000 
     90 CA         32.2414  -27.6730   24.0162 C.3       3 GLC5        0.0000 
     91 CA         30.5940  -27.7240   24.9490 C.3       6 GLP5        0.0000 
@<TRIPOS>BOND
@<TRIPOS>SUBSTRUCTURE
     1 ALC1        4 GROUP        1 X    ALC  0     ROOT ALC X 1
     2 SEC2        1 GROUP        1 X    SEC  0     **** SEC X 2
     3 GLC5        9 GROUP        1 X    GLC  0     **** GLC X 6
     4 ALP1        6 GROUP        1 Y    ALP  0     ROOT ALP Y 8
     5 SEP2        3 GROUP        1 Y    SEP  0     **** SEP Y 9
     6 GLP5       11 GROUP        1 Y    GLP  0     **** GLP Y 13
     7 ALL1        5 GROUP        1 Z    ALL  0     ROOT ALL Z 15
     8 SEL2        2 GROUP        1 Z    SEL  0     **** SEL Z 16
     9 GLL5       10 GROUP        1 Z    GLL  0     **** GLL Z 20
@<TRIPOS>SET

