#    Name: 2dte_NAI_1_ligand
#    Modification time : Tue Mar 25 10:18:05 2014

@<TRIPOS>MOLECULE
2dte_NAI_1_ligand
   71    75     1     0     0
SMALL
NO_CHARGES


@<TRIPOS>ATOM
      1 PA         36.9850  -24.0850   24.2120 P.3       1 NAI271      0.0000 
      2 O1A        37.5010  -24.3700   22.8730 O.co2     1 NAI271      0.0000 
      3 O2A        37.9430  -24.3440   25.3140 O.co2     1 NAI271      0.0000 
      4 O5B        35.6990  -24.9730   24.5550 O.3       1 NAI271      0.0000 
      5 C5B        34.7500  -25.2460   23.4870 C.3       1 NAI271      0.0000 
      6 C4B        33.8680  -26.4300   23.7800 C.3       1 NAI271      0.0000 
      7 O4B        33.0530  -26.4920   22.5830 O.3       1 NAI271      0.0000 
      8 C3B        34.6160  -27.7730   23.8210 C.3       1 NAI271      0.0000 
      9 O3B        34.1960  -28.4970   24.9960 O.3       1 NAI271      0.0000 
     10 C2B        34.2060  -28.4540   22.5070 C.3       1 NAI271      0.0000 
     11 O2B        34.1520  -29.9000   22.6140 O.3       1 NAI271      0.0000 
     12 C1B        32.8650  -27.8310   22.2260 C.3       1 NAI271      0.0000 
     13 N9A        32.5210  -27.8750   20.8140 N.pl3     1 NAI271      0.0000 
     14 C8A        33.1350  -27.2470   19.7390 C.2       1 NAI271      0.0000 
     15 N7A        32.5450  -27.5010   18.5460 N.2       1 NAI271      0.0000 
     16 C5A        31.4840  -28.3500   18.9050 C.ar      1 NAI271      0.0000 
     17 C6A        30.4550  -28.9930   18.1190 C.ar      1 NAI271      0.0000 
     18 N6A        30.3530  -28.8620   16.7880 N.pl3     1 NAI271      0.0000 
     19 N1A        29.5440  -29.7810   18.8240 N.ar      1 NAI271      0.0000 
     20 C2A        29.6580  -29.9130   20.1940 C.ar      1 NAI271      0.0000 
     21 N3A        30.5610  -29.3680   20.9940 N.ar      1 NAI271      0.0000 
     22 C4A        31.4560  -28.5910   20.2980 C.ar      1 NAI271      0.0000 
     23 O3         36.4820  -22.5870   24.2330 O.3       1 NAI271      0.0000 
     24 PN         35.8820  -21.6280   25.3640 P.3       1 NAI271      0.0000 
     25 O1N        36.8990  -20.5280   25.4330 O.co2     1 NAI271      0.0000 
     26 O2N        35.7640  -22.3740   26.6260 O.co2     1 NAI271      0.0000 
     27 O5D        34.5710  -20.9050   24.8600 O.3       1 NAI271      0.0000 
     28 C5D        33.2800  -21.3730   25.2720 C.3       1 NAI271      0.0000 
     29 C4D        32.2570  -20.4020   24.7180 C.3       1 NAI271      0.0000 
     30 O4D        32.5650  -19.0910   25.2910 O.3       1 NAI271      0.0000 
     31 C3D        32.2170  -20.1920   23.1940 C.3       1 NAI271      0.0000 
     32 O3D        30.8830  -19.9470   22.7240 O.3       1 NAI271      0.0000 
     33 C2D        33.1130  -18.9700   23.0170 C.3       1 NAI271      0.0000 
     34 O2D        32.8390  -18.3460   21.7340 O.3       1 NAI271      0.0000 
     35 C1D        32.6880  -18.1730   24.2270 C.3       1 NAI271      0.0000 
     36 N1N        33.6140  -17.0760   24.6010 N.pl3     1 NAI271      0.0000 
     37 C2N        34.8960  -17.4530   25.0230 C.2       1 NAI271      0.0000 
     38 C3N        35.7550  -16.4110   25.3670 C.2       1 NAI271      0.0000 
     39 C7N        37.1810  -16.6440   25.8530 C.2       1 NAI271      0.0000 
     40 O7N        37.8770  -15.6590   26.1220 O.2       1 NAI271      0.0000 
     41 N7N        37.6520  -17.8990   25.9820 N.am      1 NAI271      0.0000 
     42 C4N        35.3350  -15.0210   25.2980 C.3       1 NAI271      0.0000 
     43 C5N        34.0100  -14.7920   24.8550 C.2       1 NAI271      0.0000 
     44 C6N        33.1070  -15.7540   24.4940 C.2       1 NAI271      0.0000 
     45 H          35.2837  -25.4348   22.5348 H         1 NAI271      0.0000 
     46 H          34.1036  -24.3639   23.3097 H         1 NAI271      0.0000 
     47 H          33.2918  -26.2856   24.6194 H         1 NAI271      0.0000 
     48 H          35.6506  -27.5661   23.7942 H         1 NAI271      0.0000 
     49 H          34.8928  -28.1170   21.7515 H         1 NAI271      0.0000 
     50 H          32.1336  -28.2951   22.8302 H         1 NAI271      0.0000 
     51 H          33.9334  -26.6676   19.8519 H         1 NAI271      0.0000 
     52 H          31.0730  -28.3305   16.3417 H         1 NAI271      0.0000 
     53 H          29.5661  -29.3075   16.3610 H         1 NAI271      0.0000 
     54 H          28.8962  -30.5528   20.6568 H         1 NAI271      0.0000 
     55 H          33.1851  -21.3908   26.3535 H         1 NAI271      0.0000 
     56 H          33.0650  -22.3607   24.8754 H         1 NAI271      0.0000 
     57 H          31.2664  -20.6872   25.0528 H         1 NAI271      0.0000 
     58 H          32.6933  -21.0209   22.7397 H         1 NAI271      0.0000 
     59 H          34.1090  -19.2899   23.1427 H         1 NAI271      0.0000 
     60 H          31.7003  -17.7463   24.0047 H         1 NAI271      0.0000 
     61 H          35.1732  -18.4100   25.0728 H         1 NAI271      0.0000 
     62 H          36.9992  -18.6347   25.8016 H         1 NAI271      0.0000 
     63 H          38.6126  -17.9834   26.2467 H         1 NAI271      0.0000 
     64 H          36.0653  -14.4574   24.6414 H         1 NAI271      0.0000 
     65 H          35.4900  -14.5482   26.3150 H         1 NAI271      0.0000 
     66 H          33.7048  -13.7675   24.8043 H         1 NAI271      0.0000 
     67 H          32.1907  -15.5752   24.1870 H         1 NAI271      0.0000 
     68 H          34.4806  -29.4417   24.8332 H         1 NAI271      0.0000 
     69 H          34.1825  -30.0881   23.5957 H         1 NAI271      0.0000 
     70 H          30.2923  -20.4712   23.3374 H         1 NAI271      0.0000 
     71 H          33.5731  -18.6596   21.1318 H         1 NAI271      0.0000 
@<TRIPOS>BOND
     1    2    1 ar   
     2    3    1 ar   
     3    4    1 1    
     4   23    1 1    
     5    5    4 1    
     6    6    5 1    
     7   45    5 1    
     8   46    5 1    
     9    7    6 1    
    10    8    6 1    
    11   47    6 1    
    12   12    7 1    
    13    9    8 1    
    14   10    8 1    
    15   48    8 1    
    16   68    9 1    
    17   11   10 1    
    18   12   10 1    
    19   49   10 1    
    20   69   11 1    
    21   13   12 1    
    22   50   12 1    
    23   14   13 1    
    24   22   13 1    
    25   15   14 2    
    26   51   14 1    
    27   16   15 1    
    28   17   16 ar   
    29   22   16 ar   
    30   18   17 1    
    31   19   17 ar   
    32   52   18 1    
    33   53   18 1    
    34   20   19 ar   
    35   21   20 ar   
    36   54   20 1    
    37   22   21 ar   
    38   24   23 1    
    39   25   24 ar   
    40   26   24 ar   
    41   27   24 1    
    42   28   27 1    
    43   29   28 1    
    44   55   28 1    
    45   56   28 1    
    46   30   29 1    
    47   31   29 1    
    48   57   29 1    
    49   35   30 1    
    50   32   31 1    
    51   33   31 1    
    52   58   31 1    
    53   70   32 1    
    54   34   33 1    
    55   35   33 1    
    56   59   33 1    
    57   71   34 1    
    58   36   35 1    
    59   60   35 1    
    60   37   36 1    
    61   44   36 1    
    62   38   37 2    
    63   61   37 1    
    64   39   38 1    
    65   42   38 1    
    66   40   39 2    
    67   41   39 am   
    68   62   41 1    
    69   63   41 1    
    70   43   42 1    
    71   64   42 1    
    72   65   42 1    
    73   44   43 2    
    74   66   43 1    
    75   67   44 1    
@<TRIPOS>SUBSTRUCTURE
     1 NAI271      1 GROUP   
@<TRIPOS>SET

