#    Name: 4fst_HK4_1_INTS_M
#    Modification time : Mon Mar 24 20:42:07 2014

@<TRIPOS>MOLECULE
4fst_HK4_1_INTS_M
   77     0     9     0     0
SMALL
NO_CHARGES


@<TRIPOS>ATOM
      1 N           6.2320   -3.3540   14.2750 N.am      2 SEC2        0.0000 
      2 N           7.5360   -4.3480   14.6220 N.am      8 SEL2        0.0000 
      3 N           4.9280   -2.3600   13.9280 N.am      5 SEP2        0.0000 
      4 N           7.9070   -4.2130   16.0355 N.am      2 SEC2        0.0000 
      5 N           8.2780   -4.0780   17.4490 N.am      5 SEP2        0.0000 
      6 O           7.1125   -5.5430   14.5810 O.2       1 ALC1        0.0000 
      7 O           7.5360   -4.3480   14.6220 O.2       7 ALL1        0.0000 
      8 O           6.6890   -6.7380   14.5400 O.2       4 ALP1        0.0000 
      9 N           6.6155   -2.1060   14.0320 N.am      2 SEC2        0.0000 
     10 N           8.3030   -1.8520   14.1360 N.am      8 SEL2        0.0000 
     11 CA         10.2545    0.3640   13.2760 C.3       3 GLC5        0.0000 
     12 CA          8.6830   -0.4910   13.9100 C.3       9 GLL5        0.0000 
     13 CA         11.8260    1.2190   12.6420 C.3       6 GLP5        0.0000 
     14 CA          8.1480   -1.1330   12.1340 C.3       3 GLC5        0.0000 
     15 CA          7.6130   -1.7750   10.3580 C.3       6 GLP5        0.0000 
     16 CA          8.3925   -0.6740   15.6140 C.3       3 GLC5        0.0000 
     17 CA          8.1020   -0.8570   17.3180 C.3       6 GLP5        0.0000 
     18 CA         10.9235   -1.0015   12.0315 C.3       3 GLC5        0.0000 
     19 CA         10.2160   -2.6340   12.8210 C.3       9 GLL5        0.0000 
     20 CA         11.6310    0.6310   11.2420 C.3       6 GLP5        0.0000 
     21 CA          8.6300   -6.8965   12.4550 C.3       3 GLC5        0.0000 
     22 CA          9.3580   -5.2290   13.3620 C.3       9 GLL5        0.0000 
     23 CA          7.9020   -8.5640   11.5480 C.3       6 GLP5        0.0000 
     24 CA         15.9350   -4.7170    8.2595 C.3       3 GLC5        0.0000 
     25 CA         15.3820   -3.8850   10.1930 C.3       9 GLL5        0.0000 
     26 CA         16.4880   -5.5490    6.3260 C.3       6 GLP5        0.0000 
     27 CA         14.6700   -6.0565    9.5315 C.3       3 GLC5        0.0000 
     28 CA         16.0050   -5.0690   10.8170 C.3       9 GLL5        0.0000 
     29 CA         13.3350   -7.0440    8.2460 C.3       6 GLP5        0.0000 
     30 N          16.3355   -0.7555    8.3230 N.am      2 SEC2        0.0000 
     31 N          15.8220   -2.0760    8.8280 N.am      8 SEL2        0.0000 
     32 N          16.8490    0.5650    7.8180 N.am      5 SEP2        0.0000 
     33 O          13.8680   -0.9510    8.7565 O.2       1 ALC1        0.0000 
     34 O          14.5370   -2.0460    9.2920 O.2       7 ALL1        0.0000 
     35 O          13.1990    0.1440    8.2210 O.2       4 ALP1        0.0000 
     36 CA         19.3870   -5.3435    7.5575 C.3       3 GLC5        0.0000 
     37 CA         19.9290   -4.4210    9.2490 C.3       9 GLL5        0.0000 
     38 CA         18.8450   -6.2660    5.8660 C.3       6 GLP5        0.0000 
     39 CA         20.1305   -4.7460    6.8235 C.3       3 GLC5        0.0000 
     40 CA         21.4160   -3.2260    7.7810 C.3       9 GLL5        0.0000 
     41 CA         19.9230   -2.8820    6.4490 C.3       3 GLC5        0.0000 
     42 CA         18.4300   -2.5380    5.1170 C.3       6 GLP5        0.0000 
     43 CA         21.2835   -1.2335    7.1820 C.3       3 GLC5        0.0000 
     44 CA         21.1510    0.7590    6.5830 C.3       6 GLP5        0.0000 
     45 CA         21.7780   -2.5875    9.4920 C.3       3 GLC5        0.0000 
     46 CA         22.1400   -1.9490   11.2030 C.3       6 GLP5        0.0000 
     47 CA         20.8095   -6.2380   13.0085 C.3       3 GLC5        0.0000 
     48 CA         20.8330   -7.3800   11.2140 C.3       9 GLL5        0.0000 
     49 CA         20.7860   -5.0960   14.8030 C.3       6 GLP5        0.0000 
     50 CA          8.8525   -4.3005   11.5828 C.3       3 GLC5        0.0000 
     51 CA          8.7080   -3.9160    9.5580 C.3       6 GLP5        0.0000 
     52 CA          8.6295   -2.2560   11.7797 C.3       3 GLC5        0.0000 
     53 CA          9.0760   -2.8400   13.5820 C.3       9 GLL5        0.0000 
     54 CA         10.0300   -3.8356   15.0136 C.3       3 GLC5        0.0000 
     55 CA         10.5240   -4.6090   16.7580 C.3       6 GLP5        0.0000 
     56 CA         10.2260   -4.8682   14.8717 C.3       3 GLC5        0.0000 
     57 CA         10.4980   -5.0260   12.6090 C.3       9 GLL5        0.0000 
     58 CA         12.0875   -1.3817   11.1918 C.3       3 GLC5        0.0000 
     59 CA         12.0620   -3.5020   11.4760 C.3       9 GLL5        0.0000 
     60 CA         10.0469   -3.9277   10.7643 C.3       3 GLC5        0.0000 
     61 CA         12.4231   -2.6273   13.6357 C.3       3 GLC5        0.0000 
     62 CA         13.5310   -1.9130   15.2480 C.3       6 GLP5        0.0000 
     63 CA         14.8667   -2.4962   11.5495 C.3       3 GLC5        0.0000 
     64 CA         14.2290   -3.1320   10.1290 C.3       9 GLL5        0.0000 
     65 CA         16.1060   -1.7830   12.6310 C.3       6 GLP5        0.0000 
     66 CA         14.0702   -5.2762    9.2035 C.3       3 GLC5        0.0000 
     67 CA         13.7499   -3.4636    8.5092 C.3       3 GLC5        0.0000 
     68 CA         12.9950   -3.3800    6.6880 C.3       6 GLP5        0.0000 
     69 CA         17.0568   -6.3148    9.0328 C.3       3 GLC5        0.0000 
     70 CA         17.3940   -7.6020    7.4770 C.3       6 GLP5        0.0000 
     71 CA         17.3505   -4.6575    7.7720 C.3       3 GLC5        0.0000 
     72 CA         17.5920   -3.9070    9.5010 C.3       9 GLL5        0.0000 
     73 CA         18.2715   -6.6263    8.9400 C.3       3 GLC5        0.0000 
     74 CA         19.7730   -5.5120   10.1310 C.3       9 GLL5        0.0000 
     75 CA         20.8586   -3.3582   10.4072 C.3       3 GLC5        0.0000 
     76 CA         16.3546   -3.1224   11.4244 C.3       3 GLC5        0.0000 
     77 CA         17.4340   -4.9860   10.3600 C.3       9 GLL5        0.0000 
@<TRIPOS>BOND
@<TRIPOS>SUBSTRUCTURE
     1 ALC1        6 GROUP        1 X    ALC  0     ROOT ALC X 1
     2 SEC2        1 GROUP        1 X    SEC  0     **** SEC X 2
     3 GLC5       11 GROUP        1 X    GLC  0     **** GLC X 6
     4 ALP1        8 GROUP        1 Y    ALP  0     ROOT ALP Y 8
     5 SEP2        3 GROUP        1 Y    SEP  0     **** SEP Y 9
     6 GLP5       13 GROUP        1 Y    GLP  0     **** GLP Y 13
     7 ALL1        7 GROUP        1 Z    ALL  0     ROOT ALL Z 15
     8 SEL2        2 GROUP        1 Z    SEL  0     **** SEL Z 16
     9 GLL5       12 GROUP        1 Z    GLL  0     **** GLL Z 20
@<TRIPOS>SET

