#    Name: 4fst_HK4_1_ligand
#    Modification time : Mon Mar 24 20:42:07 2014

@<TRIPOS>MOLECULE
4fst_HK4_1_ligand
   45    48     1     0     0
SMALL
NO_CHARGES


@<TRIPOS>ATOM
      1 O1          7.5360   -4.3480   14.6220 O.3       1 HK4301      0.0000 
      2 C1          8.6360   -4.1410   13.8530 C.ar      1 HK4301      0.0000 
      3 C6          9.0760   -2.8400   13.5820 C.ar      1 HK4301      0.0000 
      4 O2          8.3030   -1.8520   14.1360 O.3       1 HK4301      0.0000 
      5 C7          8.6830   -0.4910   13.9100 C.3       1 HK4301      0.0000 
      6 C5         10.2160   -2.6340   12.8210 C.ar      1 HK4301      0.0000 
      7 C4         10.9210   -3.7280   12.3210 C.ar      1 HK4301      0.0000 
      8 C3         10.4980   -5.0260   12.6090 C.ar      1 HK4301      0.0000 
      9 C2          9.3580   -5.2290   13.3620 C.ar      1 HK4301      0.0000 
     10 C8         12.0620   -3.5020   11.4760 C.1       1 HK4301      0.0000 
     11 C9         13.0260   -3.2870   10.8070 C.1       1 HK4301      0.0000 
     12 C10        14.2290   -3.1320   10.1290 C.2       1 HK4301      0.0000 
     13 C12        15.3820   -3.8850   10.1930 C.2       1 HK4301      0.0000 
     14 C13        16.0050   -5.0690   10.8170 C.3       1 HK4301      0.0000 
     15 C14        17.4340   -4.9860   10.3600 C.ar      1 HK4301      0.0000 
     16 C21        17.5920   -3.9070    9.5010 C.ar      1 HK4301      0.0000 
     17 C11        16.3400   -3.1830    9.3730 C.2       1 HK4301      0.0000 
     18 N2         15.8220   -2.0760    8.8280 N.2       1 HK4301      0.0000 
     19 N1         14.5370   -2.0460    9.2920 N.pl3     1 HK4301      0.0000 
     20 C20        18.8340   -3.6250    8.9350 C.ar      1 HK4301      0.0000 
     21 C18        19.9290   -4.4210    9.2490 C.ar      1 HK4301      0.0000 
     22 O4         21.1960   -4.2540    8.7490 O.3       1 HK4301      0.0000 
     23 C19        21.4160   -3.2260    7.7810 C.3       1 HK4301      0.0000 
     24 C16        19.7730   -5.5120   10.1310 C.ar      1 HK4301      0.0000 
     25 C15        18.5250   -5.7890   10.6750 C.ar      1 HK4301      0.0000 
     26 O3         20.9160   -6.2290   10.3710 O.3       1 HK4301      0.0000 
     27 C17        20.8330   -7.3800   11.2140 C.3       1 HK4301      0.0000 
     28 H          10.5430   -1.6809   12.6242 H         1 HK4301      0.0000 
     29 H          11.0393   -5.8274   12.2578 H         1 HK4301      0.0000 
     30 H           9.0342   -6.1866   13.5655 H         1 HK4301      0.0000 
     31 H          15.5618   -5.9675   10.4502 H         1 HK4301      0.0000 
     32 H          15.9633   -5.0022   11.8810 H         1 HK4301      0.0000 
     33 H          13.8816   -1.3474    9.0749 H         1 HK4301      0.0000 
     34 H          18.9374   -2.8341    8.2906 H         1 HK4301      0.0000 
     35 H          18.4071   -6.5887   11.3115 H         1 HK4301      0.0000 
     36 H           9.5987   -0.2977   14.2624 H         1 HK4301      0.0000 
     37 H           8.6898   -0.2641   12.9361 H         1 HK4301      0.0000 
     38 H           8.0564    0.1484   14.3556 H         1 HK4301      0.0000 
     39 H          22.3706   -3.1928    7.4849 H         1 HK4301      0.0000 
     40 H          20.8595   -3.3623    6.9614 H         1 HK4301      0.0000 
     41 H          21.1895   -2.3213    8.1420 H         1 HK4301      0.0000 
     42 H          21.7215   -7.8259   11.3223 H         1 HK4301      0.0000 
     43 H          20.5086   -7.1464   12.1306 H         1 HK4301      0.0000 
     44 H          20.2042   -8.0651   10.8463 H         1 HK4301      0.0000 
     45 H           7.0433   -5.0936   14.1733 H         1 HK4301      0.0000 
@<TRIPOS>BOND
     1    2    1 1    
     2   45    1 1    
     3    3    2 ar   
     4    9    2 ar   
     5    4    3 1    
     6    6    3 ar   
     7    5    4 1    
     8   36    5 1    
     9   37    5 1    
    10   38    5 1    
    11    7    6 ar   
    12   28    6 1    
    13    8    7 ar   
    14   10    7 1    
    15    9    8 ar   
    16   29    8 1    
    17   30    9 1    
    18   11   10 3    
    19   12   11 1    
    20   13   12 2    
    21   19   12 1    
    22   14   13 1    
    23   17   13 1    
    24   15   14 1    
    25   31   14 1    
    26   32   14 1    
    27   16   15 ar   
    28   25   15 ar   
    29   17   16 1    
    30   20   16 ar   
    31   18   17 2    
    32   19   18 1    
    33   33   19 1    
    34   21   20 ar   
    35   34   20 1    
    36   22   21 1    
    37   24   21 ar   
    38   23   22 1    
    39   39   23 1    
    40   40   23 1    
    41   41   23 1    
    42   25   24 ar   
    43   26   24 1    
    44   35   25 1    
    45   27   26 1    
    46   42   27 1    
    47   43   27 1    
    48   44   27 1    
@<TRIPOS>SUBSTRUCTURE
     1 HK4301      1 GROUP   
@<TRIPOS>SET

