#    Name: 2brg_DFY_1_INTS_M
#    Modification time : Mon Mar 24 21:32:47 2014

@<TRIPOS>MOLECULE
2brg_DFY_1_INTS_M
   60     0     6     0     0
SMALL
NO_CHARGES


@<TRIPOS>ATOM
      1 CA          6.3990   -2.8160   21.0615 C.3       2 GLC5        0.0000 
      2 CA          5.8270   -2.0940   19.7640 C.3       6 GLL5        0.0000 
      3 CA          6.9710   -3.5380   22.3590 C.3       4 GLP5        0.0000 
      4 CA          5.4940   -0.8915   21.2025 C.3       2 GLC5        0.0000 
      5 CA          5.1610    0.3110   22.6410 C.3       4 GLP5        0.0000 
      6 CA          4.9860   -0.2440   19.1330 C.3       2 GLC5        0.0000 
      7 CA          4.1450    1.6060   18.5020 C.3       4 GLP5        0.0000 
      8 CA          5.0840   -2.0695   17.7260 C.3       2 GLC5        0.0000 
      9 CA          4.3410   -2.0450   15.6880 C.3       4 GLP5        0.0000 
     10 CA         -0.7045   -1.4440   21.4835 C.3       2 GLC5        0.0000 
     11 CA         -0.4470   -3.4320   20.6040 C.3       6 GLL5        0.0000 
     12 CA         -0.9620    0.5440   22.3630 C.3       4 GLP5        0.0000 
     13 CA          1.7240   -4.3910   16.2520 C.3       2 GLC5        0.0000 
     14 CA          1.4100   -6.0770   17.5750 C.3       6 GLL5        0.0000 
     15 CA          2.0380   -2.7050   14.9290 C.3       4 GLP5        0.0000 
     16 CA          4.4780   -8.5035   19.6385 C.3       2 GLC5        0.0000 
     17 CA          2.6700   -8.4080   18.4230 C.3       6 GLL5        0.0000 
     18 CA          6.2860   -8.5990   20.8540 C.3       4 GLP5        0.0000 
     19 N           3.9250   -0.7875   20.7230 N.am      1 SEC2        0.0000 
     20 N           4.5930   -1.9880   20.2900 N.am      5 SEL2        0.0000 
     21 N           3.2570    0.4130   21.1560 N.am      3 SEP2        0.0000 
     22 CA          4.4165   -1.3005   21.3375 C.3       2 GLC5        0.0000 
     23 CA          3.6720   -2.9120   20.0340 C.3       6 GLL5        0.0000 
     24 CA          3.1065   -1.0175   19.4505 C.3       2 GLC5        0.0000 
     25 CA          2.5410    0.8770   18.8670 C.3       4 GLP5        0.0000 
     26 CA          5.6995   -5.6750   20.1325 C.3       2 GLC5        0.0000 
     27 CA          5.3040   -4.1040   18.6950 C.3       6 GLL5        0.0000 
     28 CA          6.0950   -7.2460   21.5700 C.3       4 GLP5        0.0000 
     29 CA          4.5650   -7.2125   20.2770 C.3       2 GLC5        0.0000 
     30 CA          3.0350   -7.1790   18.9840 C.3       6 GLL5        0.0000 
     31 CA          6.0760   -3.1290   16.1745 C.3       2 GLC5        0.0000 
     32 CA          7.8110   -4.2130   16.6610 C.3       6 GLL5        0.0000 
     33 CA          7.2455   -2.9840   15.0965 C.3       2 GLC5        0.0000 
     34 CA          6.6800   -1.7550   13.5320 C.3       4 GLP5        0.0000 
     35 CA          7.2660   -6.7880   18.7490 C.3       2 GLC5        0.0000 
     36 CA          7.3060   -5.1480   17.8050 C.3       6 GLL5        0.0000 
     37 CA          7.2260   -8.4280   19.6930 C.3       4 GLP5        0.0000 
     38 CA          6.0795   -7.2380   18.4550 C.3       2 GLC5        0.0000 
     39 CA          4.9330   -6.0480   17.2170 C.3       6 GLL5        0.0000 
     40 CA          4.6370   -4.0465   16.4525 C.3       2 GLC5        0.0000 
     41 CA          1.3832   -5.2165   21.7980 C.3       2 GLC5        0.0000 
     42 CA          1.7960   -4.0850   19.9240 C.3       6 GLL5        0.0000 
     43 CA          1.6420   -6.1730   23.5220 C.3       4 GLP5        0.0000 
     44 CA          0.4912   -6.0593   21.9530 C.3       2 GLC5        0.0000 
     45 CA          0.0010   -5.7760   20.2250 C.3       6 GLL5        0.0000 
     46 CA         -1.4835   -2.8811   19.1973 C.3       2 GLC5        0.0000 
     47 CA          0.4530   -4.4350   20.2240 C.3       6 GLL5        0.0000 
     48 CA         -2.0910   -1.9010   17.7190 C.3       4 GLP5        0.0000 
     49 CA          0.2787   -5.7525   15.6840 C.3       2 GLC5        0.0000 
     50 CA         -0.6700   -4.8130   14.0690 C.3       4 GLP5        0.0000 
     51 CA          5.7674   -3.6631   20.7595 C.3       2 GLC5        0.0000 
     52 CA          3.9750   -4.0330   19.2160 C.3       6 GLL5        0.0000 
     53 CA          4.4524   -2.9166   17.4240 C.3       2 GLC5        0.0000 
     54 CA          2.4215   -7.0157   20.7805 C.3       2 GLC5        0.0000 
     55 CA          2.4230   -5.9920   18.5480 C.3       6 GLL5        0.0000 
     56 CA          2.1140   -7.4460   22.7950 C.3       4 GLP5        0.0000 
     57 CA          2.3353   -9.5094   19.2195 C.3       2 GLC5        0.0000 
     58 CA          2.0690  -11.2070   19.9810 C.3       4 GLP5        0.0000 
     59 CA          9.4127   -4.2188   17.9310 C.3       2 GLC5        0.0000 
     60 CA         11.2670   -3.7570   18.6290 C.3       4 GLP5        0.0000 
@<TRIPOS>BOND
@<TRIPOS>SUBSTRUCTURE
     1 SEC2       19 GROUP        1 X    SEC  0     ROOT SEC X 2
     2 GLC5        1 GROUP        1 X    GLC  0     **** GLC X 6
     3 SEP2       21 GROUP        1 Y    SEP  0     ROOT SEP Y 9
     4 GLP5        3 GROUP        1 Y    GLP  0     **** GLP Y 13
     5 SEL2       20 GROUP        1 Z    SEL  0     ROOT SEL Z 16
     6 GLL5        2 GROUP        1 Z    GLL  0     **** GLL Z 20
@<TRIPOS>SET

