#    Name: 2brg_DFY_1_ligand
#    Modification time : Mon Mar 24 21:32:47 2014

@<TRIPOS>MOLECULE
2brg_DFY_1_ligand
   46    49     1     0     0
SMALL
NO_CHARGES


@<TRIPOS>ATOM
      1 C2          5.8270   -2.0940   19.7640 C.ar      1 DFY1270     0.0000 
      2 C10         1.7960   -4.0850   19.9240 C.2       1 DFY1270     0.0000 
      3 C11         0.4530   -4.4350   20.2240 C.ar      1 DFY1270     0.0000 
      4 C12         0.0010   -5.7760   20.2250 C.ar      1 DFY1270     0.0000 
      5 C13        -1.3200   -6.1150   20.5430 C.ar      1 DFY1270     0.0000 
      6 C14        -2.2050   -5.1090   20.9090 C.ar      1 DFY1270     0.0000 
      7 C15        -1.7550   -3.7890   20.9370 C.ar      1 DFY1270     0.0000 
      8 C16        -0.4470   -3.4320   20.6040 C.ar      1 DFY1270     0.0000 
      9 C19         1.4100   -6.0770   17.5750 C.ar      1 DFY1270     0.0000 
     10 C20         1.0450   -7.3070   17.0230 C.ar      1 DFY1270     0.0000 
     11 C21         1.6660   -8.4810   17.4410 C.ar      1 DFY1270     0.0000 
     12 C22         2.6700   -8.4080   18.4230 C.ar      1 DFY1270     0.0000 
     13 N1          4.5930   -1.9880   20.2900 N.ar      1 DFY1270     0.0000 
     14 C6          3.6720   -2.9120   20.0340 C.ar      1 DFY1270     0.0000 
     15 O6          2.3710   -2.9630   20.4590 O.3       1 DFY1270     0.0000 
     16 C5          3.9750   -4.0330   19.2160 C.ar      1 DFY1270     0.0000 
     17 N9          5.8140   -5.0910   17.9060 N.4       1 DFY1270     0.0000 
     18 C4          5.3040   -4.1040   18.6950 C.ar      1 DFY1270     0.0000 
     19 N3          6.1900   -3.1150   18.9920 N.ar      1 DFY1270     0.0000 
     20 C17         3.0350   -7.1790   18.9840 C.ar      1 DFY1270     0.0000 
     21 C1          2.7520   -4.7640   19.1520 C.2       1 DFY1270     0.0000 
     22 C18         2.4230   -5.9920   18.5480 C.ar      1 DFY1270     0.0000 
     23 C23         7.8110   -4.2130   16.6610 C.3       1 DFY1270     0.0000 
     24 C8          7.3060   -5.1480   17.8050 C.3       1 DFY1270     0.0000 
     25 O24         8.2310   -2.9300   17.1550 O.3       1 DFY1270     0.0000 
     26 CAA         4.9330   -6.0480   17.2170 C.3       1 DFY1270     0.0000 
     27 H           6.5341   -1.3296   19.9772 H         1 DFY1270     0.0000 
     28 H           0.6740   -6.5269   19.9817 H         1 DFY1270     0.0000 
     29 H          -1.6229   -7.0885   20.5048 H         1 DFY1270     0.0000 
     30 H          -3.1712   -5.3296   21.1544 H         1 DFY1270     0.0000 
     31 H          -2.4236   -3.0364   21.2186 H         1 DFY1270     0.0000 
     32 H          -0.1506   -2.4584   20.6364 H         1 DFY1270     0.0000 
     33 H           0.9328   -5.2158   17.2680 H         1 DFY1270     0.0000 
     34 H           0.3106   -7.3439   16.3013 H         1 DFY1270     0.0000 
     35 H           1.4019   -9.3813   17.0458 H         1 DFY1270     0.0000 
     36 H           3.1403   -9.2707   18.7309 H         1 DFY1270     0.0000 
     37 H           5.7839   -4.2158   16.7607 H         1 DFY1270     0.0000 
     38 H           3.7524   -7.1421   19.7170 H         1 DFY1270     0.0000 
     39 H           6.9869   -4.1221   15.9352 H         1 DFY1270     0.0000 
     40 H           8.6317   -4.7443   16.1528 H         1 DFY1270     0.0000 
     41 H           7.6357   -6.1597   17.5820 H         1 DFY1270     0.0000 
     42 H           7.7649   -4.8196   18.7342 H         1 DFY1270     0.0000 
     43 H           5.4536   -6.7123   16.6806 H         1 DFY1270     0.0000 
     44 H           4.3720   -6.5671   17.8619 H         1 DFY1270     0.0000 
     45 H           4.3066   -5.5890   16.5870 H         1 DFY1270     0.0000 
     46 H           7.6826   -2.7772   17.9771 H         1 DFY1270     0.0000 
@<TRIPOS>BOND
     1   13    1 ar   
     2   19    1 ar   
     3   27    1 1    
     4    3    2 1    
     5   15    2 1    
     6   21    2 2    
     7    4    3 ar   
     8    8    3 ar   
     9    5    4 ar   
    10   28    4 1    
    11    6    5 ar   
    12   29    5 1    
    13    7    6 ar   
    14   30    6 1    
    15    8    7 ar   
    16   31    7 1    
    17   32    8 1    
    18   10    9 ar   
    19   22    9 ar   
    20   33    9 1    
    21   11   10 ar   
    22   34   10 1    
    23   12   11 ar   
    24   35   11 1    
    25   20   12 ar   
    26   36   12 1    
    27   14   13 ar   
    28   15   14 1    
    29   16   14 ar   
    30   18   16 ar   
    31   21   16 1    
    32   18   17 1    
    33   24   17 1    
    34   26   17 1    
    35   37   17 1    
    36   19   18 ar   
    37   22   20 ar   
    38   38   20 1    
    39   22   21 1    
    40   24   23 1    
    41   25   23 1    
    42   39   23 1    
    43   40   23 1    
    44   41   24 1    
    45   42   24 1    
    46   46   25 1    
    47   43   26 1    
    48   44   26 1    
    49   45   26 1    
@<TRIPOS>SUBSTRUCTURE
     1 DFY1270     1 GROUP   
@<TRIPOS>SET

