#    Name: 4euc_0RQ_2_INTS_M
#    Modification time : Mon Mar 24 18:39:58 2014

@<TRIPOS>MOLECULE
4euc_0RQ_2_INTS_M
   91     0    12     0     0
SMALL
NO_CHARGES


@<TRIPOS>ATOM
      1 NZ          6.1910   19.7390   28.4475 N.4       3 LYC4        0.0000 
      2 NZ          5.4080   19.9040   26.9660 N.4      11 LYL4        0.0000 
      3 NZ          6.9740   19.5740   29.9290 N.4       7 LYP4        0.0000 
      4 N          11.1440   19.9095   21.0310 N.am      2 SEC2        0.0000 
      5 N          11.6560   19.3860   22.5570 N.am     10 SEL2        0.0000 
      6 N          10.6320   20.4330   19.5050 N.am      6 SEP2        0.0000 
      7 N          11.6810   17.6365   18.6495 N.am      2 SEC2        0.0000 
      8 N          11.2220   17.2780   19.9820 N.am     10 SEL2        0.0000 
      9 N          12.1400   17.9950   17.3170 N.am      6 SEP2        0.0000 
     10 N          14.0525   15.0115   21.1255 N.am      2 SEC2        0.0000 
     11 N          13.1980   15.7870   20.1520 N.am     10 SEL2        0.0000 
     12 N          14.9070   14.2360   22.0990 N.am      6 SEP2        0.0000 
     13 CA          7.4420   13.2680   23.3010 C.3       4 GLC5        0.0000 
     14 CA          9.0460   13.3840   22.4040 C.3      12 GLL5        0.0000 
     15 CA          5.8380   13.1520   24.1980 C.3       8 GLP5        0.0000 
     16 CA         12.5590   11.0395   23.1035 C.3       4 GLC5        0.0000 
     17 CA         10.8390   11.6820   22.6520 C.3      12 GLL5        0.0000 
     18 CA         14.2790   10.3970   23.5550 C.3       8 GLP5        0.0000 
     19 CA          7.4415   15.9000   26.4855 C.3       4 GLC5        0.0000 
     20 CA          9.1810   16.7630   26.7320 C.3      12 GLL5        0.0000 
     21 CA          5.7020   15.0370   26.2390 C.3       8 GLP5        0.0000 
     22 CA         10.4445    5.7175   13.8065 C.3       4 GLC5        0.0000 
     23 CA         11.4280    7.4860   13.6600 C.3      12 GLL5        0.0000 
     24 CA          9.4610    3.9490   13.9530 C.3       8 GLP5        0.0000 
     25 CA         11.8155    5.9530   15.1045 C.3       4 GLC5        0.0000 
     26 CA         12.2030    4.4200   16.5490 C.3       8 GLP5        0.0000 
     27 CA         11.8815    6.6760   16.4405 C.3       4 GLC5        0.0000 
     28 CA         11.6140    8.0890   15.0510 C.3      12 GLL5        0.0000 
     29 CA         12.1490    5.2630   17.8300 C.3       8 GLP5        0.0000 
     30 CA         10.0350    7.8520   21.0460 C.3       4 GLC5        0.0000 
     31 CA          9.2100    9.0330   19.4180 C.3      12 GLL5        0.0000 
     32 CA         10.8600    6.6710   22.6740 C.3       8 GLP5        0.0000 
     33 CA          7.8905    7.1220   17.0000 C.3       4 GLC5        0.0000 
     34 CA          9.0490    8.7340   17.9440 C.3      12 GLL5        0.0000 
     35 CA          6.7320    5.5100   16.0560 C.3       8 GLP5        0.0000 
     36 CA          7.1205   16.2140   25.4325 C.3       4 GLC5        0.0000 
     37 CA          8.5390   17.3910   24.6260 C.3      12 GLL5        0.0000 
     38 O          11.4590   12.7355   18.2160 O.2       1 ALC1        0.0000 
     39 O          11.5210   12.3180   19.8340 O.2       9 ALL1        0.0000 
     40 O          11.3970   13.1530   16.5980 O.2       5 ALP1        0.0000 
     41 N           7.0945   12.4535   20.2745 N.am      2 SEC2        0.0000 
     42 N           8.1340   11.5060   20.2340 N.am     10 SEL2        0.0000 
     43 N           6.0550   13.4010   20.3150 N.am      6 SEP2        0.0000 
     44 N           8.1505   19.2505   28.7980 N.am      2 SEC2        0.0000 
     45 N           9.3270   18.9270   27.6670 N.am     10 SEL2        0.0000 
     46 N           6.9740   19.5740   29.9290 N.am      6 SEP2        0.0000 
     47 CA         10.3315   13.1435   29.7470 C.3       4 GLC5        0.0000 
     48 CA          9.6080   15.0060   30.7460 C.3      12 GLL5        0.0000 
     49 CA         11.0550   11.2810   28.7480 C.3       8 GLP5        0.0000 
     50 CA          8.3480   13.9445   31.3900 C.3       4 GLC5        0.0000 
     51 CA          7.0880   12.8830   32.0340 C.3       8 GLP5        0.0000 
     52 CA         11.4010   16.3120   30.5355 C.3       4 GLC5        0.0000 
     53 CA         13.1940   17.6180   30.3250 C.3       8 GLP5        0.0000 
     54 CA         10.0925   15.5805   32.4375 C.3       4 GLC5        0.0000 
     55 CA         10.5770   16.1550   34.1290 C.3       8 GLP5        0.0000 
     56 CA         12.5505   14.8040   31.8210 C.3       4 GLC5        0.0000 
     57 CA         11.7240   14.3590   30.0400 C.3      12 GLL5        0.0000 
     58 CA         13.3770   15.2490   33.6020 C.3       8 GLP5        0.0000 
     59 CA          9.9950   13.9040   27.3460 C.3       4 GLC5        0.0000 
     60 CA         10.2530   15.5660   28.5770 C.3      12 GLL5        0.0000 
     61 CA          9.7370   12.2420   26.1150 C.3       8 GLP5        0.0000 
     62 O          13.5820   13.0075   29.2540 O.2       1 ALC1        0.0000 
     63 O          12.9730   13.7070   30.3160 O.2       9 ALL1        0.0000 
     64 O          14.1910   12.3080   28.1920 O.2       5 ALP1        0.0000 
     65 O          13.2595   12.9405   31.6065 O.2       1 ALC1        0.0000 
     66 O          13.5460   12.1740   32.8970 O.2       5 ALP1        0.0000 
     67 CA         10.2305    7.6245   10.9370 C.3       4 GLC5        0.0000 
     68 CA         10.4930    8.2610   12.7320 C.3      12 GLL5        0.0000 
     69 CA          9.9680    6.9880    9.1420 C.3       8 GLP5        0.0000 
     70 N           8.6930    6.0485   14.3375 N.am      2 SEC2        0.0000 
     71 N           8.8530    7.2730   14.0460 N.am     10 SEL2        0.0000 
     72 N           8.5330    4.8240   14.6290 N.am      6 SEP2        0.0000 
     73 CA          6.8675   10.3765   11.7690 C.3       4 GLC5        0.0000 
     74 CA          8.0350    9.1160   12.8260 C.3      12 GLL5        0.0000 
     75 CA          5.7000   11.6370   10.7120 C.3       8 GLP5        0.0000 
     76 CA          6.9815    7.4055   12.7090 C.3       4 GLC5        0.0000 
     77 CA          5.9280    5.6950   12.5920 C.3       8 GLP5        0.0000 
     78 CA          8.0695   10.6695   13.1350 C.3       4 GLC5        0.0000 
     79 CA          8.1040   12.2230   13.4440 C.3       8 GLP5        0.0000 
     80 CA          8.3195   10.0010   11.1545 C.3       4 GLC5        0.0000 
     81 CA          8.6040   10.8860    9.4830 C.3       8 GLP5        0.0000 
     82 CA         10.0071   12.3304   24.2549 C.3       4 GLC5        0.0000 
     83 CA          7.1768    8.7408   18.1010 C.3       4 GLC5        0.0000 
     84 CA          5.2240    8.5980   17.5210 C.3       8 GLP5        0.0000 
     85 CA          8.9172   10.1997   17.2285 C.3       4 GLC5        0.0000 
     86 CA          8.7050   11.5160   15.7760 C.3       8 GLP5        0.0000 
     87 CA         11.3277   12.9655   29.0835 C.3       4 GLC5        0.0000 
     88 CA         11.4770   14.9410   28.7980 C.3      12 GLL5        0.0000 
     89 CA         12.0604   16.3630   29.6615 C.3       4 GLC5        0.0000 
     90 CA         12.1035    9.3601   13.6019 C.3       4 GLC5        0.0000 
     91 CA         13.2000   10.6960   13.6600 C.3       8 GLP5        0.0000 
@<TRIPOS>BOND
@<TRIPOS>SUBSTRUCTURE
     1 ALC1       38 GROUP        1 X    ALC  0     ROOT ALC X 1
     2 SEC2        4 GROUP        1 X    SEC  0     **** SEC X 2
     3 LYC4        1 GROUP        1 X    LYC  0     **** LYC X 4
     4 GLC5       13 GROUP        1 X    GLC  0     **** GLC X 6
     5 ALP1       40 GROUP        1 Y    ALP  0     ROOT ALP Y 8
     6 SEP2        6 GROUP        1 Y    SEP  0     **** SEP Y 9
     7 LYP4        3 GROUP        1 Y    LYP  0     **** LYP Y 11
     8 GLP5       15 GROUP        1 Y    GLP  0     **** GLP Y 13
     9 ALL1       39 GROUP        1 Z    ALL  0     ROOT ALL Z 15
    10 SEL2        5 GROUP        1 Z    SEL  0     **** SEL Z 16
    11 LYL4        2 GROUP        1 Z    LYL  0     **** LYL Z 18
    12 GLL5       14 GROUP        1 Z    GLL  0     **** GLL Z 20
@<TRIPOS>SET

