#    Name: 4euc_0RQ_2_ligand
#    Modification time : Mon Mar 24 18:39:59 2014

@<TRIPOS>MOLECULE
4euc_0RQ_2_ligand
   87    89     1     0     0
SMALL
NO_CHARGES


@<TRIPOS>ATOM
      1 O3B         7.4160   18.7370   26.1060 O.3       1 0RQ601      0.0000 
      2 O7A         5.9450   20.1670   24.5630 O.co2     1 0RQ601      0.0000 
      3 O8A         5.4080   19.9040   26.9660 O.co2     1 0RQ601      0.0000 
      4 O9A         7.3910   21.3140   26.1930 O.co2     1 0RQ601      0.0000 
      5 O4B         8.8190   16.2830   25.4660 O.3       1 0RQ601      0.0000 
      6 O5B        10.8800   17.4950   24.0120 O.3       1 0RQ601      0.0000 
      7 O1A        13.3080   18.2520   24.0850 O.co2     1 0RQ601      0.0000 
      8 O2A        11.6560   19.3860   22.5570 O.co2     1 0RQ601      0.0000 
      9 O3A        12.6920   17.0840   22.0950 O.3       1 0RQ601      0.0000 
     10 O4A        11.2220   17.2780   19.9820 O.co2     1 0RQ601      0.0000 
     11 O5A        13.1980   15.7870   20.1520 O.co2     1 0RQ601      0.0000 
     12 O6A        11.0090   15.2190   21.3510 O.3       1 0RQ601      0.0000 
     13 CDP         9.0460   13.3840   22.4040 C.3       1 0RQ601      0.0000 
     14 CEP        10.8390   11.6820   22.6520 C.3       1 0RQ601      0.0000 
     15 CCP        11.4280   14.0750   22.0010 C.3       1 0RQ601      0.0000 
     16 CAP        10.2560   12.6270   20.3710 C.3       1 0RQ601      0.0000 
     17 CBP        10.3850   12.9270   21.8710 C.3       1 0RQ601      0.0000 
     18 C1B         9.1810   16.7630   26.7320 C.3       1 0RQ601      0.0000 
     19 C2B         9.5680   18.1910   26.5130 C.3       1 0RQ601      0.0000 
     20 C3B         8.6740   18.5740   25.4830 C.3       1 0RQ601      0.0000 
     21 C5B         9.5330   17.4940   23.5520 C.3       1 0RQ601      0.0000 
     22 P3B         6.5290   20.0740   25.9530 P.3       1 0RQ601      0.0000 
     23 P1A        12.0960   18.0830   23.1880 P.3       1 0RQ601      0.0000 
     24 P2A        12.0170   16.3380   20.8670 P.3       1 0RQ601      0.0000 
     25 C2P        11.4280    7.4860   13.6600 C.3       1 0RQ601      0.0000 
     26 C3P        11.6140    8.0890   15.0510 C.3       1 0RQ601      0.0000 
     27 C7P         9.2100    9.0330   19.4180 C.3       1 0RQ601      0.0000 
     28 C6P         9.0490    8.7340   17.9440 C.3       1 0RQ601      0.0000 
     29 C5P        10.4020    8.5920   17.2680 C.2       1 0RQ601      0.0000 
     30 C9P         9.3640   11.4360   20.0910 C.2       1 0RQ601      0.0000 
     31 C4B         8.5390   17.3910   24.6260 C.3       1 0RQ601      0.0000 
     32 OAP        11.5210   12.3180   19.8340 O.3       1 0RQ601      0.0000 
     33 O9P         8.1340   11.5060   20.2340 O.2       1 0RQ601      0.0000 
     34 O5P        11.4380    8.7400   17.9060 O.2       1 0RQ601      0.0000 
     35 N8P        10.0120   10.2070   19.6880 N.am      1 0RQ601      0.0000 
     36 N4P        10.3900    8.2760   15.8600 N.am      1 0RQ601      0.0000 
     37 O2B         9.3270   18.9270   27.6670 O.3       1 0RQ601      0.0000 
     38 C2A         9.6080   15.0060   30.7460 C.ar      1 0RQ601      0.0000 
     39 C6A        11.7240   14.3590   30.0400 C.ar      1 0RQ601      0.0000 
     40 C5M        11.4770   14.9410   28.7980 C.ar      1 0RQ601      0.0000 
     41 C4A        10.2530   15.5660   28.5770 C.ar      1 0RQ601      0.0000 
     42 C8A        11.4470   15.7630   26.7750 C.2       1 0RQ601      0.0000 
     43 N6A        12.9730   13.7070   30.3160 N.pl3     1 0RQ601      0.0000 
     44 N1A        10.7810   14.4020   30.9980 N.ar      1 0RQ601      0.0000 
     45 N3A         9.3440   15.5830   29.5630 N.ar      1 0RQ601      0.0000 
     46 N9A        10.2680   16.0560   27.3280 N.pl3     1 0RQ601      0.0000 
     47 N7A        12.1980   15.0810   27.6660 N.2       1 0RQ601      0.0000 
     48 C1P        10.4930    8.2610   12.7320 C.3       1 0RQ601      0.0000 
     49 C           9.0920    8.1460   13.2540 C.2       1 0RQ601      0.0000 
     50 O           8.8530    7.2730   14.0460 O.2       1 0RQ601      0.0000 
     51 CH3         8.0350    9.1160   12.8260 C.3       1 0RQ601      0.0000 
     52 H          11.5860   14.2249   23.0871 H         1 0RQ601      0.0000 
     53 H          12.3797   13.6720   21.6024 H         1 0RQ601      0.0000 
     54 H           9.8307   13.4915   19.8840 H         1 0RQ601      0.0000 
     55 H           8.3165   16.7754   27.3955 H         1 0RQ601      0.0000 
     56 H          10.5675   18.2163   26.1780 H         1 0RQ601      0.0000 
     57 H           8.9839   19.3941   24.9524 H         1 0RQ601      0.0000 
     58 H           9.3682   16.6534   22.8300 H         1 0RQ601      0.0000 
     59 H           9.3233   18.4202   22.9579 H         1 0RQ601      0.0000 
     60 H          11.0452    6.4515   13.7680 H         1 0RQ601      0.0000 
     61 H          12.4200    7.3985   13.1736 H         1 0RQ601      0.0000 
     62 H          12.1403    9.0698   14.9312 H         1 0RQ601      0.0000 
     63 H          12.3400    7.4448   15.6089 H         1 0RQ601      0.0000 
     64 H           9.6532    8.1366   19.9039 H         1 0RQ601      0.0000 
     65 H           8.1954    9.1429   19.8590 H         1 0RQ601      0.0000 
     66 H           8.4922    9.5431   17.4671 H         1 0RQ601      0.0000 
     67 H           8.4863    7.8066   17.8200 H         1 0RQ601      0.0000 
     68 H           7.5567   17.3500   24.2307 H         1 0RQ601      0.0000 
     69 H          11.0131   10.1685   19.5960 H         1 0RQ601      0.0000 
     70 H           9.4837    8.1716   15.3772 H         1 0RQ601      0.0000 
     71 H           8.8696   15.0275   31.5034 H         1 0RQ601      0.0000 
     72 H          11.7289   15.9993   25.8738 H         1 0RQ601      0.0000 
     73 H          13.6576   13.7414   29.5879 H         1 0RQ601      0.0000 
     74 H          13.0539   13.2729   31.2132 H         1 0RQ601      0.0000 
     75 H          10.5560    7.8397   11.7361 H         1 0RQ601      0.0000 
     76 H          10.7992    9.2998   12.7104 H         1 0RQ601      0.0000 
     77 H           9.0932   13.6186   23.3749 H         1 0RQ601      0.0000 
     78 H           8.7116   14.1942   21.9226 H         1 0RQ601      0.0000 
     79 H           8.3465   12.6760   22.3072 H         1 0RQ601      0.0000 
     80 H          11.7225   11.3427   22.3290 H         1 0RQ601      0.0000 
     81 H          10.9373   11.8718   23.6289 H         1 0RQ601      0.0000 
     82 H          10.1861   10.9297   22.5638 H         1 0RQ601      0.0000 
     83 H           8.2711   10.0557   13.0735 H         1 0RQ601      0.0000 
     84 H           7.8952    9.1000   11.8360 H         1 0RQ601      0.0000 
     85 H           7.1521    8.9142   13.2500 H         1 0RQ601      0.0000 
     86 H          11.4536   12.5493   18.8635 H         1 0RQ601      0.0000 
     87 H           9.9080   19.7366   27.5835 H         1 0RQ601      0.0000 
@<TRIPOS>BOND
     1   20    1 1    
     2   22    1 1    
     3   22    2 ar   
     4   22    3 ar   
     5   22    4 ar   
     6   18    5 1    
     7   31    5 1    
     8   21    6 1    
     9   23    6 1    
    10   23    7 ar   
    11   23    8 ar   
    12   23    9 1    
    13   24    9 1    
    14   24   10 ar   
    15   24   11 ar   
    16   15   12 1    
    17   24   12 1    
    18   17   13 1    
    19   77   13 1    
    20   78   13 1    
    21   79   13 1    
    22   17   14 1    
    23   80   14 1    
    24   81   14 1    
    25   82   14 1    
    26   17   15 1    
    27   52   15 1    
    28   53   15 1    
    29   17   16 1    
    30   30   16 1    
    31   32   16 1    
    32   54   16 1    
    33   19   18 1    
    34   46   18 1    
    35   55   18 1    
    36   20   19 1    
    37   37   19 1    
    38   56   19 1    
    39   31   20 1    
    40   57   20 1    
    41   31   21 1    
    42   58   21 1    
    43   59   21 1    
    44   26   25 1    
    45   48   25 1    
    46   60   25 1    
    47   61   25 1    
    48   36   26 1    
    49   62   26 1    
    50   63   26 1    
    51   28   27 1    
    52   35   27 1    
    53   64   27 1    
    54   65   27 1    
    55   29   28 1    
    56   66   28 1    
    57   67   28 1    
    58   34   29 2    
    59   36   29 am   
    60   33   30 2    
    61   35   30 am   
    62   68   31 1    
    63   86   32 1    
    64   69   35 1    
    65   70   36 1    
    66   87   37 1    
    67   44   38 ar   
    68   45   38 ar   
    69   71   38 1    
    70   40   39 ar   
    71   43   39 1    
    72   44   39 ar   
    73   41   40 ar   
    74   47   40 1    
    75   45   41 ar   
    76   46   41 1    
    77   46   42 1    
    78   47   42 2    
    79   72   42 1    
    80   73   43 1    
    81   74   43 1    
    82   49   48 1    
    83   75   48 1    
    84   76   48 1    
    85   50   49 2    
    86   51   49 1    
    87   83   51 1    
    88   84   51 1    
    89   85   51 1    
@<TRIPOS>SUBSTRUCTURE
     1 0RQ601      1 GROUP   
@<TRIPOS>SET

