#    Name: 3ik3_0LI_2_INTS_M
#    Modification time : Tue Mar 25 16:39:53 2014

@<TRIPOS>MOLECULE
3ik3_0LI_2_INTS_M
  118     0     9     0     0
SMALL
NO_CHARGES


@<TRIPOS>ATOM
      1 CA          4.7095   33.1745   18.1240 C.3       3 GLC5        0.0000 
      2 CA          2.7010   34.1180   17.9070 C.3       9 GLL5        0.0000 
      3 CA          6.7180   32.2310   18.3410 C.3       6 GLP5        0.0000 
      4 CA          1.2480   32.7270   16.9945 C.3       3 GLC5        0.0000 
      5 CA          3.3930   33.3260   16.9110 C.3       9 GLL5        0.0000 
      6 CA         -0.8970   32.1280   17.0780 C.3       6 GLP5        0.0000 
      7 CA          4.5480   32.0595   17.5600 C.3       3 GLC5        0.0000 
      8 CA          5.7030   30.7930   18.2090 C.3       6 GLP5        0.0000 
      9 CA          5.9765   36.0040   15.2955 C.3       3 GLC5        0.0000 
     10 CA          3.9000   35.4100   15.6750 C.3       9 GLL5        0.0000 
     11 CA          8.0530   36.5980   14.9160 C.3       6 GLP5        0.0000 
     12 CA          5.7435   30.9120   16.2150 C.3       3 GLC5        0.0000 
     13 CA          5.7840   31.0310   14.2210 C.3       9 GLL5        0.0000 
     14 CA          6.0005   29.3000   10.3915 C.3       3 GLC5        0.0000 
     15 CA          7.0530   27.4310   10.5130 C.3       9 GLL5        0.0000 
     16 CA          4.9480   31.1690   10.2700 C.3       6 GLP5        0.0000 
     17 CA          8.8915   25.8840   13.3405 C.3       3 GLC5        0.0000 
     18 CA          8.7320   25.8720   11.3710 C.3       9 GLL5        0.0000 
     19 CA          9.0510   25.8960   15.3100 C.3       6 GLP5        0.0000 
     20 CA         10.3870   24.9240   11.9390 C.3       3 GLC5        0.0000 
     21 CA         12.0420   23.9760   12.5070 C.3       6 GLP5        0.0000 
     22 CA          2.5945   41.3925   17.4350 C.3       3 GLC5        0.0000 
     23 CA          3.1730   42.3780   15.5890 C.3       9 GLL5        0.0000 
     24 CA          2.0160   40.4070   19.2810 C.3       6 GLP5        0.0000 
     25 CA          5.0995   43.1585   15.3330 C.3       3 GLC5        0.0000 
     26 CA          7.0260   43.9390   15.0770 C.3       6 GLP5        0.0000 
     27 CA          4.8915   42.3380   18.2135 C.3       3 GLC5        0.0000 
     28 CA          4.3450   41.0160   16.8230 C.3       9 GLL5        0.0000 
     29 CA          5.4380   43.6600   19.6040 C.3       6 GLP5        0.0000 
     30 CA          6.1470   41.8820   16.1135 C.3       3 GLC5        0.0000 
     31 CA          7.9490   42.7480   15.4040 C.3       6 GLP5        0.0000 
     32 CA          5.3570   33.1070   17.0630 C.3       3 GLC5        0.0000 
     33 CA          3.9960   33.9830   15.7850 C.3       9 GLL5        0.0000 
     34 CA          0.4360   37.5060   18.0165 C.3       3 GLC5        0.0000 
     35 CA          1.8790   36.3380   18.8690 C.3       9 GLL5        0.0000 
     36 CA         -1.0070   38.6740   17.1640 C.3       6 GLP5        0.0000 
     37 CA          1.9475   38.3725   19.0750 C.3       3 GLC5        0.0000 
     38 CA          0.7755   36.9130   20.4150 C.3       3 GLC5        0.0000 
     39 CA         -0.3280   37.4880   21.9610 C.3       6 GLP5        0.0000 
     40 N           5.3455   33.6545   12.4820 N.am      2 SEC2        0.0000 
     41 N           5.2880   33.8860   13.8340 N.am      8 SEL2        0.0000 
     42 N           5.4030   33.4230   11.1300 N.am      5 SEP2        0.0000 
     43 O           3.6915   31.1205   15.3695 O.2       1 ALC1        0.0000 
     44 O           4.8280   31.8960   14.8450 O.2       7 ALL1        0.0000 
     45 O           2.5550   30.3450   15.8940 O.2       4 ALP1        0.0000 
     46 CA          4.3405   28.9300   15.5360 C.3       3 GLC5        0.0000 
     47 CA          5.5610   29.6430   14.2900 C.3       9 GLL5        0.0000 
     48 CA          3.1200   28.2170   16.7820 C.3       6 GLP5        0.0000 
     49 CA          7.0565   33.3095   12.4160 C.3       3 GLC5        0.0000 
     50 CA          6.9560   31.5150   13.5230 C.3       9 GLL5        0.0000 
     51 CA          7.1570   35.1040   11.3090 C.3       6 GLP5        0.0000 
     52 CA         10.8865   30.2310   10.0485 C.3       3 GLC5        0.0000 
     53 CA          9.0390   31.0090   10.8870 C.3       9 GLL5        0.0000 
     54 CA         12.7340   29.4530    9.2100 C.3       6 GLP5        0.0000 
     55 CA          9.7070   32.5915    9.7860 C.3       3 GLC5        0.0000 
     56 CA         10.3750   34.1740    8.6850 C.3       6 GLP5        0.0000 
     57 CA          6.9935   31.0890   10.5785 C.3       3 GLC5        0.0000 
     58 CA          9.7700   33.3450   10.5080 C.3       3 GLC5        0.0000 
     59 CA          9.1650   32.5160   12.3310 C.3       9 GLL5        0.0000 
     60 CA         10.8305   29.5190   13.7755 C.3       3 GLC5        0.0000 
     61 CA         10.2290   30.6850   12.6790 C.3       9 GLL5        0.0000 
     62 CA         11.4320   28.3530   14.8720 C.3       6 GLP5        0.0000 
     63 CA         12.0160   29.6695   12.0130 C.3       3 GLC5        0.0000 
     64 CA         13.8030   28.6540   11.3470 C.3       6 GLP5        0.0000 
     65 CA          5.9990   23.5105    7.3795 C.3       3 GLC5        0.0000 
     66 CA          6.2420   23.9530    9.1820 C.3       9 GLL5        0.0000 
     67 CA          5.7560   23.0680    5.5770 C.3       6 GLP5        0.0000 
     68 O           8.1535   25.0640    8.7615 O.2       1 ALC1        0.0000 
     69 O           7.0760   25.0740    9.6240 O.2       7 ALL1        0.0000 
     70 O           9.2310   25.0540    7.8990 O.2       4 ALP1        0.0000 
     71 CA          1.1090   38.4595   16.7763 C.3       3 GLC5        0.0000 
     72 CA          3.1950   37.6460   16.4530 C.3       9 GLL5        0.0000 
     73 CA          2.6205   39.3260   17.8347 C.3       3 GLC5        0.0000 
     74 CA          3.2550   38.8440   16.3240 C.3       9 GLL5        0.0000 
     75 CA          4.5250   39.0435   14.9667 C.3       3 GLC5        0.0000 
     76 CA          5.8250   39.8420   13.5450 C.3       6 GLP5        0.0000 
     77 CA          2.3020   37.8170   14.7882 C.3       3 GLC5        0.0000 
     78 CA          1.3790   37.3890   13.1880 C.3       6 GLP5        0.0000 
     79 CA          4.0743   36.9682   18.7763 C.3       3 GLC5        0.0000 
     80 CA          2.6120   35.5410   17.7820 C.3       9 GLL5        0.0000 
     81 CA          5.9030   37.9970   19.2270 C.3       6 GLP5        0.0000 
     82 CA          3.2715   32.9685   19.1470 C.3       3 GLC5        0.0000 
     83 CA          3.4960   32.2150   20.8850 C.3       6 GLP5        0.0000 
     84 CA          4.9545   37.0284   16.9296 C.3       3 GLC5        0.0000 
     85 CA          6.3540   37.8930   17.7470 C.3       6 GLP5        0.0000 
     86 CA          7.4665   32.7485   14.6335 C.3       3 GLC5        0.0000 
     87 CA          8.5630   34.2240   15.3950 C.3       6 GLP5        0.0000 
     88 CA          5.3102   30.7530   12.2628 C.3       3 GLC5        0.0000 
     89 CA          6.5028   29.3463   15.9845 C.3       3 GLC5        0.0000 
     90 CA          6.4820   28.7300   13.6720 C.3       9 GLL5        0.0000 
     91 CA          6.9840   29.5060   17.9880 C.3       6 GLP5        0.0000 
     92 CA          6.0045   30.0643   11.7975 C.3       3 GLC5        0.0000 
     93 CA          6.1855   31.1180   11.7400 C.3       3 GLC5        0.0000 
     94 CA          8.4322   27.2154   14.0720 C.3       3 GLC5        0.0000 
     95 CA          9.7675   28.5012   13.7662 C.3       3 GLC5        0.0000 
     96 CA          8.5660   28.1100   12.3430 C.3       9 GLL5        0.0000 
     97 CA          7.8978   27.2115    8.5470 C.3       3 GLC5        0.0000 
     98 CA          9.1560   27.5780    6.8800 C.3       6 GLP5        0.0000 
     99 CA          2.7815   44.4620   12.8957 C.3       3 GLC5        0.0000 
    100 CA          1.4540   43.0780   14.0140 C.3       9 GLL5        0.0000 
    101 CA          3.5750   45.6770   11.3630 C.3       6 GLP5        0.0000 
    102 CA          1.0002   42.7127   15.9709 C.3       3 GLC5        0.0000 
    103 CA         -0.5800   42.6130   16.9330 C.3       6 GLP5        0.0000 
    104 CA          3.5968   42.1247   13.5474 C.3       3 GLC5        0.0000 
    105 CA          4.6130   41.4370   12.0860 C.3       6 GLP5        0.0000 
    106 CA          2.9455   40.5190   17.8942 C.3       3 GLC5        0.0000 
    107 CA          3.4050   40.2460   16.1920 C.3       9 GLL5        0.0000 
    108 CA          4.8500   40.2365   15.0263 C.3       3 GLC5        0.0000 
    109 CA          4.9595   38.8152   17.0814 C.3       3 GLC5        0.0000 
    110 CA          0.6649   34.7069   18.6339 C.3       3 GLC5        0.0000 
    111 CA         -0.9380   33.8300   18.9110 C.3       6 GLP5        0.0000 
    112 CA          9.0000   31.0813    9.6535 C.3       3 GLC5        0.0000 
    113 CA          9.1010   31.2200   12.1810 C.3       9 GLL5        0.0000 
    114 CA          8.9300   31.0480    7.7730 C.3       6 GLP5        0.0000 
    115 CA          8.1450   33.4860   11.7825 C.3       3 GLC5        0.0000 
    116 CA          8.6966   32.9709   13.9150 C.3       3 GLC5        0.0000 
    117 CA         11.2821   32.1781   11.9069 C.3       3 GLC5        0.0000 
    118 CA         12.8910   33.1060   11.5080 C.3       6 GLP5        0.0000 
@<TRIPOS>BOND
@<TRIPOS>SUBSTRUCTURE
     1 ALC1       43 GROUP        1 X    ALC  0     ROOT ALC X 1
     2 SEC2       40 GROUP        1 X    SEC  0     **** SEC X 2
     3 GLC5        1 GROUP        1 X    GLC  0     **** GLC X 6
     4 ALP1       45 GROUP        1 Y    ALP  0     ROOT ALP Y 8
     5 SEP2       42 GROUP        1 Y    SEP  0     **** SEP Y 9
     6 GLP5        3 GROUP        1 Y    GLP  0     **** GLP Y 13
     7 ALL1       44 GROUP        1 Z    ALL  0     ROOT ALL Z 15
     8 SEL2       41 GROUP        1 Z    SEL  0     **** SEL Z 16
     9 GLL5        2 GROUP        1 Z    GLL  0     **** GLL Z 20
@<TRIPOS>SET

