#    Name: 3ik3_0LI_2_ligand
#    Modification time : Tue Mar 25 16:39:53 2014

@<TRIPOS>MOLECULE
3ik3_0LI_2_ligand
   68    72     1     0     0
SMALL
NO_CHARGES


@<TRIPOS>ATOM
      1 N1          4.2030   42.3560   16.4500 N.pl3     1 0LI2        0.0000 
      2 N3          7.8320   27.0100   11.7140 N.3       1 0LI2        0.0000 
      3 C4          3.1950   37.6460   16.4530 C.1       1 0LI2        0.0000 
      4 C5          3.2250   36.1890   16.6460 C.ar      1 0LI2        0.0000 
      5 C6          2.6120   35.5410   17.7820 C.ar      1 0LI2        0.0000 
      6 C7          2.7010   34.1180   17.9070 C.ar      1 0LI2        0.0000 
      7 C8          3.3930   33.3260   16.9110 C.ar      1 0LI2        0.0000 
      8 C10         3.9000   35.4100   15.6750 C.ar      1 0LI2        0.0000 
      9 C13         5.7840   31.0310   14.2210 C.ar      1 0LI2        0.0000 
     10 C15         6.4820   28.7300   13.6720 C.ar      1 0LI2        0.0000 
     11 C17         7.8900   30.6190   12.8970 C.ar      1 0LI2        0.0000 
     12 C20         8.5660   28.1100   12.3430 C.3       1 0LI2        0.0000 
     13 C21         7.0530   27.4310   10.5130 C.3       1 0LI2        0.0000 
     14 C22         6.2260   26.2590    9.9150 C.3       1 0LI2        0.0000 
     15 C24         8.7320   25.8720   11.3710 C.3       1 0LI2        0.0000 
     16 C81         2.5220   43.4160   14.8430 C.2       1 0LI2        0.0000 
     17 C82         1.4540   43.0780   14.0140 C.2       1 0LI2        0.0000 
     18 C83         1.0430   41.7160   13.9270 C.2       1 0LI2        0.0000 
     19 N81         1.5970   40.6780   14.5940 N.2       1 0LI2        0.0000 
     20 N82         2.6390   41.0600   15.3970 N.pl3     1 0LI2        0.0000 
     21 C84         3.1730   42.3780   15.5890 C.2       1 0LI2        0.0000 
     22 C1          4.3450   41.0160   16.8230 C.2       1 0LI2        0.0000 
     23 C2          3.4050   40.2460   16.1920 C.2       1 0LI2        0.0000 
     24 C3          3.2550   38.8440   16.3240 C.1       1 0LI2        0.0000 
     25 C9          3.9960   33.9830   15.7850 C.ar      1 0LI2        0.0000 
     26 C11         1.8790   36.3380   18.8690 C.3       1 0LI2        0.0000 
     27 C12         4.7440   33.2450   14.7220 C.2       1 0LI2        0.0000 
     28 O1          5.2880   33.8860   13.8340 O.2       1 0LI2        0.0000 
     29 N2          4.8280   31.8960   14.8450 N.am      1 0LI2        0.0000 
     30 C14         5.5610   29.6430   14.2900 C.ar      1 0LI2        0.0000 
     31 C16         7.6400   29.1890   12.9780 C.ar      1 0LI2        0.0000 
     32 C18         6.9560   31.5150   13.5230 C.ar      1 0LI2        0.0000 
     33 C19         9.1010   31.2200   12.1810 C.3       1 0LI2        0.0000 
     34 F1          9.0390   31.0090   10.8870 F         1 0LI2        0.0000 
     35 F2          9.1650   32.5160   12.3310 F         1 0LI2        0.0000 
     36 F3         10.2290   30.6850   12.6790 F         1 0LI2        0.0000 
     37 C23         7.9100   24.6800   10.8100 C.3       1 0LI2        0.0000 
     38 C25         6.2420   23.9530    9.1820 C.3       1 0LI2        0.0000 
     39 N4          7.0760   25.0740    9.6240 N.4       1 0LI2        0.0000 
     40 H           4.7339   43.0662   16.7566 H         1 0LI2        0.0000 
     41 H           2.2746   33.6491   18.7040 H         1 0LI2        0.0000 
     42 H           3.4477   32.3266   17.0117 H         1 0LI2        0.0000 
     43 H           4.3362   35.8729   14.8654 H         1 0LI2        0.0000 
     44 H           6.2977   27.7216   13.7341 H         1 0LI2        0.0000 
     45 H           9.2124   28.6235   11.6094 H         1 0LI2        0.0000 
     46 H           9.2291   27.7355   13.1428 H         1 0LI2        0.0000 
     47 H           7.7256   27.8020    9.7324 H         1 0LI2        0.0000 
     48 H           6.3579   28.2367   10.7719 H         1 0LI2        0.0000 
     49 H           5.7440   26.6200    9.0004 H         1 0LI2        0.0000 
     50 H           5.4403   26.0013   10.6329 H         1 0LI2        0.0000 
     51 H           9.2675   25.5277   12.2543 H         1 0LI2        0.0000 
     52 H           9.4551   26.1705   10.6137 H         1 0LI2        0.0000 
     53 H           2.8464   44.3707   14.9300 H         1 0LI2        0.0000 
     54 H           0.9640   43.7848   13.4713 H         1 0LI2        0.0000 
     55 H           0.2208   41.5269   13.2680 H         1 0LI2        0.0000 
     56 H           5.0150   40.6958   17.4385 H         1 0LI2        0.0000 
     57 H           4.1106   31.3951   15.4739 H         1 0LI2        0.0000 
     58 H           4.7462   29.2712   14.7777 H         1 0LI2        0.0000 
     59 H           7.1210   32.5249   13.4760 H         1 0LI2        0.0000 
     60 H           7.2686   24.3012   11.6123 H         1 0LI2        0.0000 
     61 H           8.6095   23.8853   10.5312 H         1 0LI2        0.0000 
     62 H           7.7628   25.3401    8.8049 H         1 0LI2        0.0000 
     63 H           2.4834   36.9959   19.3184 H         1 0LI2        0.0000 
     64 H           1.1092   36.8552   18.4949 H         1 0LI2        0.0000 
     65 H           1.5121   35.7417   19.5830 H         1 0LI2        0.0000 
     66 H           6.7887   23.1403    8.9803 H         1 0LI2        0.0000 
     67 H           5.5730   23.6910    9.8775 H         1 0LI2        0.0000 
     68 H           5.7302   24.1754    8.3522 H         1 0LI2        0.0000 
@<TRIPOS>BOND
     1   21    1 2    
     2   22    1 1    
     3   40    1 1    
     4   12    2 1    
     5   13    2 1    
     6   15    2 1    
     7    4    3 1    
     8   24    3 3    
     9    5    4 ar   
    10    8    4 ar   
    11    6    5 ar   
    12   26    5 1    
    13    7    6 ar   
    14   41    6 1    
    15   25    7 ar   
    16   42    7 1    
    17   25    8 ar   
    18   43    8 1    
    19   29    9 1    
    20   30    9 ar   
    21   32    9 ar   
    22   30   10 ar   
    23   31   10 ar   
    24   44   10 1    
    25   31   11 ar   
    26   32   11 ar   
    27   33   11 1    
    28   31   12 1    
    29   45   12 1    
    30   46   12 1    
    31   14   13 1    
    32   47   13 1    
    33   48   13 1    
    34   39   14 1    
    35   49   14 1    
    36   50   14 1    
    37   37   15 1    
    38   51   15 1    
    39   52   15 1    
    40   17   16 2    
    41   21   16 1    
    42   53   16 1    
    43   18   17 1    
    44   54   17 1    
    45   19   18 2    
    46   55   18 1    
    47   20   19 1    
    48   21   20 1    
    49   23   20 1    
    50   23   22 2    
    51   56   22 1    
    52   24   23 1    
    53   27   25 1    
    54   63   26 1    
    55   64   26 1    
    56   65   26 1    
    57   28   27 2    
    58   29   27 am   
    59   57   29 1    
    60   58   30 1    
    61   59   32 1    
    62   34   33 1    
    63   35   33 1    
    64   36   33 1    
    65   39   37 1    
    66   60   37 1    
    67   61   37 1    
    68   39   38 1    
    69   66   38 1    
    70   67   38 1    
    71   68   38 1    
    72   62   39 1    
@<TRIPOS>SUBSTRUCTURE
     1 0LI2        1 GROUP   
@<TRIPOS>SET

