#    Name: 3e64_5B3_1_INTS_M
#    Modification time : Tue Mar 25 00:57:40 2014

@<TRIPOS>MOLECULE
3e64_5B3_1_INTS_M
   49     0     9     0     0
SMALL
NO_CHARGES


@<TRIPOS>ATOM
      1 CA         34.6825   34.2990   42.8185 C.3       3 GLC5        0.0000 
      2 CA         33.7460   33.6920   41.3140 C.3       9 GLL5        0.0000 
      3 CA         35.6190   34.9060   44.3230 C.3       6 GLP5        0.0000 
      4 CA         34.6555   35.1660   40.6715 C.3       3 GLC5        0.0000 
      5 CA         35.5650   36.6400   40.0290 C.3       6 GLP5        0.0000 
      6 CA         31.5535   31.1795   43.3890 C.3       3 GLC5        0.0000 
      7 CA         32.2480   31.6990   41.5400 C.3       9 GLL5        0.0000 
      8 CA         30.8590   30.6600   45.2380 C.3       6 GLP5        0.0000 
      9 CA         31.1460   37.1965   41.4065 C.3       3 GLC5        0.0000 
     10 CA         31.4670   36.8690   39.5250 C.3       9 GLL5        0.0000 
     11 CA         30.8250   37.5240   43.2880 C.3       6 GLP5        0.0000 
     12 CA         33.5160   36.7545   39.7770 C.3       3 GLC5        0.0000 
     13 CA         32.4685   39.5935   40.1000 C.3       3 GLC5        0.0000 
     14 CA         32.2440   37.8610   38.9180 C.3       9 GLL5        0.0000 
     15 CA         32.6930   41.3260   41.2820 C.3       6 GLP5        0.0000 
     16 CA         33.8115   37.9275   39.8355 C.3       3 GLC5        0.0000 
     17 CA         35.3790   37.9940   40.7530 C.3       6 GLP5        0.0000 
     18 CA         31.8080   39.9390   35.7440 C.3       3 GLC5        0.0000 
     19 CA         33.0980   39.9660   37.0080 C.3       9 GLL5        0.0000 
     20 CA         30.5180   39.9120   34.4800 C.3       6 GLP5        0.0000 
     21 O          32.0720   44.3090   35.7040 O.2       1 ALC1        0.0000 
     22 O          32.4560   43.0880   36.5580 O.2       7 ALL1        0.0000 
     23 O          31.6880   45.5300   34.8500 O.2       4 ALP1        0.0000 
     24 N          34.5110   44.1465   34.6625 N.am      2 SEC2        0.0000 
     25 N          34.5070   42.9430   35.3840 N.am      8 SEL2        0.0000 
     26 N          34.5150   45.3500   33.9410 N.am      5 SEP2        0.0000 
     27 O          36.4750   42.5450   34.5035 O.2       1 ALC1        0.0000 
     28 O          35.3360   41.9210   35.1090 O.2       7 ALL1        0.0000 
     29 O          37.6140   43.1690   33.8980 O.2       4 ALP1        0.0000 
     30 CA         36.0540   39.8055   33.5145 C.3       3 GLC5        0.0000 
     31 CA         35.5060   39.4370   35.5790 C.3       9 GLL5        0.0000 
     32 CA         36.6020   40.1740   31.4500 C.3       6 GLP5        0.0000 
     33 CA         34.1565   36.8257   38.6818 C.3       3 GLC5        0.0000 
     34 CA         32.8600   37.6250   37.6630 C.3       9 GLL5        0.0000 
     35 CA         32.7935   34.4953   35.9922 C.3       3 GLC5        0.0000 
     36 CA         32.6360   36.3980   37.0060 C.3       9 GLL5        0.0000 
     37 CA         33.3450   33.0870   34.6800 C.3       6 GLP5        0.0000 
     38 CA         34.6543   39.2275   38.4488 C.3       3 GLC5        0.0000 
     39 CA         33.6390   38.6620   36.9790 C.3       9 GLL5        0.0000 
     40 CA         35.9400   39.1410   39.9040 C.3       6 GLP5        0.0000 
     41 CA         33.8485   41.6093   38.3033 C.3       3 GLC5        0.0000 
     42 CA         34.2690   42.7280   39.9360 C.3       6 GLP5        0.0000 
     43 CA         35.5538   39.0318   37.9113 C.3       3 GLC5        0.0000 
     44 CA         36.3025   41.0751   36.6450 C.3       3 GLC5        0.0000 
     45 CA         37.6770   41.9980   37.5040 C.3       6 GLP5        0.0000 
     46 CA         36.9667   38.2542   36.1508 C.3       3 GLC5        0.0000 
     47 CA         38.7660   37.5860   36.3830 C.3       6 GLP5        0.0000 
     48 CA         33.6720   39.8999   34.6434 C.3       3 GLC5        0.0000 
     49 CA         32.7340   39.8730   33.2410 C.3       6 GLP5        0.0000 
@<TRIPOS>BOND
@<TRIPOS>SUBSTRUCTURE
     1 ALC1       21 GROUP        1 X    ALC  0     ROOT ALC X 1
     2 SEC2       24 GROUP        1 X    SEC  0     **** SEC X 2
     3 GLC5        1 GROUP        1 X    GLC  0     **** GLC X 6
     4 ALP1       23 GROUP        1 Y    ALP  0     ROOT ALP Y 8
     5 SEP2       26 GROUP        1 Y    SEP  0     **** SEP Y 9
     6 GLP5        3 GROUP        1 Y    GLP  0     **** GLP Y 13
     7 ALL1       22 GROUP        1 Z    ALL  0     ROOT ALL Z 15
     8 SEL2       25 GROUP        1 Z    SEL  0     **** SEL Z 16
     9 GLL5        2 GROUP        1 Z    GLL  0     **** GLL Z 20
@<TRIPOS>SET

