#    Name: 3e64_5B3_1_ligand
#    Modification time : Tue Mar 25 00:57:41 2014

@<TRIPOS>MOLECULE
3e64_5B3_1_ligand
   44    46     1     0     0
SMALL
NO_CHARGES


@<TRIPOS>ATOM
      1 O1         30.0080   33.3830   38.5690 O.2       1 5B31        0.0000 
      2 C7         32.6360   36.3980   37.0060 C.ar      1 5B31        0.0000 
      3 O2         29.1580   35.0050   40.2630 O.2       1 5B31        0.0000 
      4 C6         31.8480   35.4090   37.6030 C.ar      1 5B31        0.0000 
      5 C1         33.7460   33.6920   41.3140 C.3       1 5B31        0.0000 
      6 N1         31.3820   33.9130   40.7950 N.pl3     1 5B31        0.0000 
      7 C5         31.2700   35.6550   38.8510 C.ar      1 5B31        0.0000 
      8 C4         32.9110   32.5760   39.2990 C.3       1 5B31        0.0000 
      9 C3         32.2480   31.6990   41.5400 C.3       1 5B31        0.0000 
     10 C2         32.5370   32.9690   40.7350 C.3       1 5B31        0.0000 
     11 S1         30.2760   34.3750   39.5910 S.o2      1 5B31        0.0000 
     12 C10        31.4670   36.8690   39.5250 C.ar      1 5B31        0.0000 
     13 C9         32.2440   37.8610   38.9180 C.ar      1 5B31        0.0000 
     14 C8         32.8600   37.6250   37.6630 C.ar      1 5B31        0.0000 
     15 C11        33.6390   38.6620   36.9790 C.ar      1 5B31        0.0000 
     16 C17        33.0980   39.9660   37.0080 C.ar      1 5B31        0.0000 
     17 C16        33.7580   41.0150   36.3330 C.ar      1 5B31        0.0000 
     18 C15        33.5390   42.4050   36.1310 C.2       1 5B31        0.0000 
     19 N4         32.4560   43.0880   36.5580 N.pl3     1 5B31        0.0000 
     20 N3         34.5070   42.9430   35.3840 N.2       1 5B31        0.0000 
     21 N2         35.3360   41.9210   35.1090 N.pl3     1 5B31        0.0000 
     22 C14        34.9420   40.7200   35.6530 C.ar      1 5B31        0.0000 
     23 C13        35.5060   39.4370   35.5790 C.ar      1 5B31        0.0000 
     24 C12        34.8290   38.4080   36.2580 C.ar      1 5B31        0.0000 
     25 H          33.0562   36.2344   36.0837 H         1 5B31        0.0000 
     26 H          31.6968   34.5161   37.1311 H         1 5B31        0.0000 
     27 H          31.1618   34.4041   41.6945 H         1 5B31        0.0000 
     28 H          31.0509   37.0239   40.4403 H         1 5B31        0.0000 
     29 H          32.3743   38.7690   39.3775 H         1 5B31        0.0000 
     30 H          32.2324   40.1489   37.5156 H         1 5B31        0.0000 
     31 H          32.0398   42.7660   37.4084 H         1 5B31        0.0000 
     32 H          32.1661   43.8553   35.9860 H         1 5B31        0.0000 
     33 H          36.1657   42.0085   34.5617 H         1 5B31        0.0000 
     34 H          36.3485   39.2614   35.0685 H         1 5B31        0.0000 
     35 H          35.2049   37.4483   36.2317 H         1 5B31        0.0000 
     36 H          34.5629   33.1153   41.3053 H         1 5B31        0.0000 
     37 H          33.9660   34.5197   40.7978 H         1 5B31        0.0000 
     38 H          33.5935   33.9699   42.2624 H         1 5B31        0.0000 
     39 H          33.1271   33.3760   38.7393 H         1 5B31        0.0000 
     40 H          33.7109   31.9763   39.2744 H         1 5B31        0.0000 
     41 H          32.1664   32.0904   38.8410 H         1 5B31        0.0000 
     42 H          33.0209   31.0647   41.5233 H         1 5B31        0.0000 
     43 H          32.0572   31.9033   42.5001 H         1 5B31        0.0000 
     44 H          31.4556   31.2049   41.1824 H         1 5B31        0.0000 
@<TRIPOS>BOND
     1   11    1 2    
     2    4    2 ar   
     3   14    2 ar   
     4   25    2 1    
     5   11    3 2    
     6    7    4 ar   
     7   26    4 1    
     8   10    5 1    
     9   36    5 1    
    10   37    5 1    
    11   38    5 1    
    12   10    6 1    
    13   11    6 1    
    14   27    6 1    
    15   11    7 1    
    16   12    7 ar   
    17   10    8 1    
    18   39    8 1    
    19   40    8 1    
    20   41    8 1    
    21   10    9 1    
    22   42    9 1    
    23   43    9 1    
    24   44    9 1    
    25   13   12 ar   
    26   28   12 1    
    27   14   13 ar   
    28   29   13 1    
    29   15   14 1    
    30   16   15 ar   
    31   24   15 ar   
    32   17   16 ar   
    33   30   16 1    
    34   18   17 1    
    35   22   17 ar   
    36   19   18 1    
    37   20   18 2    
    38   31   19 1    
    39   32   19 1    
    40   21   20 1    
    41   22   21 1    
    42   33   21 1    
    43   23   22 ar   
    44   24   23 ar   
    45   34   23 1    
    46   35   24 1    
@<TRIPOS>SUBSTRUCTURE
     1 5B31        1 GROUP   
@<TRIPOS>SET

