#    Name: 2xnm_WGZ_1_INTS_M
#    Modification time : Tue Mar 25 06:24:22 2014

@<TRIPOS>MOLECULE
2xnm_WGZ_1_INTS_M
   67     0     9     0     0
SMALL
NO_CHARGES


@<TRIPOS>ATOM
      1 CA         25.5915   12.1045  -11.9495 C.3       3 GLC5        0.0000 
      2 CA         26.5450   11.5320  -13.4870 C.3       9 GLL5        0.0000 
      3 CA         24.6380   12.6770  -10.4120 C.3       6 GLP5        0.0000 
      4 CA         28.0435   11.7795  -12.5490 C.3       3 GLC5        0.0000 
      5 CA         29.5420   12.0270  -11.6110 C.3       6 GLP5        0.0000 
      6 CA         26.2890    8.7960  -14.2595 C.3       3 GLC5        0.0000 
      7 CA         26.0530   10.9310  -14.7630 C.3       9 GLL5        0.0000 
      8 CA         26.5250    6.6610  -13.7560 C.3       6 GLP5        0.0000 
      9 N          25.7985    8.9660  -14.6240 N.am      2 SEC2        0.0000 
     10 N          24.9040   10.1520  -14.5520 N.am      8 SEL2        0.0000 
     11 N          26.6930    7.7800  -14.6960 N.am      5 SEP2        0.0000 
     12 CA         27.2300    8.3295  -16.4625 C.3       3 GLC5        0.0000 
     13 CA         25.3800    8.8950  -16.9260 C.3       9 GLL5        0.0000 
     14 CA         29.0800    7.7640  -15.9990 C.3       6 GLP5        0.0000 
     15 N          24.9390    5.5100  -21.7105 N.am      2 SEC2        0.0000 
     16 N          25.4780    6.2810  -20.7620 N.am      8 SEL2        0.0000 
     17 N          24.4000    4.7390  -22.6590 N.am      5 SEP2        0.0000 
     18 CA         27.1250    5.8895  -20.1200 C.3       3 GLC5        0.0000 
     19 CA         25.9710    7.5700  -20.9760 C.3       9 GLL5        0.0000 
     20 CA         28.2790    4.2090  -19.2640 C.3       6 GLP5        0.0000 
     21 CA         24.2415    6.9240  -21.8830 C.3       3 GLC5        0.0000 
     22 CA         22.5120    6.2780  -22.7900 C.3       6 GLP5        0.0000 
     23 CA         28.5590    7.6930  -21.1755 C.3       3 GLC5        0.0000 
     24 CA         26.6840    8.2170  -22.1010 C.3       9 GLL5        0.0000 
     25 CA         30.4340    7.1690  -20.2500 C.3       6 GLP5        0.0000 
     26 CA         25.0910    6.8195  -22.8400 C.3       3 GLC5        0.0000 
     27 CA         23.4980    5.4220  -23.5790 C.3       6 GLP5        0.0000 
     28 CA         30.1435   11.9230  -20.8225 C.3       3 GLC5        0.0000 
     29 CA         29.8960   13.6740  -22.0380 C.3       9 GLL5        0.0000 
     30 CA         30.3910   10.1720  -19.6070 C.3       6 GLP5        0.0000 
     31 CA         26.3035   16.0035  -23.1025 C.3       3 GLC5        0.0000 
     32 CA         27.7350   14.7990  -22.1510 C.3       9 GLL5        0.0000 
     33 CA         24.8720   17.2080  -24.0540 C.3       6 GLP5        0.0000 
     34 CA         21.9130    5.8035  -16.8800 C.3       3 GLC5        0.0000 
     35 CA         23.1830    7.4880  -16.9390 C.3       9 GLL5        0.0000 
     36 CA         20.6430    4.1190  -16.8210 C.3       6 GLP5        0.0000 
     37 O          21.5460    9.3000  -12.2780 O.2       1 ALC1        0.0000 
     38 O          22.4150    9.1420  -13.3460 O.2       7 ALL1        0.0000 
     39 O          20.6770    9.4580  -11.2100 O.2       4 ALP1        0.0000 
     40 N          20.0070    7.8490  -13.8255 N.am      2 SEC2        0.0000 
     41 N          21.2660    7.5970  -14.6150 N.am      8 SEL2        0.0000 
     42 N          18.7480    8.1010  -13.0360 N.am      5 SEP2        0.0000 
     43 CA         29.1730   11.9875  -13.5130 C.3       3 GLC5        0.0000 
     44 CA         28.8040   11.9480  -15.4150 C.3       9 GLL5        0.0000 
     45 CA         28.7120    9.1590  -16.5200 C.3       3 GLC5        0.0000 
     46 CA         28.3440   10.5540  -17.0410 C.3       9 GLL5        0.0000 
     47 CA         25.5764   10.4014  -22.7711 C.3       3 GLC5        0.0000 
     48 CA         26.7790   10.3720  -20.8370 C.3       9 GLL5        0.0000 
     49 CA         24.3210   11.1530  -24.0970 C.3       6 GLP5        0.0000 
     50 CA         29.4205   11.2302  -20.7572 C.3       3 GLC5        0.0000 
     51 CA         27.6850   12.2950  -21.8080 C.3       9 GLL5        0.0000 
     52 CA         25.8238   12.0282  -23.0970 C.3       3 GLC5        0.0000 
     53 CA         28.4477   10.0185  -20.0881 C.3       3 GLC5        0.0000 
     54 CA         27.0850    9.6380  -22.0060 C.3       9 GLL5        0.0000 
     55 CA         23.5950    6.1952  -15.1493 C.3       3 GLC5        0.0000 
     56 CA         23.9890    4.4550  -14.0390 C.3       6 GLP5        0.0000 
     57 CA         25.3023    7.6924  -14.8306 C.3       3 GLC5        0.0000 
     58 CA         23.2190    8.3830  -15.5800 C.3       9 GLL5        0.0000 
     59 CA         23.6178   13.8792  -19.1190 C.3       3 GLC5        0.0000 
     60 CA         24.2840   13.5770  -17.0300 C.3       9 GLL5        0.0000 
     61 CA         22.4150   13.9750  -20.7690 C.3       6 GLP5        0.0000 
     62 CA         29.3428   10.2903  -15.4377 C.3       3 GLC5        0.0000 
     63 CA         30.1160    8.6920  -14.8370 C.3       6 GLP5        0.0000 
     64 CA         30.6151   12.3536  -16.5759 C.3       3 GLC5        0.0000 
     65 CA         28.3350   11.8290  -16.6620 C.3       9 GLL5        0.0000 
     66 CA         32.3790   12.5060  -16.3910 C.3       6 GLP5        0.0000 
     67 CA         29.4650   10.7674  -18.3319 C.3       3 GLC5        0.0000 
@<TRIPOS>BOND
@<TRIPOS>SUBSTRUCTURE
     1 ALC1       37 GROUP        1 X    ALC  0     ROOT ALC X 1
     2 SEC2        9 GROUP        1 X    SEC  0     **** SEC X 2
     3 GLC5        1 GROUP        1 X    GLC  0     **** GLC X 6
     4 ALP1       39 GROUP        1 Y    ALP  0     ROOT ALP Y 8
     5 SEP2       11 GROUP        1 Y    SEP  0     **** SEP Y 9
     6 GLP5        3 GROUP        1 Y    GLP  0     **** GLP Y 13
     7 ALL1       38 GROUP        1 Z    ALL  0     ROOT ALL Z 15
     8 SEL2       10 GROUP        1 Z    SEL  0     **** SEL Z 16
     9 GLL5        2 GROUP        1 Z    GLL  0     **** GLL Z 20
@<TRIPOS>SET

