#    Name: 2xnm_WGZ_1_ligand
#    Modification time : Tue Mar 25 06:24:22 2014

@<TRIPOS>MOLECULE
2xnm_WGZ_1_ligand
   66    70     1     0     0
SMALL
NO_CHARGES


@<TRIPOS>ATOM
      1 C01        26.5450   11.5320  -13.4870 C.3       1 WGZ1280     0.0000 
      2 C02        26.0530   10.9310  -14.7630 C.3       1 WGZ1280     0.0000 
      3 O03        24.9040   10.1520  -14.5520 O.3       1 WGZ1280     0.0000 
      4 C04        24.5000    9.2340  -15.5350 C.2       1 WGZ1280     0.0000 
      5 C05        25.3800    8.8950  -16.9260 C.2       1 WGZ1280     0.0000 
      6 C06        24.6110    7.8810  -17.7080 C.2       1 WGZ1280     0.0000 
      7 N07        25.0500    7.4600  -18.9100 N.pl3     1 WGZ1280     0.0000 
      8 C08        24.8800    6.2150  -19.4770 C.2       1 WGZ1280     0.0000 
      9 N09        25.4780    6.2810  -20.7620 N.2       1 WGZ1280     0.0000 
     10 C10        25.9710    7.5700  -20.9760 C.ar      1 WGZ1280     0.0000 
     11 C11        26.6840    8.2170  -22.1010 C.ar      1 WGZ1280     0.0000 
     12 C12        27.0850    9.6380  -22.0060 C.ar      1 WGZ1280     0.0000 
     13 C13        26.7790   10.3720  -20.8370 C.ar      1 WGZ1280     0.0000 
     14 O14        27.1390   11.7190  -20.6520 O.3       1 WGZ1280     0.0000 
     15 C15        27.6850   12.2950  -21.8080 C.3       1 WGZ1280     0.0000 
     16 C16        29.2150   12.2820  -22.0070 C.3       1 WGZ1280     0.0000 
     17 C17        29.8960   13.6740  -22.0380 C.3       1 WGZ1280     0.0000 
     18 N18        29.0940   14.7140  -22.7120 N.4       1 WGZ1280     0.0000 
     19 C19        29.7520   16.0070  -22.8220 C.3       1 WGZ1280     0.0000 
     20 C20        27.7350   14.7990  -22.1510 C.3       1 WGZ1280     0.0000 
     21 C21        26.9680   13.5120  -22.3860 C.3       1 WGZ1280     0.0000 
     22 C22        26.0770    9.7250  -19.7170 C.ar      1 WGZ1280     0.0000 
     23 C23        25.6840    8.3120  -19.8270 C.ar      1 WGZ1280     0.0000 
     24 S24        23.1830    7.4880  -16.9390 S.3       1 WGZ1280     0.0000 
     25 C25        23.2190    8.3830  -15.5800 C.2       1 WGZ1280     0.0000 
     26 C26        22.1830    8.3820  -14.5250 C.2       1 WGZ1280     0.0000 
     27 N27        22.4150    9.1420  -13.3460 N.am      1 WGZ1280     0.0000 
     28 O28        21.2660    7.5970  -14.6150 O.2       1 WGZ1280     0.0000 
     29 C29        25.8590   11.9660  -15.8650 C.ar      1 WGZ1280     0.0000 
     30 C30        24.5500   12.5590  -15.9980 C.ar      1 WGZ1280     0.0000 
     31 C31        24.2840   13.5770  -17.0300 C.ar      1 WGZ1280     0.0000 
     32 C32        25.3570   13.9900  -17.9080 C.ar      1 WGZ1280     0.0000 
     33 C33        26.6750   13.4060  -17.7770 C.ar      1 WGZ1280     0.0000 
     34 C34        26.9450   12.3850  -16.7550 C.ar      1 WGZ1280     0.0000 
     35 C35        28.3350   11.8290  -16.6620 C.3       1 WGZ1280     0.0000 
     36 F36        28.8040   11.9480  -15.4150 F         1 WGZ1280     0.0000 
     37 F37        29.1330   12.5140  -17.4830 F         1 WGZ1280     0.0000 
     38 F38        28.3440   10.5540  -17.0410 F         1 WGZ1280     0.0000 
     39 H          26.8824   10.2552  -15.1290 H         1 WGZ1280     0.0000 
     40 H          26.1396    9.2943  -17.0717 H         1 WGZ1280     0.0000 
     41 H          24.4614    5.4671  -19.1111 H         1 WGZ1280     0.0000 
     42 H          26.8944    7.6928  -22.9251 H         1 WGZ1280     0.0000 
     43 H          27.5711   10.0526  -22.7839 H         1 WGZ1280     0.0000 
     44 H          27.3729   11.4569  -22.6922 H         1 WGZ1280     0.0000 
     45 H          29.4457   11.7583  -22.9527 H         1 WGZ1280     0.0000 
     46 H          29.6734   11.6860  -21.1968 H         1 WGZ1280     0.0000 
     47 H          30.8748   13.5558  -22.5374 H         1 WGZ1280     0.0000 
     48 H          30.1081   13.9653  -20.9932 H         1 WGZ1280     0.0000 
     49 H          28.9492   14.3337  -23.7898 H         1 WGZ1280     0.0000 
     50 H          27.1818   15.6259  -22.6134 H         1 WGZ1280     0.0000 
     51 H          27.7785   14.9887  -21.0713 H         1 WGZ1280     0.0000 
     52 H          25.9751   13.5919  -21.9270 H         1 WGZ1280     0.0000 
     53 H          26.8277   13.3644  -23.4637 H         1 WGZ1280     0.0000 
     54 H          25.8693   10.2417  -18.8889 H         1 WGZ1280     0.0000 
     55 H          23.2924    9.6191  -13.2956 H         1 WGZ1280     0.0000 
     56 H          21.6812    9.1353  -12.6667 H         1 WGZ1280     0.0000 
     57 H          23.7972   12.2815  -15.3818 H         1 WGZ1280     0.0000 
     58 H          23.3688   13.9702  -17.1126 H         1 WGZ1280     0.0000 
     59 H          25.1857   14.6908  -18.6176 H         1 WGZ1280     0.0000 
     60 H          27.4239   13.6971  -18.3903 H         1 WGZ1280     0.0000 
     61 H          26.7810   10.8316  -12.8133 H         1 WGZ1280     0.0000 
     62 H          27.3633   12.0887  -13.6300 H         1 WGZ1280     0.0000 
     63 H          25.8577   12.1239  -13.0660 H         1 WGZ1280     0.0000 
     64 H          29.9779   16.3863  -21.9247 H         1 WGZ1280     0.0000 
     65 H          30.6064   15.9462  -23.3380 H         1 WGZ1280     0.0000 
     66 H          29.1756   16.6786  -23.2875 H         1 WGZ1280     0.0000 
@<TRIPOS>BOND
     1    2    1 1    
     2   61    1 1    
     3   62    1 1    
     4   63    1 1    
     5    3    2 1    
     6   29    2 1    
     7   39    2 1    
     8    4    3 1    
     9    5    4 1    
    10   25    4 2    
    11    6    5 2    
    12   40    5 1    
    13    7    6 1    
    14   24    6 1    
    15    8    7 1    
    16   23    7 1    
    17    9    8 2    
    18   41    8 1    
    19   10    9 1    
    20   11   10 ar   
    21   23   10 ar   
    22   12   11 ar   
    23   42   11 1    
    24   13   12 ar   
    25   43   12 1    
    26   14   13 1    
    27   22   13 ar   
    28   15   14 1    
    29   16   15 1    
    30   21   15 1    
    31   44   15 1    
    32   17   16 1    
    33   45   16 1    
    34   46   16 1    
    35   18   17 1    
    36   47   17 1    
    37   48   17 1    
    38   19   18 1    
    39   20   18 1    
    40   49   18 1    
    41   64   19 1    
    42   65   19 1    
    43   66   19 1    
    44   21   20 1    
    45   50   20 1    
    46   51   20 1    
    47   52   21 1    
    48   53   21 1    
    49   23   22 ar   
    50   54   22 1    
    51   25   24 1    
    52   26   25 1    
    53   27   26 am   
    54   28   26 2    
    55   55   27 1    
    56   56   27 1    
    57   30   29 ar   
    58   34   29 ar   
    59   31   30 ar   
    60   57   30 1    
    61   32   31 ar   
    62   58   31 1    
    63   33   32 ar   
    64   59   32 1    
    65   34   33 ar   
    66   60   33 1    
    67   35   34 1    
    68   36   35 1    
    69   37   35 1    
    70   38   35 1    
@<TRIPOS>SUBSTRUCTURE
     1 WGZ1280     1 GROUP   
@<TRIPOS>SET

