#    Name: 4lcg_1WM_1_INTS_M
#    Modification time : Mon Apr  7 23:57:48 2014

@<TRIPOS>MOLECULE
4lcg_1WM_1_INTS_M
   64     0    12     0     0
SMALL
NO_CHARGES


@<TRIPOS>ATOM
      1 Zn        -21.2490   -8.9720    7.5190 Zn        3 ZIC7        0.0000 
      2 Zn        -22.0760   -8.2940    7.1970 Zn       11 ZIL7        0.0000 
      3 Zn        -20.4220   -9.6500    7.8410 Zn        7 ZIP7        0.0000 
      4 O         -22.3020   -7.4025    6.4295 O.2       1 ALC1        0.0000 
      5 O         -22.0760   -8.2940    7.1970 O.2       9 ALL1        0.0000 
      6 O         -22.5280   -6.5110    5.6620 O.2       5 ALP1        0.0000 
      7 Zn        -21.2845  -10.1960    8.0305 Zn        3 ZIC7        0.0000 
      8 Zn        -22.1470  -10.7420    8.2200 Zn       11 ZIL7        0.0000 
      9 N         -22.1970  -11.9085    7.7195 N.am      2 SEC2        0.0000 
     10 N         -22.1470  -10.7420    8.2200 N.am     10 SEL2        0.0000 
     11 N         -22.2470  -13.0750    7.2190 N.am      6 SEP2        0.0000 
     12 CA        -24.3110  -16.5160    4.9805 C.3       4 GLC5        0.0000 
     13 CA        -25.5950  -15.0190    5.5610 C.3      12 GLL5        0.0000 
     14 CA        -23.0270  -18.0130    4.4000 C.3       8 GLP5        0.0000 
     15 CA        -28.1090  -16.4505    5.4005 C.3       4 GLC5        0.0000 
     16 CA        -26.7060  -15.0190    4.6790 C.3      12 GLL5        0.0000 
     17 CA        -29.5120  -17.8820    6.1220 C.3       8 GLP5        0.0000 
     18 CA        -25.0490  -18.3155    3.4985 C.3       4 GLC5        0.0000 
     19 CA        -27.0710  -18.6180    2.5970 C.3      12 GLL5        0.0000 
     20 CA        -26.0770  -21.9230    3.8495 C.3       4 GLC5        0.0000 
     21 CA        -26.3810  -21.9870    1.9370 C.3      12 GLL5        0.0000 
     22 CA        -25.7730  -21.8590    5.7620 C.3       8 GLP5        0.0000 
     23 CA        -30.1350  -20.4735    0.4395 C.3       4 GLC5        0.0000 
     24 CA        -28.1320  -21.2540    0.3760 C.3      12 GLL5        0.0000 
     25 CA        -32.1380  -19.6930    0.5030 C.3       8 GLP5        0.0000 
     26 N         -23.6555   -9.7430   12.4835 N.am      2 SEC2        0.0000 
     27 N         -23.4100  -10.0110   11.0290 N.am     10 SEL2        0.0000 
     28 N         -23.9010   -9.4750   13.9380 N.am      6 SEP2        0.0000 
     29 O         -22.1715   -9.4370   10.5275 O.2       1 ALC1        0.0000 
     30 O         -23.4100  -10.0110   11.0290 O.2       9 ALL1        0.0000 
     31 O         -20.9330   -8.8630   10.0260 O.2       5 ALP1        0.0000 
     32 CA        -25.2400  -12.8480    4.3527 C.3       4 GLC5        0.0000 
     33 CA        -26.1730  -12.7860    6.2710 C.3      12 GLL5        0.0000 
     34 CA        -24.7320  -12.3600    2.3910 C.3       8 GLP5        0.0000 
     35 CA        -28.0508  -11.4168    6.8425 C.3       4 GLC5        0.0000 
     36 CA        -29.3620  -10.0500    7.8530 C.3       8 GLP5        0.0000 
     37 CA        -23.4545  -14.4663    5.6857 C.3       4 GLC5        0.0000 
     38 CA        -25.3230  -13.8860    6.3580 C.3      12 GLL5        0.0000 
     39 CA        -21.4500  -14.4800    5.4120 C.3       8 GLP5        0.0000 
     40 CA        -25.4413  -13.6895    3.7555 C.3       4 GLC5        0.0000 
     41 CA        -26.0202  -15.5585    2.2425 C.3       4 GLC5        0.0000 
     42 CA        -26.8620  -16.2800    3.9250 C.3      12 GLL5        0.0000 
     43 CA        -25.1270  -14.3100    0.8710 C.3       8 GLP5        0.0000 
     44 CA        -27.6058  -17.7960    4.9210 C.3       4 GLC5        0.0000 
     45 CA        -28.2980  -18.7850    6.2280 C.3       8 GLP5        0.0000 
     46 CA        -24.9703  -17.4100    4.0070 C.3       4 GLC5        0.0000 
     47 CA        -26.9650  -17.3340    3.3030 C.3      12 GLL5        0.0000 
     48 CA        -26.4735  -17.7080    1.1300 C.3       4 GLC5        0.0000 
     49 CA        -25.9290  -17.4400   -0.6900 C.3       8 GLP5        0.0000 
     50 CA        -28.7572  -18.9588    3.1405 C.3       4 GLC5        0.0000 
     51 CA        -30.4040  -18.7700    3.9550 C.3       8 GLP5        0.0000 
     52 CA        -26.5612  -18.8843    0.5248 C.3       4 GLC5        0.0000 
     53 CA        -27.1500  -19.6770    2.0550 C.3      12 GLL5        0.0000 
     54 CA        -25.3870  -21.7638    0.4105 C.3       4 GLC5        0.0000 
     55 CA        -24.3820  -20.8950   -0.8380 C.3       8 GLP5        0.0000 
     56 CA        -24.3755  -22.9902    1.4460 C.3       4 GLC5        0.0000 
     57 CA        -22.3590  -23.3480    1.2330 C.3       8 GLP5        0.0000 
     58 CA        -26.0493  -21.9710   -0.3787 C.3       4 GLC5        0.0000 
     59 CA        -27.2840  -23.5540    0.3330 C.3      12 GLL5        0.0000 
     60 CA        -26.0224  -20.8431    0.1099 C.3       4 GLC5        0.0000 
     61 CA        -26.0855  -12.8550    3.6923 C.3       4 GLC5        0.0000 
     62 CA        -27.5720  -13.9190    4.5940 C.3      12 GLL5        0.0000 
     63 CA        -29.4930  -13.2885    4.9407 C.3       4 GLC5        0.0000 
     64 CA        -31.5470  -13.2270    4.8880 C.3       8 GLP5        0.0000 
@<TRIPOS>BOND
@<TRIPOS>SUBSTRUCTURE
     1 ALC1        4 GROUP        1 X    ALC  0     ROOT ALC X 1
     2 SEC2        9 GROUP        1 X    SEC  0     **** SEC X 2
     3 ZIC7        1 GROUP        1 X    ZIC  0     **** ZIC X 5
     4 GLC5       12 GROUP        1 X    GLC  0     **** GLC X 6
     5 ALP1        6 GROUP        1 Y    ALP  0     ROOT ALP Y 8
     6 SEP2       11 GROUP        1 Y    SEP  0     **** SEP Y 9
     7 ZIP7        3 GROUP        1 Y    ZIP  0     **** ZIP Y 12
     8 GLP5       14 GROUP        1 Y    GLP  0     **** GLP Y 13
     9 ALL1        5 GROUP        1 Z    ALL  0     ROOT ALL Z 15
    10 SEL2       10 GROUP        1 Z    SEL  0     **** SEL Z 16
    11 ZIL7        2 GROUP        1 Z    ZIL  0     **** ZIL Z 19
    12 GLL5       13 GROUP        1 Z    GLL  0     **** GLL Z 20
@<TRIPOS>SET

