#    Name: 4lcg_1WM_1_ligand
#    Modification time : Mon Apr  7 23:57:48 2014

@<TRIPOS>MOLECULE
4lcg_1WM_1_ligand
   55    57     1     0     0
SMALL
NO_CHARGES


@<TRIPOS>ATOM
      1 O01       -22.0760   -8.2940    7.1970 O.3       1 1WM303      0.0000 
      2 N02       -23.2180   -8.7910    7.7130 N.am      1 1WM303      0.0000 
      3 C03       -23.2060  -10.1190    8.2080 C.2       1 1WM303      0.0000 
      4 O04       -22.1470  -10.7420    8.2200 O.2       1 1WM303      0.0000 
      5 C05       -24.3960  -10.6420    8.9670 C.3       1 1WM303      0.0000 
      6 N06       -24.8710  -11.7770    8.1860 N.am      1 1WM303      0.0000 
      7 C07       -25.8520  -11.5870    7.1110 C.2       1 1WM303      0.0000 
      8 O08       -26.3250  -10.4770    6.8540 O.2       1 1WM303      0.0000 
      9 C09       -26.1730  -12.7860    6.2710 C.ar      1 1WM303      0.0000 
     10 C10       -25.3230  -13.8860    6.3580 C.ar      1 1WM303      0.0000 
     11 C11       -25.5950  -15.0190    5.5610 C.ar      1 1WM303      0.0000 
     12 C12       -26.7060  -15.0190    4.6790 C.ar      1 1WM303      0.0000 
     13 C13       -26.8620  -16.2800    3.9250 C.1       1 1WM303      0.0000 
     14 C14       -26.9650  -17.3340    3.3030 C.1       1 1WM303      0.0000 
     15 C15       -27.0710  -18.6180    2.5970 C.1       1 1WM303      0.0000 
     16 C16       -27.1500  -19.6770    2.0550 C.1       1 1WM303      0.0000 
     17 C17       -27.2370  -20.9800    1.4240 C.ar      1 1WM303      0.0000 
     18 C18       -26.3810  -21.9870    1.9370 C.ar      1 1WM303      0.0000 
     19 C19       -26.4030  -23.2780    1.3810 C.ar      1 1WM303      0.0000 
     20 C20       -27.2840  -23.5540    0.3330 C.ar      1 1WM303      0.0000 
     21 N21       -27.3120  -24.8890   -0.2380 N.pl3     1 1WM303      0.0000 
     22 C22       -28.1490  -22.5400   -0.1720 C.ar      1 1WM303      0.0000 
     23 C23       -28.1320  -21.2540    0.3760 C.ar      1 1WM303      0.0000 
     24 C24       -27.5720  -13.9190    4.5940 C.ar      1 1WM303      0.0000 
     25 C25       -27.3060  -12.7810    5.3930 C.ar      1 1WM303      0.0000 
     26 C26       -24.0100  -11.0410   10.3590 C.3       1 1WM303      0.0000 
     27 O27       -23.4100  -10.0110   11.0290 O.3       1 1WM303      0.0000 
     28 C29       -25.1880  -11.5590   11.0980 C.ar      1 1WM303      0.0000 
     29 C30       -25.2010  -12.9170   11.5320 C.ar      1 1WM303      0.0000 
     30 C31       -26.3050  -13.4250   12.2730 C.ar      1 1WM303      0.0000 
     31 C32       -27.3970  -12.5660   12.5850 C.ar      1 1WM303      0.0000 
     32 O33       -28.4830  -13.0530   13.3130 O.3       1 1WM303      0.0000 
     33 C34       -27.3850  -11.2010   12.1510 C.ar      1 1WM303      0.0000 
     34 C35       -26.2940  -10.6930   11.4200 C.ar      1 1WM303      0.0000 
     35 H         -24.0819   -8.2534    7.7604 H         1 1WM303      0.0000 
     36 H         -25.1433   -9.8736    8.9919 H         1 1WM303      0.0000 
     37 H         -24.5249  -12.7041    8.3827 H         1 1WM303      0.0000 
     38 H         -24.5205  -13.8815    6.9804 H         1 1WM303      0.0000 
     39 H         -24.9927  -15.8415    5.6173 H         1 1WM303      0.0000 
     40 H         -25.7506  -21.7694    2.7102 H         1 1WM303      0.0000 
     41 H         -25.7817  -24.0012    1.7413 H         1 1WM303      0.0000 
     42 H         -27.9539  -25.0320   -0.9913 H         1 1WM303      0.0000 
     43 H         -26.6870  -25.5550    0.1693 H         1 1WM303      0.0000 
     44 H         -28.7845  -22.7675   -0.9437 H         1 1WM303      0.0000 
     45 H         -28.7523  -20.5306    0.0262 H         1 1WM303      0.0000 
     46 H         -28.3736  -13.9326    3.9750 H         1 1WM303      0.0000 
     47 H         -27.9064  -11.9663    5.3503 H         1 1WM303      0.0000 
     48 H         -23.3014  -11.8984   10.2501 H         1 1WM303      0.0000 
     49 H         -24.4147  -13.5268   11.3098 H         1 1WM303      0.0000 
     50 H         -26.3141  -14.3925   12.5770 H         1 1WM303      0.0000 
     51 H         -28.1794  -10.5998   12.3790 H         1 1WM303      0.0000 
     52 H         -26.2727   -9.7260   11.1153 H         1 1WM303      0.0000 
     53 H         -22.3221   -7.9779    6.2808 H         1 1WM303      0.0000 
     54 H         -22.4333  -10.1139   10.8406 H         1 1WM303      0.0000 
     55 H         -28.9111  -13.7316   12.7162 H         1 1WM303      0.0000 
@<TRIPOS>BOND
     1    2    1 1    
     2   53    1 1    
     3    3    2 am   
     4   35    2 1    
     5    4    3 2    
     6    5    3 1    
     7    6    5 1    
     8   26    5 1    
     9   36    5 1    
    10    7    6 am   
    11   37    6 1    
    12    8    7 2    
    13    9    7 1    
    14   10    9 ar   
    15   25    9 ar   
    16   11   10 ar   
    17   38   10 1    
    18   12   11 ar   
    19   39   11 1    
    20   13   12 1    
    21   24   12 ar   
    22   14   13 3    
    23   15   14 1    
    24   16   15 3    
    25   17   16 1    
    26   18   17 ar   
    27   23   17 ar   
    28   19   18 ar   
    29   40   18 1    
    30   20   19 ar   
    31   41   19 1    
    32   21   20 1    
    33   22   20 ar   
    34   42   21 1    
    35   43   21 1    
    36   23   22 ar   
    37   44   22 1    
    38   45   23 1    
    39   25   24 ar   
    40   46   24 1    
    41   47   25 1    
    42   27   26 1    
    43   28   26 1    
    44   48   26 1    
    45   54   27 1    
    46   29   28 ar   
    47   34   28 ar   
    48   30   29 ar   
    49   49   29 1    
    50   31   30 ar   
    51   50   30 1    
    52   32   31 1    
    53   33   31 ar   
    54   55   32 1    
    55   34   33 ar   
    56   51   33 1    
    57   52   34 1    
@<TRIPOS>SUBSTRUCTURE
     1 1WM303      1 GROUP   
@<TRIPOS>SET

