#    Name: 4a95_9MT_1_INTS_M
#    Modification time : Tue Mar 25 05:16:15 2014

@<TRIPOS>MOLECULE
4a95_9MT_1_INTS_M
   68     0     6     0     0
SMALL
NO_CHARGES


@<TRIPOS>ATOM
      1 N          19.7815   44.5675   61.0235 N.am      1 SEC2        0.0000 
      2 N          20.2020   43.9940   62.3900 N.am      5 SEL2        0.0000 
      3 N          19.3610   45.1410   59.6570 N.am      3 SEP2        0.0000 
      4 CA         21.4330   42.7440   62.0365 C.3       2 GLC5        0.0000 
      5 CA         21.2520   44.4240   62.7060 C.3       6 GLL5        0.0000 
      6 CA         21.6140   41.0640   61.3670 C.3       4 GLP5        0.0000 
      7 CA         19.6710   44.6640   61.4240 C.3       2 GLC5        0.0000 
      8 CA         18.0900   44.9040   60.1420 C.3       4 GLP5        0.0000 
      9 CA         19.3710   43.5940   63.2960 C.3       2 GLC5        0.0000 
     10 CA         17.4900   42.7640   63.8860 C.3       4 GLP5        0.0000 
     11 CA         28.8265   47.3745   63.3050 C.3       2 GLC5        0.0000 
     12 CA         27.6070   47.0610   61.8120 C.3       6 GLL5        0.0000 
     13 CA         30.0460   47.6880   64.7980 C.3       4 GLP5        0.0000 
     14 CA         27.4600   48.8130   61.3175 C.3       2 GLC5        0.0000 
     15 CA         27.3130   50.5650   60.8230 C.3       4 GLP5        0.0000 
     16 CA         25.5105   51.3060   65.9255 C.3       2 GLC5        0.0000 
     17 CA         24.7430   49.6430   64.8330 C.3       6 GLL5        0.0000 
     18 CA         26.2780   52.9690   67.0180 C.3       4 GLP5        0.0000 
     19 CA         24.9965   49.8340   66.9815 C.3       2 GLC5        0.0000 
     20 CA         25.2500   50.0250   69.1300 C.3       4 GLP5        0.0000 
     21 CA         23.2265   50.6755   66.1010 C.3       2 GLC5        0.0000 
     22 CA         21.7100   51.7080   67.3690 C.3       4 GLP5        0.0000 
     23 N          22.2470   50.0270   65.7710 N.am      1 SEC2        0.0000 
     24 N          22.4390   49.6670   64.4570 N.am      5 SEL2        0.0000 
     25 N          22.0550   50.3870   67.0850 N.am      3 SEP2        0.0000 
     26 CA         22.3345   51.0565   63.8575 C.3       2 GLC5        0.0000 
     27 CA         21.3210   49.3590   63.7740 C.3       6 GLL5        0.0000 
     28 CA         23.3480   52.7540   63.9410 C.3       4 GLP5        0.0000 
     29 CA         20.8855   51.1450   63.1680 C.3       2 GLC5        0.0000 
     30 CA         20.0350   50.0070   64.2950 C.3       6 GLL5        0.0000 
     31 CA         21.7360   52.2830   62.0410 C.3       4 GLP5        0.0000 
     32 CA         18.4210   50.6990   64.5005 C.3       2 GLC5        0.0000 
     33 CA         16.8070   51.3910   64.7060 C.3       4 GLP5        0.0000 
     34 CA         20.3720   50.1820   61.6080 C.3       2 GLC5        0.0000 
     35 CA         20.2980   47.9820   61.7960 C.3       6 GLL5        0.0000 
     36 CA         20.4460   52.3820   61.4200 C.3       4 GLP5        0.0000 
     37 CA         18.0055   48.7230   59.5695 C.3       2 GLC5        0.0000 
     38 CA         17.8540   48.0460   61.2530 C.3       6 GLL5        0.0000 
     39 CA         18.1570   49.4000   57.8860 C.3       4 GLP5        0.0000 
     40 CA         18.2905   51.2575   61.7635 C.3       2 GLC5        0.0000 
     41 CA         17.1470   49.3710   61.4630 C.3       6 GLL5        0.0000 
     42 CA         19.4340   53.1440   62.0640 C.3       4 GLP5        0.0000 
     43 CA         15.5535   50.7315   61.5675 C.3       2 GLC5        0.0000 
     44 CA         13.9600   52.0920   61.6720 C.3       4 GLP5        0.0000 
     45 CA         16.9605   49.5900   59.6980 C.3       2 GLC5        0.0000 
     46 CA         16.7740   49.8090   57.9330 C.3       4 GLP5        0.0000 
     47 CA         16.9770   50.3810   63.0845 C.3       2 GLC5        0.0000 
     48 CA         21.2188   43.9663   64.4595 C.3       2 GLC5        0.0000 
     49 CA         20.5230   43.2750   66.0000 C.3       4 GLP5        0.0000 
     50 CA         24.0593   45.4725   64.1910 C.3       2 GLC5        0.0000 
     51 CA         22.5770   44.8910   63.1320 C.3       6 GLL5        0.0000 
     52 CA         25.1350   45.8750   65.8750 C.3       4 GLP5        0.0000 
     53 CA         22.9633   43.0455   62.1235 C.3       2 GLC5        0.0000 
     54 CA         22.9430   41.0210   61.7400 C.3       4 GLP5        0.0000 
     55 CA         28.0557   48.1785   64.3693 C.3       2 GLC5        0.0000 
     56 CA         26.1620   48.2420   63.3960 C.3       6 GLL5        0.0000 
     57 CA         27.5282   50.1495   63.9693 C.3       2 GLC5        0.0000 
     58 CA         28.9910   51.6300   63.9980 C.3       4 GLP5        0.0000 
     59 CA         26.6892   49.6170   62.3817 C.3       2 GLC5        0.0000 
     60 CA         25.9690   49.0960   64.4850 C.3       6 GLL5        0.0000 
     61 CA         23.7720   51.0830   64.2007 C.3       2 GLC5        0.0000 
     62 CA         24.9296   49.6670   62.0161 C.3       2 GLC5        0.0000 
     63 CA         23.6490   49.1810   64.0880 C.3       6 GLL5        0.0000 
     64 CA         25.8140   50.7170   60.5690 C.3       4 GLP5        0.0000 
     65 CA         21.1940   50.6955   65.7018 C.3       2 GLC5        0.0000 
     66 CA         18.4101   46.4378   60.8985 C.3       2 GLC5        0.0000 
     67 CA         15.7212   47.8543   61.8280 C.3       2 GLC5        0.0000 
     68 CA         13.9420   47.0000   62.2980 C.3       4 GLP5        0.0000 
@<TRIPOS>BOND
@<TRIPOS>SUBSTRUCTURE
     1 SEC2        1 GROUP        1 X    SEC  0     ROOT SEC X 2
     2 GLC5        4 GROUP        1 X    GLC  0     **** GLC X 6
     3 SEP2        3 GROUP        1 Y    SEP  0     ROOT SEP Y 9
     4 GLP5        6 GROUP        1 Y    GLP  0     **** GLP Y 13
     5 SEL2        2 GROUP        1 Z    SEL  0     ROOT SEL Z 16
     6 GLL5        5 GROUP        1 Z    GLL  0     **** GLL Z 20
@<TRIPOS>SET

