#    Name: 4a95_9MT_1_ligand
#    Modification time : Tue Mar 25 05:16:15 2014

@<TRIPOS>MOLECULE
4a95_9MT_1_ligand
   44    45     1     0     0
SMALL
NO_CHARGES


@<TRIPOS>ATOM
      1 N1         20.2020   43.9940   62.3900 N.1       1 9MT1000     0.0000 
      2 C17        21.2520   44.4240   62.7060 C.1       1 9MT1000     0.0000 
      3 C16        22.5770   44.8910   63.1320 C.3       1 9MT1000     0.0000 
      4 C15        23.3900   45.2490   61.8820 C.3       1 9MT1000     0.0000 
      5 S          22.7660   46.6960   61.0630 S.3       1 9MT1000     0.0000 
      6 C14        22.6820   47.9280   62.2940 C.ar      1 9MT1000     0.0000 
      7 C13        23.8070   48.3070   63.0210 C.ar      1 9MT1000     0.0000 
      8 C12        25.0760   47.7990   62.6560 C.ar      1 9MT1000     0.0000 
      9 C10        26.1620   48.2420   63.3960 C.ar      1 9MT1000     0.0000 
     10 O          27.4280   47.7520   63.0860 O.3       1 9MT1000     0.0000 
     11 C11        27.6070   47.0610   61.8120 C.3       1 9MT1000     0.0000 
     12 C9         25.9690   49.0960   64.4850 C.ar      1 9MT1000     0.0000 
     13 C8         24.7430   49.6430   64.8330 C.ar      1 9MT1000     0.0000 
     14 C7         23.6490   49.1810   64.0880 C.ar      1 9MT1000     0.0000 
     15 N          22.4390   49.6670   64.4570 N.ar      1 9MT1000     0.0000 
     16 C5         21.3210   49.3590   63.7740 C.ar      1 9MT1000     0.0000 
     17 C6         20.0350   50.0070   64.2950 C.3       1 9MT1000     0.0000 
     18 C4         21.4430   48.4510   62.6850 C.ar      1 9MT1000     0.0000 
     19 C3         20.2980   47.9820   61.7960 C.3       1 9MT1000     0.0000 
     20 C2         18.9150   47.8120   62.3180 C.3       1 9MT1000     0.0000 
     21 C1         17.8540   48.0460   61.2530 C.3       1 9MT1000     0.0000 
     22 C          17.1470   49.3710   61.4630 C.3       1 9MT1000     0.0000 
     23 H          23.1074   44.1154   63.6748 H         1 9MT1000     0.0000 
     24 H          22.4966   45.7770   63.7534 H         1 9MT1000     0.0000 
     25 H          23.3398   44.4936   61.1220 H         1 9MT1000     0.0000 
     26 H          24.4058   45.5106   62.1066 H         1 9MT1000     0.0000 
     27 H          25.1714   47.1510   61.8975 H         1 9MT1000     0.0000 
     28 H          26.8101   49.3369   65.0761 H         1 9MT1000     0.0000 
     29 H          24.6395   50.3152   65.5579 H         1 9MT1000     0.0000 
     30 H          20.6271   46.9997   61.3103 H         1 9MT1000     0.0000 
     31 H          20.2624   48.6826   60.8922 H         1 9MT1000     0.0000 
     32 H          18.7388   48.5136   63.1490 H         1 9MT1000     0.0000 
     33 H          18.7888   46.7946   62.7215 H         1 9MT1000     0.0000 
     34 H          17.1229   47.2350   61.2901 H         1 9MT1000     0.0000 
     35 H          18.3264   48.0391   60.2679 H         1 9MT1000     0.0000 
     36 H          28.5499   46.7527   61.6860 H         1 9MT1000     0.0000 
     37 H          27.0225   46.2526   61.7427 H         1 9MT1000     0.0000 
     38 H          27.3851   47.6506   61.0353 H         1 9MT1000     0.0000 
     39 H          19.8430   49.7435   65.2403 H         1 9MT1000     0.0000 
     40 H          20.0873   51.0054   64.2739 H         1 9MT1000     0.0000 
     41 H          19.2391   49.7436   63.7498 H         1 9MT1000     0.0000 
     42 H          17.7835   50.1414   61.4268 H         1 9MT1000     0.0000 
     43 H          16.4492   49.5343   60.7655 H         1 9MT1000     0.0000 
     44 H          16.6888   49.4108   62.3510 H         1 9MT1000     0.0000 
@<TRIPOS>BOND
     1    2    1 3    
     2    3    2 1    
     3    4    3 1    
     4   23    3 1    
     5   24    3 1    
     6    5    4 1    
     7   25    4 1    
     8   26    4 1    
     9    6    5 1    
    10    7    6 ar   
    11   18    6 ar   
    12    8    7 ar   
    13   14    7 ar   
    14    9    8 ar   
    15   27    8 1    
    16   10    9 1    
    17   12    9 ar   
    18   11   10 1    
    19   36   11 1    
    20   37   11 1    
    21   38   11 1    
    22   13   12 ar   
    23   28   12 1    
    24   14   13 ar   
    25   29   13 1    
    26   15   14 ar   
    27   16   15 ar   
    28   17   16 1    
    29   18   16 ar   
    30   39   17 1    
    31   40   17 1    
    32   41   17 1    
    33   19   18 1    
    34   20   19 1    
    35   30   19 1    
    36   31   19 1    
    37   21   20 1    
    38   32   20 1    
    39   33   20 1    
    40   22   21 1    
    41   34   21 1    
    42   35   21 1    
    43   42   22 1    
    44   43   22 1    
    45   44   22 1    
@<TRIPOS>SUBSTRUCTURE
     1 9MT1000     1 GROUP   
@<TRIPOS>SET

