#    Name: 1hvh_Q82_1_INTS_M
#    Modification time : Tue Mar 25 06:16:31 2014

@<TRIPOS>MOLECULE
1hvh_Q82_1_INTS_M
   80     0     9     0     0
SMALL
NO_CHARGES


@<TRIPOS>ATOM
      1 O         -11.3920   20.1030   29.1380 O.2       1 ALC1        0.0000 
      2 O         -11.2400   18.8550   29.0110 O.2       7 ALL1        0.0000 
      3 O         -11.5440   21.3510   29.2650 O.2       4 ALP1        0.0000 
      4 O         -10.3565   19.9045   29.4355 O.2       1 ALC1        0.0000 
      5 O          -9.4730   20.9540   29.8600 O.2       4 ALP1        0.0000 
      6 O          -9.4260   20.2555   28.4990 O.2       1 ALC1        0.0000 
      7 O          -9.3790   19.5570   27.1380 O.2       7 ALL1        0.0000 
      8 CA         -8.9680   12.6915   30.2690 C.3       3 GLC5        0.0000 
      9 CA         -9.4320   14.7210   30.3120 C.3       9 GLL5        0.0000 
     10 CA         -8.5040   10.6620   30.2260 C.3       6 GLP5        0.0000 
     11 CA         -9.2285   13.3230   25.7060 C.3       3 GLC5        0.0000 
     12 CA         -9.3460   15.2930   25.6750 C.3       9 GLL5        0.0000 
     13 CA         -9.1110   11.3530   25.7370 C.3       6 GLP5        0.0000 
     14 CA        -11.4935   15.1545   25.2445 C.3       3 GLC5        0.0000 
     15 CA        -13.6410   15.0160   24.8140 C.3       6 GLP5        0.0000 
     16 CA         -8.3785   18.9395   33.0440 C.3       3 GLC5        0.0000 
     17 CA         -8.9710   16.9290   33.3620 C.3       9 GLL5        0.0000 
     18 CA         -7.7860   20.9500   32.7260 C.3       6 GLP5        0.0000 
     19 CA        -11.8275   17.4255   33.2955 C.3       3 GLC5        0.0000 
     20 CA        -10.9210   15.4600   33.7280 C.3       9 GLL5        0.0000 
     21 CA        -12.7340   19.3910   32.8630 C.3       6 GLP5        0.0000 
     22 CA        -10.6020   15.3645   20.8920 C.3       3 GLC5        0.0000 
     23 CA         -9.2130   16.4150   22.0240 C.3       9 GLL5        0.0000 
     24 CA        -11.9910   14.3140   19.7600 C.3       6 GLP5        0.0000 
     25 CA        -11.6435   15.4820   24.0410 C.3       3 GLC5        0.0000 
     26 CA         -9.6460   15.9480   23.2680 C.3       9 GLL5        0.0000 
     27 CA         -8.1280   12.6560   26.4685 C.3       3 GLC5        0.0000 
     28 CA         -7.1450   13.9590   27.2000 C.3       9 GLL5        0.0000 
     29 CA         -5.5920   13.3905   26.3265 C.3       3 GLC5        0.0000 
     30 CA         -4.0390   12.8220   25.4530 C.3       6 GLP5        0.0000 
     31 CA         -5.6890   13.5020   28.6390 C.3       3 GLC5        0.0000 
     32 CA         -4.2330   13.0450   30.0780 C.3       6 GLP5        0.0000 
     33 N          -5.2740   12.9550   27.0285 N.am      2 SEC2        0.0000 
     34 N          -6.6260   13.4560   26.2810 N.am      8 SEL2        0.0000 
     35 N          -3.9220   12.4540   27.7760 N.am      5 SEP2        0.0000 
     36 CA         -8.8150   17.6425   18.9430 C.3       3 GLC5        0.0000 
     37 CA         -7.3980   17.2570   20.4840 C.3       9 GLL5        0.0000 
     38 CA        -10.2320   18.0280   17.4020 C.3       6 GLP5        0.0000 
     39 CA        -12.2595   17.8760   35.9330 C.3       3 GLC5        0.0000 
     40 CA        -10.2490   16.9680   35.6200 C.3       9 GLL5        0.0000 
     41 CA        -14.2700   18.7840   36.2460 C.3       6 GLP5        0.0000 
     42 CA        -10.3295   17.5005   37.1220 C.3       3 GLC5        0.0000 
     43 CA        -10.4100   18.0330   38.6240 C.3       6 GLP5        0.0000 
     44 N         -11.6930   17.5865   36.7815 N.am      2 SEC2        0.0000 
     45 N         -11.2680   16.2950   36.3510 N.am      8 SEL2        0.0000 
     46 N         -12.1180   18.8780   37.2120 N.am      5 SEP2        0.0000 
     47 O         -11.3975   16.1455   37.5925 O.2       1 ALC1        0.0000 
     48 O         -11.2680   16.2950   36.3510 O.2       7 ALL1        0.0000 
     49 O         -11.5270   15.9960   38.8340 O.2       4 ALP1        0.0000 
     50 CA        -10.0900   18.2568   32.8135 C.3       3 GLC5        0.0000 
     51 CA        -11.2820   19.8450   32.9060 C.3       6 GLP5        0.0000 
     52 CA         -7.5980   17.3032   34.0515 C.3       3 GLC5        0.0000 
     53 CA         -6.2980   17.9380   35.3820 C.3       6 GLP5        0.0000 
     54 CA        -10.7188   18.2720   33.9155 C.3       3 GLC5        0.0000 
     55 CA        -10.0620   16.4300   34.2300 C.3       9 GLL5        0.0000 
     56 CA         -8.2267   17.3185   35.1535 C.3       3 GLC5        0.0000 
     57 CA         -8.8784   14.7234   34.5445 C.3       3 GLC5        0.0000 
     58 CA         -7.5380   13.3770   35.3270 C.3       6 GLP5        0.0000 
     59 CA        -11.4795   12.0235   27.3345 C.3       3 GLC5        0.0000 
     60 CA        -12.0530   13.3850   28.3830 C.3       9 GLL5        0.0000 
     61 CA        -10.5880   11.2270   26.0360 C.3       6 GLP5        0.0000 
     62 CA        -14.2355   12.4490   28.3625 C.3       3 GLC5        0.0000 
     63 CA        -16.1000   12.0780   28.0920 C.3       6 GLP5        0.0000 
     64 CA        -12.8269   14.6805   26.6150 C.3       3 GLC5        0.0000 
     65 CA        -13.4043   10.6103   28.8505 C.3       3 GLC5        0.0000 
     66 CA        -12.6890   12.2550   28.8830 C.3       9 GLL5        0.0000 
     67 CA        -13.6310    8.8770   28.3360 C.3       6 GLP5        0.0000 
     68 CA        -14.8234   13.0211   28.9967 C.3       3 GLC5        0.0000 
     69 CA        -13.6660   12.4320   29.8470 C.3       9 GLL5        0.0000 
     70 CA         -4.6425   19.4385   27.4060 C.3       3 GLC5        0.0000 
     71 CA         -6.1910   18.1030   26.8580 C.3       9 GLL5        0.0000 
     72 CA         -2.9980   20.2830   28.4360 C.3       6 GLP5        0.0000 
     73 CA         -3.9417   19.5633   26.6435 C.3       3 GLC5        0.0000 
     74 CA         -5.4500   19.2490   24.8740 C.3       9 GLL5        0.0000 
     75 CA         -2.7022   16.8745   26.9990 C.3       3 GLC5        0.0000 
     76 CA         -4.1240   17.4530   25.7890 C.3       9 GLL5        0.0000 
     77 CA         -0.8130   16.3780   27.7000 C.3       6 GLP5        0.0000 
     78 CA         -3.7948   18.8270   27.3670 C.3       3 GLC5        0.0000 
     79 CA        -10.5273   17.8758   22.8135 C.3       3 GLC5        0.0000 
     80 CA        -11.6250   19.5700   22.9810 C.3       6 GLP5        0.0000 
@<TRIPOS>BOND
@<TRIPOS>SUBSTRUCTURE
     1 ALC1        1 GROUP        1 X    ALC  0     ROOT ALC X 1
     2 SEC2       33 GROUP        1 X    SEC  0     **** SEC X 2
     3 GLC5        8 GROUP        1 X    GLC  0     **** GLC X 6
     4 ALP1        3 GROUP        1 Y    ALP  0     ROOT ALP Y 8
     5 SEP2       35 GROUP        1 Y    SEP  0     **** SEP Y 9
     6 GLP5       10 GROUP        1 Y    GLP  0     **** GLP Y 13
     7 ALL1        2 GROUP        1 Z    ALL  0     ROOT ALL Z 15
     8 SEL2       34 GROUP        1 Z    SEL  0     **** SEL Z 16
     9 GLL5        9 GROUP        1 Z    GLL  0     **** GLL Z 20
@<TRIPOS>SET

