#    Name: 1hvh_Q82_1_ligand
#    Modification time : Tue Mar 25 06:16:31 2014

@<TRIPOS>MOLECULE
1hvh_Q82_1_ligand
   82    86     1     0     0
SMALL
NO_CHARGES


@<TRIPOS>ATOM
      1 N11        -7.7330   14.4990   28.2180 N.2       1 Q82265      0.0000 
      2 O4        -11.2400   18.8550   29.0110 O.3       1 Q82265      0.0000 
      3 O5         -9.3790   19.5570   27.1380 O.3       1 Q82265      0.0000 
      4 N7         -8.8930   15.9700   26.9000 N.pl3     1 Q82265      0.0000 
      5 N2         -9.5020   15.5750   29.1170 N.pl3     1 Q82265      0.0000 
      6 C1         -8.6900   15.3420   28.0700 C.2       1 Q82265      0.0000 
      7 C2         -9.4320   14.7210   30.3120 C.3       1 Q82265      0.0000 
      8 C3        -10.5910   16.5490   29.0450 C.3       1 Q82265      0.0000 
      9 C4        -10.1740   17.9870   28.7120 C.3       1 Q82265      0.0000 
     10 C5         -9.7940   18.2200   27.2600 C.3       1 Q82265      0.0000 
     11 C6         -8.6070   17.3900   26.8210 C.3       1 Q82265      0.0000 
     12 C7         -9.3460   15.2930   25.6750 C.3       1 Q82265      0.0000 
     13 C20        -9.7070   15.4360   31.6190 C.ar      1 Q82265      0.0000 
     14 C21        -8.8250   16.4080   32.0800 C.ar      1 Q82265      0.0000 
     15 C22        -8.9710   16.9290   33.3620 C.ar      1 Q82265      0.0000 
     16 C23       -10.0620   16.4300   34.2300 C.ar      1 Q82265      0.0000 
     17 C24       -10.9210   15.4600   33.7280 C.ar      1 Q82265      0.0000 
     18 C25       -10.7260   14.9660   32.4490 C.ar      1 Q82265      0.0000 
     19 C31       -11.6470   15.9100   28.1290 C.3       1 Q82265      0.0000 
     20 C32       -12.2980   14.7000   28.7690 C.ar      1 Q82265      0.0000 
     21 C33       -12.0530   13.3850   28.3830 C.ar      1 Q82265      0.0000 
     22 C34       -12.6890   12.2550   28.8830 C.ar      1 Q82265      0.0000 
     23 C35       -13.6660   12.4320   29.8470 C.ar      1 Q82265      0.0000 
     24 C36       -13.9490   13.7290   30.2650 C.ar      1 Q82265      0.0000 
     25 C37       -13.2860   14.8480   29.7470 C.ar      1 Q82265      0.0000 
     26 C61        -7.3650   17.6340   27.6830 C.3       1 Q82265      0.0000 
     27 C62        -6.1910   18.1030   26.8580 C.ar      1 Q82265      0.0000 
     28 C63        -6.3830   19.0850   25.8940 C.ar      1 Q82265      0.0000 
     29 C64        -5.4500   19.2490   24.8740 C.ar      1 Q82265      0.0000 
     30 C65        -4.3210   18.4380   24.8280 C.ar      1 Q82265      0.0000 
     31 C66        -4.1240   17.4530   25.7890 C.ar      1 Q82265      0.0000 
     32 C67        -5.0590   17.2890   26.8070 C.ar      1 Q82265      0.0000 
     33 C70        -8.7730   15.8140   24.3550 C.ar      1 Q82265      0.0000 
     34 C71        -7.5240   16.1300   24.1720 C.ar      1 Q82265      0.0000 
     35 C72        -6.9910   16.6000   22.9740 C.ar      1 Q82265      0.0000 
     36 C73        -7.8840   16.7530   21.8110 C.ar      1 Q82265      0.0000 
     37 C74        -9.2130   16.4150   22.0240 C.ar      1 Q82265      0.0000 
     38 C75        -9.6460   15.9480   23.2680 C.ar      1 Q82265      0.0000 
     39 C12        -7.1450   13.9590   27.2000 C.1       1 Q82265      0.0000 
     40 N13        -6.6260   13.4560   26.2810 N.1       1 Q82265      0.0000 
     41 C76        -7.3980   17.2570   20.4840 C.3       1 Q82265      0.0000 
     42 C26       -10.2490   16.9680   35.6200 C.3       1 Q82265      0.0000 
     43 O76        -5.9890   17.1720   20.3320 O.3       1 Q82265      0.0000 
     44 O26       -11.2680   16.2950   36.3510 O.3       1 Q82265      0.0000 
     45 H          -8.4274   14.2456   30.3807 H         1 Q82265      0.0000 
     46 H         -10.1532   13.8777   30.2188 H         1 Q82265      0.0000 
     47 H         -11.0726   16.5657   30.0681 H         1 Q82265      0.0000 
     48 H          -9.3083   18.2370   29.3301 H         1 Q82265      0.0000 
     49 H         -10.6241   18.0101   26.6313 H         1 Q82265      0.0000 
     50 H          -8.3474   17.6509   25.7983 H         1 Q82265      0.0000 
     51 H         -10.4624   15.3421   25.6025 H         1 Q82265      0.0000 
     52 H          -9.1152   14.1989   25.7361 H         1 Q82265      0.0000 
     53 H          -8.0648   16.7417   31.4733 H         1 Q82265      0.0000 
     54 H          -8.3596   17.6413   33.7338 H         1 Q82265      0.0000 
     55 H         -11.6968   15.1121   34.3048 H         1 Q82265      0.0000 
     56 H         -11.3589   14.2182   32.0900 H         1 Q82265      0.0000 
     57 H         -11.1662   15.6146   27.1914 H         1 Q82265      0.0000 
     58 H         -12.4113   16.6585   27.8985 H         1 Q82265      0.0000 
     59 H         -11.3057   13.2311   27.6318 H         1 Q82265      0.0000 
     60 H         -12.4422   11.3280   28.5491 H         1 Q82265      0.0000 
     61 H         -14.1652   11.6392   30.2411 H         1 Q82265      0.0000 
     62 H         -14.6833   13.8768   30.9926 H         1 Q82265      0.0000 
     63 H         -13.5288   15.7880   30.0899 H         1 Q82265      0.0000 
     64 H          -7.1048   16.7033   28.1976 H         1 Q82265      0.0000 
     65 H          -7.6050   18.3856   28.4422 H         1 Q82265      0.0000 
     66 H          -7.2127   19.6903   25.9329 H         1 Q82265      0.0000 
     67 H          -5.5958   19.9692   24.1554 H         1 Q82265      0.0000 
     68 H          -3.6268   18.5682   24.0772 H         1 Q82265      0.0000 
     69 H          -3.2953   16.8506   25.7489 H         1 Q82265      0.0000 
     70 H          -4.9163   16.5659   27.5246 H         1 Q82265      0.0000 
     71 H          -6.8225   16.0342   24.9825 H         1 Q82265      0.0000 
     72 H          -6.0201   16.8406   22.8668 H         1 Q82265      0.0000 
     73 H          -9.8966   16.5086   21.2533 H         1 Q82265      0.0000 
     74 H         -10.6459   15.6920   23.3916 H         1 Q82265      0.0000 
     75 H          -7.7511   18.3081   20.3671 H         1 Q82265      0.0000 
     76 H          -7.9227   16.6811   19.6864 H         1 Q82265      0.0000 
     77 H         -10.4684   18.0572   35.5387 H         1 Q82265      0.0000 
     78 H          -9.2696   16.9027   36.1469 H         1 Q82265      0.0000 
     79 H         -10.8395   19.7712   28.9963 H         1 Q82265      0.0000 
     80 H          -9.4707   19.9412   28.0567 H         1 Q82265      0.0000 
     81 H          -5.7654   17.8353   19.6178 H         1 Q82265      0.0000 
     82 H         -10.8101   15.9398   37.1659 H         1 Q82265      0.0000 
@<TRIPOS>BOND
     1    6    1 2    
     2   39    1 1    
     3    9    2 1    
     4   79    2 1    
     5   10    3 1    
     6   80    3 1    
     7    6    4 1    
     8   11    4 1    
     9   12    4 1    
    10    6    5 1    
    11    7    5 1    
    12    8    5 1    
    13   13    7 1    
    14   45    7 1    
    15   46    7 1    
    16    9    8 1    
    17   19    8 1    
    18   47    8 1    
    19   10    9 1    
    20   48    9 1    
    21   11   10 1    
    22   49   10 1    
    23   26   11 1    
    24   50   11 1    
    25   33   12 1    
    26   51   12 1    
    27   52   12 1    
    28   14   13 ar   
    29   18   13 ar   
    30   15   14 ar   
    31   53   14 1    
    32   16   15 ar   
    33   54   15 1    
    34   17   16 ar   
    35   42   16 1    
    36   18   17 ar   
    37   55   17 1    
    38   56   18 1    
    39   20   19 1    
    40   57   19 1    
    41   58   19 1    
    42   21   20 ar   
    43   25   20 ar   
    44   22   21 ar   
    45   59   21 1    
    46   23   22 ar   
    47   60   22 1    
    48   24   23 ar   
    49   61   23 1    
    50   25   24 ar   
    51   62   24 1    
    52   63   25 1    
    53   27   26 1    
    54   64   26 1    
    55   65   26 1    
    56   28   27 ar   
    57   32   27 ar   
    58   29   28 ar   
    59   66   28 1    
    60   30   29 ar   
    61   67   29 1    
    62   31   30 ar   
    63   68   30 1    
    64   32   31 ar   
    65   69   31 1    
    66   70   32 1    
    67   34   33 ar   
    68   38   33 ar   
    69   35   34 ar   
    70   71   34 1    
    71   36   35 ar   
    72   72   35 1    
    73   37   36 ar   
    74   41   36 1    
    75   38   37 ar   
    76   73   37 1    
    77   74   38 1    
    78   40   39 3    
    79   43   41 1    
    80   75   41 1    
    81   76   41 1    
    82   44   42 1    
    83   77   42 1    
    84   78   42 1    
    85   81   43 1    
    86   82   44 1    
@<TRIPOS>SUBSTRUCTURE
     1 Q82265      1 GROUP   
@<TRIPOS>SET

