#    Name: 2h42_VIA_2_INTS_M
#    Modification time : Tue Mar 25 15:30:55 2014

@<TRIPOS>MOLECULE
2h42_VIA_2_INTS_M
   58     0     9     0     0
SMALL
NO_CHARGES


@<TRIPOS>ATOM
      1 CA         32.4055  159.3105   20.2035 C.3       3 GLC5        0.0000 
      2 CA         31.2560  160.8380   21.2370 C.3       9 GLL5        0.0000 
      3 CA         33.5550  157.7830   19.1700 C.3       6 GLP5        0.0000 
      4 CA         28.7545  163.5260   20.7925 C.3       3 GLC5        0.0000 
      5 CA         30.2730  161.9140   20.7730 C.3       9 GLL5        0.0000 
      6 CA         27.2360  165.1380   20.8120 C.3       6 GLP5        0.0000 
      7 CA         32.9265  167.8415   20.2895 C.3       3 GLC5        0.0000 
      8 CA         32.2310  166.2630   19.5180 C.3       9 GLL5        0.0000 
      9 CA         33.6220  169.4200   21.0610 C.3       6 GLP5        0.0000 
     10 CA         31.4750  167.7620   18.0225 C.3       3 GLC5        0.0000 
     11 CA         30.7190  169.2610   16.5270 C.3       6 GLP5        0.0000 
     12 CA         33.9495  163.7055   19.4175 C.3       3 GLC5        0.0000 
     13 CA         32.1400  164.0420   18.4070 C.3       9 GLL5        0.0000 
     14 CA         35.7590  163.3690   20.4280 C.3       6 GLP5        0.0000 
     15 N          34.0690  165.3575   15.6595 N.am      2 SEC2        0.0000 
     16 N          33.4150  165.2470   16.9470 N.am      8 SEL2        0.0000 
     17 N          34.7230  165.4680   14.3720 N.am      5 SEP2        0.0000 
     18 O          33.3160  163.3135   15.1040 O.2       1 ALC1        0.0000 
     19 O          32.8860  163.1160   16.3260 O.2       7 ALL1        0.0000 
     20 O          33.7460  163.5110   13.8820 O.2       4 ALP1        0.0000 
     21 CA         33.4995  161.9985   18.9855 C.3       3 GLC5        0.0000 
     22 CA         31.5660  162.8130   18.7010 C.3       9 GLL5        0.0000 
     23 CA         35.4330  161.1840   19.2700 C.3       6 GLP5        0.0000 
     24 CA         34.4730  160.7745   17.2905 C.3       3 GLC5        0.0000 
     25 CA         33.5130  160.3650   15.3110 C.3       9 GLL5        0.0000 
     26 CA         35.4345  162.7030   13.4855 C.3       3 GLC5        0.0000 
     27 CA         35.6750  160.9470   14.7520 C.3       9 GLL5        0.0000 
     28 CA         35.1940  164.4590   12.2190 C.3       6 GLP5        0.0000 
     29 CA         36.1955  161.3640   17.3030 C.3       3 GLC5        0.0000 
     30 CA         36.9580  161.5440   15.3360 C.3       9 GLL5        0.0000 
     31 CA         38.5740  160.7740   16.0360 C.3       3 GLC5        0.0000 
     32 CA         40.1900  160.0040   16.7360 C.3       6 GLP5        0.0000 
     33 CA         31.2585  156.3960   13.3770 C.3       3 GLC5        0.0000 
     34 CA         29.9040  156.3280   15.0110 C.3       9 GLL5        0.0000 
     35 CA         32.6130  156.4640   11.7430 C.3       6 GLP5        0.0000 
     36 CA         27.7855  153.5875   19.5645 C.3       3 GLC5        0.0000 
     37 CA         27.7600  154.8750   17.7360 C.3       9 GLL5        0.0000 
     38 CA         27.8110  152.3000   21.3930 C.3       6 GLP5        0.0000 
     39 CA         27.3790  153.0515   17.3250 C.3       3 GLC5        0.0000 
     40 CA         26.9980  151.2280   16.9140 C.3       6 GLP5        0.0000 
     41 CA         25.6905  155.0105   17.2815 C.3       3 GLC5        0.0000 
     42 CA         23.6210  155.1460   16.8270 C.3       6 GLP5        0.0000 
     43 CA         28.4940  160.2705   15.6530 C.3       3 GLC5        0.0000 
     44 CA         28.7740  158.1230   16.1690 C.3       9 GLL5        0.0000 
     45 CA         28.2140  162.4180   15.1370 C.3       6 GLP5        0.0000 
     46 CA         30.2540  161.3705   13.9428 C.3       3 GLC5        0.0000 
     47 CA         31.1030  160.2670   15.3380 C.3       9 GLL5        0.0000 
     48 CA         29.3900  163.0020   13.0000 C.3       6 GLP5        0.0000 
     49 CA         32.7970  157.4918   14.7372 C.3       3 GLC5        0.0000 
     50 CA         31.1330  159.2110   14.4330 C.3       9 GLL5        0.0000 
     51 CA         33.8500  156.0130   15.2710 C.3       6 GLP5        0.0000 
     52 CA         33.6893  157.9243   15.0658 C.3       3 GLC5        0.0000 
     53 CA         33.5440  159.3060   14.4100 C.3       9 GLL5        0.0000 
     54 CA         32.6285  157.8011   13.0249 C.3       3 GLC5        0.0000 
     55 CA         37.4543  161.7507   13.5065 C.3       3 GLC5        0.0000 
     56 CA         38.5920  162.2560   11.9690 C.3       6 GLP5        0.0000 
     57 CA         31.2395  155.1598   16.2485 C.3       3 GLC5        0.0000 
     58 CA         32.7750  154.4240   16.8870 C.3       6 GLP5        0.0000 
@<TRIPOS>BOND
@<TRIPOS>SUBSTRUCTURE
     1 ALC1       18 GROUP        1 X    ALC  0     ROOT ALC X 1
     2 SEC2       15 GROUP        1 X    SEC  0     **** SEC X 2
     3 GLC5        1 GROUP        1 X    GLC  0     **** GLC X 6
     4 ALP1       20 GROUP        1 Y    ALP  0     ROOT ALP Y 8
     5 SEP2       17 GROUP        1 Y    SEP  0     **** SEP Y 9
     6 GLP5        3 GROUP        1 Y    GLP  0     **** GLP Y 13
     7 ALL1       19 GROUP        1 Z    ALL  0     ROOT ALL Z 15
     8 SEL2       16 GROUP        1 Z    SEL  0     **** SEL Z 16
     9 GLL5        2 GROUP        1 Z    GLL  0     **** GLL Z 20
@<TRIPOS>SET

