#    Name: 2h42_VIA_2_ligand
#    Modification time : Tue Mar 25 15:30:55 2014

@<TRIPOS>MOLECULE
2h42_VIA_2_ligand
   64    67     1     0     0
SMALL
NO_CHARGES


@<TRIPOS>ATOM
      1 C34        30.5350  159.7470   22.0300 C.3       1 VIA902      0.0000 
      2 C33        31.2560  160.8380   21.2370 C.3       1 VIA902      0.0000 
      3 C32        30.2730  161.9140   20.7730 C.3       1 VIA902      0.0000 
      4 C30        30.9960  162.9850   19.9540 C.2       1 VIA902      0.0000 
      5 N29        31.2280  164.2440   20.3200 N.2       1 VIA902      0.0000 
      6 N28        31.8660  164.8300   19.4440 N.pl3     1 VIA902      0.0000 
      7 C31        32.2310  166.2630   19.5180 C.3       1 VIA902      0.0000 
      8 C24        32.1400  164.0420   18.4070 C.2       1 VIA902      0.0000 
      9 C23        32.8230  164.2020   17.2070 C.2       1 VIA902      0.0000 
     10 O27        33.4150  165.2470   16.9470 O.2       1 VIA902      0.0000 
     11 N22        32.8860  163.1160   16.3260 N.am      1 VIA902      0.0000 
     12 C21        32.2720  161.9050   16.6730 C.2       1 VIA902      0.0000 
     13 N26        31.6380  161.7830   17.8470 N.2       1 VIA902      0.0000 
     14 C25        31.5660  162.8130   18.7010 C.2       1 VIA902      0.0000 
     15 C9         32.2920  160.8440   15.7730 C.ar      1 VIA902      0.0000 
     16 C8         31.1030  160.2670   15.3380 C.ar      1 VIA902      0.0000 
     17 C7         31.1330  159.2110   14.4330 C.ar      1 VIA902      0.0000 
     18 C6         32.3550  158.7300   13.9740 C.ar      1 VIA902      0.0000 
     19 C5         33.5440  159.3060   14.4100 C.ar      1 VIA902      0.0000 
     20 C4         33.5130  160.3650   15.3110 C.ar      1 VIA902      0.0000 
     21 O3         34.6610  160.9380   15.7660 O.3       1 VIA902      0.0000 
     22 C2         35.6750  160.9470   14.7520 C.3       1 VIA902      0.0000 
     23 C1         36.9580  161.5440   15.3360 C.3       1 VIA902      0.0000 
     24 S10        29.6400  158.5350   13.8120 S.o2      1 VIA902      0.0000 
     25 O11        29.9330  157.8260   12.5250 O.2       1 VIA902      0.0000 
     26 O12        28.6630  159.6420   13.5530 O.2       1 VIA902      0.0000 
     27 N14        28.9920  157.4730   14.8690 N.pl3     1 VIA902      0.0000 
     28 C19        29.9040  156.3280   15.0110 C.3       1 VIA902      0.0000 
     29 C18        29.5040  155.4630   16.2090 C.3       1 VIA902      0.0000 
     30 N17        28.1350  155.7800   16.6410 N.4       1 VIA902      0.0000 
     31 C20        27.7600  154.8750   17.7360 C.3       1 VIA902      0.0000 
     32 C16        28.0660  157.1640   17.1300 C.3       1 VIA902      0.0000 
     33 C15        28.7740  158.1230   16.1690 C.3       1 VIA902      0.0000 
     34 H          31.7362  160.3920   20.3679 H         1 VIA902      0.0000 
     35 H          32.0176  161.2951   21.8662 H         1 VIA902      0.0000 
     36 H          29.8115  162.3773   21.6416 H         1 VIA902      0.0000 
     37 H          29.5007  161.4548   20.1609 H         1 VIA902      0.0000 
     38 H          33.3773  163.2051   15.4337 H         1 VIA902      0.0000 
     39 H          30.2026  160.6211   15.6854 H         1 VIA902      0.0000 
     40 H          32.3797  157.9442   13.3086 H         1 VIA902      0.0000 
     41 H          34.4445  158.9491   14.0664 H         1 VIA902      0.0000 
     42 H          35.3835  161.5551   13.8932 H         1 VIA902      0.0000 
     43 H          35.9047  159.9392   14.4001 H         1 VIA902      0.0000 
     44 H          30.9328  156.6694   15.1623 H         1 VIA902      0.0000 
     45 H          29.8820  155.7024   14.1132 H         1 VIA902      0.0000 
     46 H          30.2173  155.6461   17.0180 H         1 VIA902      0.0000 
     47 H          29.5837  154.4121   15.9154 H         1 VIA902      0.0000 
     48 H          27.4540  155.6498   15.8196 H         1 VIA902      0.0000 
     49 H          28.5418  157.2513   18.1136 H         1 VIA902      0.0000 
     50 H          27.0236  157.4875   17.2308 H         1 VIA902      0.0000 
     51 H          28.1540  159.0159   16.0567 H         1 VIA902      0.0000 
     52 H          29.7251  158.4191   16.6185 H         1 VIA902      0.0000 
     53 H          31.1654  159.0356   22.3407 H         1 VIA902      0.0000 
     54 H          30.0847  160.1152   22.8434 H         1 VIA902      0.0000 
     55 H          29.8297  159.2954   21.4836 H         1 VIA902      0.0000 
     56 H          32.8005  166.4605   20.3159 H         1 VIA902      0.0000 
     57 H          32.7438  166.5577   18.7117 H         1 VIA902      0.0000 
     58 H          31.4233  166.8491   19.5821 H         1 VIA902      0.0000 
     59 H          37.2946  161.0126   16.1134 H         1 VIA902      0.0000 
     60 H          37.6947  161.5739   14.6605 H         1 VIA902      0.0000 
     61 H          36.8185  162.4800   15.6592 H         1 VIA902      0.0000 
     62 H          27.7905  153.9165   17.4526 H         1 VIA902      0.0000 
     63 H          28.3724  154.9681   18.5210 H         1 VIA902      0.0000 
     64 H          26.8327  155.0541   18.0648 H         1 VIA902      0.0000 
@<TRIPOS>BOND
     1    2    1 1    
     2   53    1 1    
     3   54    1 1    
     4   55    1 1    
     5    3    2 1    
     6   34    2 1    
     7   35    2 1    
     8    4    3 1    
     9   36    3 1    
    10   37    3 1    
    11    5    4 2    
    12   14    4 1    
    13    6    5 1    
    14    7    6 1    
    15    8    6 1    
    16   56    7 1    
    17   57    7 1    
    18   58    7 1    
    19    9    8 1    
    20   14    8 2    
    21   10    9 2    
    22   11    9 am   
    23   12   11 1    
    24   38   11 1    
    25   13   12 2    
    26   15   12 1    
    27   14   13 1    
    28   16   15 ar   
    29   20   15 ar   
    30   17   16 ar   
    31   39   16 1    
    32   18   17 ar   
    33   24   17 1    
    34   19   18 ar   
    35   40   18 1    
    36   20   19 ar   
    37   41   19 1    
    38   21   20 1    
    39   22   21 1    
    40   23   22 1    
    41   42   22 1    
    42   43   22 1    
    43   59   23 1    
    44   60   23 1    
    45   61   23 1    
    46   25   24 2    
    47   26   24 2    
    48   27   24 1    
    49   28   27 1    
    50   33   27 1    
    51   29   28 1    
    52   44   28 1    
    53   45   28 1    
    54   30   29 1    
    55   46   29 1    
    56   47   29 1    
    57   31   30 1    
    58   32   30 1    
    59   48   30 1    
    60   62   31 1    
    61   63   31 1    
    62   64   31 1    
    63   33   32 1    
    64   49   32 1    
    65   50   32 1    
    66   51   33 1    
    67   52   33 1    
@<TRIPOS>SUBSTRUCTURE
     1 VIA902      1 GROUP   
@<TRIPOS>SET

