#    Name: 1re9_DSO_1_INTS_M
#    Modification time : Tue Mar 25 00:33:25 2014

@<TRIPOS>MOLECULE
1re9_DSO_1_INTS_M
   74     0     6     0     0
SMALL
NO_CHARGES


@<TRIPOS>ATOM
      1 CA         31.2350   25.4120   19.8030 C.3       2 GLC5        0.0000 
      2 CA         30.9340   25.1180   21.9490 C.3       6 GLL5        0.0000 
      3 CA         31.5360   25.7060   17.6570 C.3       4 GLP5        0.0000 
      4 CA         32.9590   24.9265   21.7110 C.3       2 GLC5        0.0000 
      5 CA         34.9840   24.7350   21.4730 C.3       4 GLP5        0.0000 
      6 CA         33.4420   25.6165   22.6595 C.3       2 GLC5        0.0000 
      7 CA         31.9000   26.4980   23.8460 C.3       6 GLL5        0.0000 
      8 CA         29.0010   27.1490   21.0620 C.3       2 GLC5        0.0000 
      9 CA         29.4770   26.9660   23.1040 C.3       6 GLL5        0.0000 
     10 CA         28.5250   27.3320   19.0200 C.3       4 GLP5        0.0000 
     11 CA         19.9870   35.9795   20.7525 C.3       2 GLC5        0.0000 
     12 CA         21.5880   36.7870   19.5110 C.3       6 GLL5        0.0000 
     13 CA         18.3860   35.1720   21.9940 C.3       4 GLP5        0.0000 
     14 CA         24.4430   42.4540   20.2605 C.3       2 GLC5        0.0000 
     15 CA         23.0050   41.1870   20.3530 C.3       6 GLL5        0.0000 
     16 CA         25.8810   43.7210   20.1680 C.3       4 GLP5        0.0000 
     17 CA         33.5395   29.4070   19.8425 C.3       2 GLC5        0.0000 
     18 CA         31.8660   30.0460   21.1790 C.3       6 GLL5        0.0000 
     19 CA         35.2130   28.7680   18.5060 C.3       4 GLP5        0.0000 
     20 CA         31.9540   32.0480   22.0440 C.3       2 GLC5        0.0000 
     21 CA         32.0420   34.0500   22.9090 C.3       4 GLP5        0.0000 
     22 CA         33.5785   29.6025   21.6050 C.3       2 GLC5        0.0000 
     23 CA         35.2910   29.1590   22.0310 C.3       4 GLP5        0.0000 
     24 CA         31.2355   28.7240   18.7675 C.3       2 GLC5        0.0000 
     25 CA         30.8190   30.3990   20.1370 C.3       6 GLL5        0.0000 
     26 CA         31.6520   27.0490   17.3980 C.3       4 GLP5        0.0000 
     27 CA         30.6855   31.3820   18.4235 C.3       2 GLC5        0.0000 
     28 CA         30.5520   32.3650   16.7100 C.3       4 GLP5        0.0000 
     29 CA         28.3600   33.1995   17.6390 C.3       2 GLC5        0.0000 
     30 CA         26.9670   33.0360   19.1100 C.3       6 GLL5        0.0000 
     31 CA         29.7530   33.3630   16.1680 C.3       4 GLP5        0.0000 
     32 CA         25.4520   31.9985   16.4635 C.3       2 GLC5        0.0000 
     33 CA         25.6750   32.4920   18.5500 C.3       6 GLL5        0.0000 
     34 CA         25.2290   31.5050   14.3770 C.3       4 GLP5        0.0000 
     35 CA         23.0115   33.1640   19.2720 C.3       2 GLC5        0.0000 
     36 CA         24.6700   33.6440   18.4050 C.3       6 GLL5        0.0000 
     37 CA         21.3530   32.6840   20.1390 C.3       4 GLP5        0.0000 
     38 N          32.0600   26.2300   19.6870 N.am      1 SEC2        0.0000 
     39 N          32.0150   27.2240   20.5630 N.am      5 SEL2        0.0000 
     40 N          32.1050   25.2360   18.8110 N.am      3 SEP2        0.0000 
     41 CA         31.5427   23.0860   21.4322 C.3       2 GLC5        0.0000 
     42 CA         32.4230   21.5570   20.3760 C.3       4 GLP5        0.0000 
     43 CA         29.7285   26.5780   20.6502 C.3       2 GLC5        0.0000 
     44 CA         30.9300   26.5300   22.6120 C.3       6 GLL5        0.0000 
     45 CA         33.5217   26.3012   24.9627 C.3       2 GLC5        0.0000 
     46 CA         35.3950   26.6120   25.5420 C.3       4 GLP5        0.0000 
     47 CA         30.6782   26.2533   26.9590 C.3       2 GLC5        0.0000 
     48 CA         31.3970   25.4830   24.9210 C.3       6 GLL5        0.0000 
     49 CA         30.7070   26.8520   28.8100 C.3       4 GLP5        0.0000 
     50 CA         27.7312   25.0261   25.3338 C.3       2 GLC5        0.0000 
     51 CA         29.9020   25.8260   25.2950 C.3       6 GLL5        0.0000 
     52 CA         26.0530   24.5380   26.1230 C.3       4 GLP5        0.0000 
     53 CA         27.4290   27.2712   23.1438 C.3       2 GLC5        0.0000 
     54 CA         28.8730   25.9030   24.1190 C.3       6 GLL5        0.0000 
     55 CA         25.6830   28.1080   22.6760 C.3       4 GLP5        0.0000 
     56 CA         28.6471   27.7626   25.0887 C.3       2 GLC5        0.0000 
     57 CA         27.8620   29.1100   26.2720 C.3       4 GLP5        0.0000 
     58 CA         25.3698   39.3775   18.7910 C.3       2 GLC5        0.0000 
     59 CA         23.1520   38.7200   18.2300 C.3       6 GLL5        0.0000 
     60 CA         27.1890   39.5480   19.6830 C.3       4 GLP5        0.0000 
     61 CA         26.0885   39.0853   18.0915 C.3       2 GLC5        0.0000 
     62 CA         24.8900   39.3020   16.6550 C.3       6 GLL5        0.0000 
     63 CA         24.6842   41.3920   16.8068 C.3       2 GLC5        0.0000 
     64 CA         24.9490   43.2860   16.5020 C.3       4 GLP5        0.0000 
     65 CA         29.2630   29.3500   19.2100 C.3       2 GLC5        0.0000 
     66 CA         29.4190   30.4330   20.6690 C.3       6 GLL5        0.0000 
     67 CA         28.4070   28.2840   18.0170 C.3       4 GLP5        0.0000 
     68 CA         28.3697   30.0437   18.9350 C.3       2 GLC5        0.0000 
     69 CA         28.8070   31.8090   20.4580 C.3       6 GLL5        0.0000 
     70 CA         29.4422   32.0842   18.2815 C.3       2 GLC5        0.0000 
     71 CA         27.8580   31.7980   19.2480 C.3       6 GLL5        0.0000 
     72 CA         26.6128   30.7527   19.9880 C.3       2 GLC5        0.0000 
     73 CA         24.8930   29.7020   20.1230 C.3       4 GLP5        0.0000 
     74 CA         25.1943   31.4530   19.3703 C.3       2 GLC5        0.0000 
@<TRIPOS>BOND
@<TRIPOS>SUBSTRUCTURE
     1 SEC2       38 GROUP        1 X    SEC  0     ROOT SEC X 2
     2 GLC5        1 GROUP        1 X    GLC  0     **** GLC X 6
     3 SEP2       40 GROUP        1 Y    SEP  0     ROOT SEP Y 9
     4 GLP5        3 GROUP        1 Y    GLP  0     **** GLP Y 13
     5 SEL2       39 GROUP        1 Z    SEL  0     ROOT SEL Z 16
     6 GLL5        2 GROUP        1 Z    GLL  0     **** GLL Z 20
@<TRIPOS>SET

