#    Name: 1re9_DSO_1_ligand
#    Modification time : Tue Mar 25 00:33:25 2014

@<TRIPOS>MOLECULE
1re9_DSO_1_ligand
   83    87     1     0     0
SMALL
NO_CHARGES


@<TRIPOS>ATOM
      1 C1         31.4300   24.1000   24.2150 C.3       1 DSO601      0.0000 
      2 C2         30.3910   24.1120   23.0280 C.3       1 DSO601      0.0000 
      3 C3         28.9610   24.5020   23.4690 C.3       1 DSO601      0.0000 
      4 C4         30.9340   25.1180   21.9490 C.3       1 DSO601      0.0000 
      5 C5         31.3970   25.4830   24.9210 C.3       1 DSO601      0.0000 
      6 C6         29.9020   25.8260   25.2950 C.3       1 DSO601      0.0000 
      7 C7         31.9000   26.4980   23.8460 C.3       1 DSO601      0.0000 
      8 C8         28.8730   25.9030   24.1190 C.3       1 DSO601      0.0000 
      9 C9         30.9300   26.5300   22.6120 C.3       1 DSO601      0.0000 
     10 C10        29.4770   26.9660   23.1040 C.3       1 DSO601      0.0000 
     11 C11        21.4050   38.1540   19.8130 C.ar      1 DSO601      0.0000 
     12 C12        21.5880   36.7870   19.5110 C.ar      1 DSO601      0.0000 
     13 C13        22.5220   36.3720   18.6000 C.ar      1 DSO601      0.0000 
     14 C14        22.1640   39.1250   19.1960 C.ar      1 DSO601      0.0000 
     15 C15        23.1520   38.7200   18.2300 C.ar      1 DSO601      0.0000 
     16 C16        23.3260   37.3230   17.9350 C.ar      1 DSO601      0.0000 
     17 C17        24.3320   36.9870   16.9620 C.ar      1 DSO601      0.0000 
     18 C18        25.0860   37.9430   16.3450 C.ar      1 DSO601      0.0000 
     19 C19        24.8900   39.3020   16.6550 C.ar      1 DSO601      0.0000 
     20 C20        23.9490   39.6940   17.5680 C.ar      1 DSO601      0.0000 
     21 N21        22.0080   40.5420   19.4650 N.3       1 DSO601      0.0000 
     22 C22        20.6360   40.8940   19.8960 C.3       1 DSO601      0.0000 
     23 C23        23.0050   41.1870   20.3530 C.3       1 DSO601      0.0000 
     24 C24        31.4490   27.5620   21.5950 C.2       1 DSO601      0.0000 
     25 N25        31.4130   28.8760   21.9870 N.am      1 DSO601      0.0000 
     26 C26        31.8660   30.0460   21.1790 C.3       1 DSO601      0.0000 
     27 C27        30.8190   30.3990   20.1370 C.3       1 DSO601      0.0000 
     28 C28        29.4190   30.4330   20.6690 C.3       1 DSO601      0.0000 
     29 C29        28.8070   31.8090   20.4580 C.3       1 DSO601      0.0000 
     30 C30        27.8580   31.7980   19.2480 C.3       1 DSO601      0.0000 
     31 C31        26.9670   33.0360   19.1100 C.3       1 DSO601      0.0000 
     32 C32        25.6750   32.4920   18.5500 C.3       1 DSO601      0.0000 
     33 C33        24.6700   33.6440   18.4050 C.3       1 DSO601      0.0000 
     34 N34        25.4980   34.6870   17.7620 N.pl3     1 DSO601      0.0000 
     35 O35        25.4900   35.2280   15.3370 O.2       1 DSO601      0.0000 
     36 S36        24.5650   35.2980   16.4140 S.o2      1 DSO601      0.0000 
     37 O37        23.2470   34.7870   16.2610 O.2       1 DSO601      0.0000 
     38 O38        32.0150   27.2240   20.5630 O.2       1 DSO601      0.0000 
     39 H          32.4078   23.9245   23.8127 H         1 DSO601      0.0000 
     40 H          31.1476   23.3344   24.9098 H         1 DSO601      0.0000 
     41 H          30.3853   23.1349   22.5825 H         1 DSO601      0.0000 
     42 H          28.5956   23.7562   24.1854 H         1 DSO601      0.0000 
     43 H          28.3010   24.4763   22.5933 H         1 DSO601      0.0000 
     44 H          30.2779   25.1166   21.1126 H         1 DSO601      0.0000 
     45 H          31.9301   24.8483   21.6939 H         1 DSO601      0.0000 
     46 H          32.0013   25.4918   25.7437 H         1 DSO601      0.0000 
     47 H          29.8976   26.7954   25.8301 H         1 DSO601      0.0000 
     48 H          29.5494   25.0686   26.0218 H         1 DSO601      0.0000 
     49 H          32.8821   26.1991   23.5091 H         1 DSO601      0.0000 
     50 H          31.9402   27.4853   24.2828 H         1 DSO601      0.0000 
     51 H          27.9671   26.1425   24.4315 H         1 DSO601      0.0000 
     52 H          29.5541   27.9169   23.6018 H         1 DSO601      0.0000 
     53 H          28.8303   27.0341   22.2466 H         1 DSO601      0.0000 
     54 H          20.6871   38.4156   20.5095 H         1 DSO601      0.0000 
     55 H          20.9898   36.0927   20.0023 H         1 DSO601      0.0000 
     56 H          22.6522   35.3752   18.3875 H         1 DSO601      0.0000 
     57 H          25.8027   37.6897   15.6504 H         1 DSO601      0.0000 
     58 H          25.4793   40.0076   16.1725 H         1 DSO601      0.0000 
     59 H          23.8002   40.6852   17.7915 H         1 DSO601      0.0000 
     60 H          31.0366   29.1316   22.9443 H         1 DSO601      0.0000 
     61 H          32.8039   29.8109   20.6740 H         1 DSO601      0.0000 
     62 H          32.0261   30.9085   21.8273 H         1 DSO601      0.0000 
     63 H          30.8816   29.6662   19.3102 H         1 DSO601      0.0000 
     64 H          31.0718   31.3841   19.7010 H         1 DSO601      0.0000 
     65 H          29.4212   30.2050   21.7356 H         1 DSO601      0.0000 
     66 H          28.8081   29.6899   20.1549 H         1 DSO601      0.0000 
     67 H          29.5957   32.5362   20.2812 H         1 DSO601      0.0000 
     68 H          28.2465   32.0990   21.3434 H         1 DSO601      0.0000 
     69 H          27.2152   30.9003   19.3118 H         1 DSO601      0.0000 
     70 H          28.4610   31.6872   18.3275 H         1 DSO601      0.0000 
     71 H          27.4097   33.7153   18.4236 H         1 DSO601      0.0000 
     72 H          26.8030   33.4621   20.0692 H         1 DSO601      0.0000 
     73 H          25.2641   31.7494   19.2213 H         1 DSO601      0.0000 
     74 H          25.8493   32.0529   17.5765 H         1 DSO601      0.0000 
     75 H          24.3514   33.9454   19.3673 H         1 DSO601      0.0000 
     76 H          23.8816   33.3346   17.7717 H         1 DSO601      0.0000 
     77 H          26.2725   35.0261   17.8991 H         1 DSO601      0.0000 
     78 H          20.3748   40.4132   20.7330 H         1 DSO601      0.0000 
     79 H          20.5439   41.8727   20.0793 H         1 DSO601      0.0000 
     80 H          19.9568   40.6610   19.2000 H         1 DSO601      0.0000 
     81 H          23.9322   41.1134   19.9856 H         1 DSO601      0.0000 
     82 H          22.8158   42.1609   20.4782 H         1 DSO601      0.0000 
     83 H          23.0162   40.7713   21.2624 H         1 DSO601      0.0000 
@<TRIPOS>BOND
     1    2    1 1    
     2    5    1 1    
     3   39    1 1    
     4   40    1 1    
     5    3    2 1    
     6    4    2 1    
     7   41    2 1    
     8    8    3 1    
     9   42    3 1    
    10   43    3 1    
    11    9    4 1    
    12   44    4 1    
    13   45    4 1    
    14    6    5 1    
    15    7    5 1    
    16   46    5 1    
    17    8    6 1    
    18   47    6 1    
    19   48    6 1    
    20    9    7 1    
    21   49    7 1    
    22   50    7 1    
    23   10    8 1    
    24   51    8 1    
    25   10    9 1    
    26   24    9 1    
    27   52   10 1    
    28   53   10 1    
    29   12   11 ar   
    30   14   11 ar   
    31   54   11 1    
    32   13   12 ar   
    33   55   12 1    
    34   16   13 ar   
    35   56   13 1    
    36   15   14 ar   
    37   21   14 1    
    38   16   15 ar   
    39   20   15 ar   
    40   17   16 ar   
    41   18   17 ar   
    42   36   17 1    
    43   19   18 ar   
    44   57   18 1    
    45   20   19 ar   
    46   58   19 1    
    47   59   20 1    
    48   22   21 1    
    49   23   21 1    
    50   78   22 1    
    51   79   22 1    
    52   80   22 1    
    53   81   23 1    
    54   82   23 1    
    55   83   23 1    
    56   25   24 am   
    57   38   24 2    
    58   26   25 1    
    59   60   25 1    
    60   27   26 1    
    61   61   26 1    
    62   62   26 1    
    63   28   27 1    
    64   63   27 1    
    65   64   27 1    
    66   29   28 1    
    67   65   28 1    
    68   66   28 1    
    69   30   29 1    
    70   67   29 1    
    71   68   29 1    
    72   31   30 1    
    73   69   30 1    
    74   70   30 1    
    75   32   31 1    
    76   71   31 1    
    77   72   31 1    
    78   33   32 1    
    79   73   32 1    
    80   74   32 1    
    81   34   33 1    
    82   75   33 1    
    83   76   33 1    
    84   36   34 1    
    85   77   34 1    
    86   36   35 2    
    87   37   36 2    
@<TRIPOS>SUBSTRUCTURE
     1 DSO601      1 GROUP   
@<TRIPOS>SET

