#    Name: 2EVM_1_CAVITY_N1_ALL.mol2
#    Modification time : Tue Mar 11 11:16:21 2014

@<TRIPOS>MOLECULE
2EVM_1_CAVITY_N1_ALL.mol2
  102     0     5     0     0
SMALL
NO_CHARGES


@<TRIPOS>ATOM
      1 CA         -8.7856   -3.1969    6.9527 C.3       4 GLY6        0.0000 
      2 O          -8.0520   -3.7613    5.0439 O.2       1 ALA2        0.0000 
      3 CA         -7.2312   -1.1152    6.9346 C.3       4 GLY6        0.0000 
      4 CZ         -7.6735   -1.8551    8.1621 C.ar      3 PHE5        0.0000 
      5 CA         -6.9399   -2.4194    6.2534 C.3       4 GLY6        0.0000 
      6 CZ         -7.3821   -3.1594    7.4809 C.ar      3 PHE5        0.0000 
      7 N          -6.2063   -2.9838    4.3446 N.2       1 ALA2        0.0000 
      8 CA         -6.6486   -3.7237    5.5721 C.3       4 GLY6        0.0000 
      9 DU         -7.0908   -4.4636    6.7997 H         5 CUB7        0.0000 
     10 CZ         -7.5331   -5.2036    8.0273 C.ar      3 PHE5        0.0000 
     11 CZ         -6.5614   -0.5133    9.3716 C.ar      3 PHE5        0.0000 
     12 CZ         -7.0036   -1.2532   10.5991 C.ar      3 PHE5        0.0000 
     13 CZ         -5.8278   -1.0776    7.4628 C.ar      3 PHE5        0.0000 
     14 CZ         -6.2701   -1.8176    8.6904 C.ar      3 PHE5        0.0000 
     15 CZ         -5.0942   -1.6419    5.5540 C.ar      3 PHE5        0.0000 
     16 CZ         -5.5365   -2.3819    6.7816 C.ar      3 PHE5        0.0000 
     17 CZ         -5.9787   -3.1218    8.0092 C.ar      3 PHE5        0.0000 
     18 CZ         -6.4210   -3.8618    9.2367 C.ar      3 PHE5        0.0000 
     19 CA         -4.8029   -2.9462    4.8728 C.3       4 GLY6        0.0000 
     20 DU         -5.2452   -3.6861    6.1004 H         5 CUB7        0.0000 
     21 DU         -5.6874   -4.4261    7.3279 H         5 CUB7        0.0000 
     22 CZ         -5.8384   -6.4703    7.8743 C.ar      3 PHE5        0.0000 
     23 CZ         -5.4493    0.8285   10.5811 C.ar      3 PHE5        0.0000 
     24 CZ         -5.8916    0.0886   11.8086 C.ar      3 PHE5        0.0000 
     25 CZ         -4.7157    0.2642    8.6723 C.ar      3 PHE5        0.0000 
     26 DU         -5.1580   -0.4757    9.8998 H         5 CUB7        0.0000 
     27 CZ         -5.6002   -1.2157   11.1274 C.ar      3 PHE5        0.0000 
     28 CZ         -3.9821   -0.3001    6.7635 C.ar      3 PHE5        0.0000 
     29 CZ         -4.4244   -1.0401    7.9911 C.ar      3 PHE5        0.0000 
     30 N          -4.8667   -1.7800    9.2186 N.2       1 ALA2        0.0000 
     31 N          -5.3089   -2.5199   10.4462 N.2       1 ALA2        0.0000 
     32 CZ         -3.6908   -1.6044    6.0823 C.ar      3 PHE5        0.0000 
     33 N          -4.1331   -2.3443    7.3098 N.2       1 ALA2        0.0000 
     34 N          -4.5753   -3.0843    8.5374 N.2       1 ALA2        0.0000 
     35 O          -2.9573   -2.1687    4.1735 O.2       1 ALA2        0.0000 
     36 N          -3.3995   -2.9086    5.4011 N.2       1 ALA2        0.0000 
     37 DU         -3.8418   -3.6486    6.6286 H         5 CUB7        0.0000 
     38 DU         -3.1082   -4.2129    4.7199 H         5 CUB7        0.0000 
     39 DU         -3.5504   -4.9528    5.9474 H         5 CUB7        0.0000 
     40 CZ         -3.9927   -5.6928    7.1750 C.ar      3 PHE5        0.0000 
     41 DU         -1.9324   -4.0373    1.5835 H         5 CUB7        0.0000 
     42 CZ         -3.7014   -6.9970    6.4938 C.ar      3 PHE5        0.0000 
     43 CA         -3.6036    1.6060    9.8817 C.3       4 GLY6        0.0000 
     44 CA         -4.0459    0.8661   11.1093 C.3       4 GLY6        0.0000 
     45 CZ         -3.3123    0.3018    9.2005 C.ar      3 PHE5        0.0000 
     46 CA         -3.7546   -0.4382   10.4281 C.3       4 GLY6        0.0000 
     47 CA         -4.1968   -1.1781   11.6556 C.3       4 GLY6        0.0000 
     48 N          -3.0210   -1.0025    8.5193 N.2       1 ALA2        0.0000 
     49 N          -3.4633   -1.7424    9.7469 N.2       1 ALA2        0.0000 
     50 N          -2.7297   -2.3068    7.8381 N.2       1 ALA2        0.0000 
     51 N          -1.9961   -2.8711    5.9293 N.2       1 ALA2        0.0000 
     52 N          -2.4384   -3.6110    7.1569 N.2       1 ALA2        0.0000 
     53 CA         -1.2625   -3.4354    4.0206 C.3       4 GLY6        0.0000 
     54 N          -1.7048   -4.1753    5.2481 N.2       1 ALA2        0.0000 
     55 CZ         -2.1470   -4.9153    6.4757 C.ar      3 PHE5        0.0000 
     56 CZ         -2.5893   -5.6552    7.7032 C.ar      3 PHE5        0.0000 
     57 DU         -0.9712   -4.7396    3.3393 H         5 CUB7        0.0000 
     58 DU         -1.4135   -5.4796    4.5669 H         5 CUB7        0.0000 
     59 CZ         -1.8557   -6.2195    5.7945 C.ar      3 PHE5        0.0000 
     60 CA         -0.6799   -6.0439    2.6581 C.3       4 GLY6        0.0000 
     61 CA         -1.1221   -6.7838    3.8857 C.3       4 GLY6        0.0000 
     62 N          -1.5644   -7.5238    5.1132 N.2       1 ALA2        0.0000 
     63 CA         -0.3886   -7.3481    1.9769 C.3       4 GLY6        0.0000 
     64 N          -0.8308   -8.0881    3.2045 N.2       1 ALA2        0.0000 
     65 CA         -2.2002    1.6436   10.4100 C.3       4 GLY6        0.0000 
     66 CA         -2.6425    0.9036   11.6375 C.3       4 GLY6        0.0000 
     67 CZ         -1.9089    0.3393    9.7288 C.ar      3 PHE5        0.0000 
     68 CA         -2.3512   -0.4006   10.9563 C.3       4 GLY6        0.0000 
     69 N          -1.1753   -0.2250    7.8200 N.2       1 ALA2        0.0000 
     70 N          -1.6176   -0.9649    9.0476 N.2       1 ALA2        0.0000 
     71 N          -2.0599   -1.7049   10.2751 N.2       1 ALA2        0.0000 
     72 N          -1.3263   -2.2692    8.3663 N.2       1 ALA2        0.0000 
     73 N          -0.5927   -2.8335    6.4576 N.2       1 ALA2        0.0000 
     74 N          -1.0350   -3.5734    7.6851 N.2       1 ALA2        0.0000 
     75 CA          0.1409   -3.3978    4.5488 C.3       4 GLY6        0.0000 
     76 N          -0.3014   -4.1378    5.7764 N.2       1 ALA2        0.0000 
     77 CZ         -0.7436   -4.8777    7.0039 C.ar      3 PHE5        0.0000 
     78 N           0.4322   -4.7021    3.8676 N.2       1 ALA2        0.0000 
     79 N          -0.0101   -5.4420    5.0951 N.2       1 ALA2        0.0000 
     80 CZ         -0.4523   -6.1820    6.3227 C.ar      3 PHE5        0.0000 
     81 O           0.2813   -6.7463    4.4139 O.2       1 ALA2        0.0000 
     82 CA         -0.7968    1.6811   10.9382 C.3       4 GLY6        0.0000 
     83 CA         -1.2391    0.9412   12.1658 C.3       4 GLY6        0.0000 
     84 NZ         -0.5055    0.3769   10.2570 N.2       2 LYS4        0.0000 
     85 NZ         -0.9478   -0.3631   11.4846 N.2       2 LYS4        0.0000 
     86 CA         -1.3900   -1.1030   12.7121 C.3       4 GLY6        0.0000 
     87 NZ         -0.2142   -0.9274    9.5758 N.2       2 LYS4        0.0000 
     88 NZ         -0.6564   -1.6673   10.8034 N.2       2 LYS4        0.0000 
     89 CA         -1.0987   -2.4073   12.0309 C.3       4 GLY6        0.0000 
     90 NZ          0.0771   -2.2316    8.8946 N.2       2 LYS4        0.0000 
     91 N          -0.3651   -2.9716   10.1222 N.2       1 ALA2        0.0000 
     92 N          -0.8074   -3.7115   11.3497 N.2       1 ALA2        0.0000 
     93 NZ          0.8107   -2.7959    6.9858 N.2       2 LYS4        0.0000 
     94 NZ          0.3684   -3.5359    8.2134 N.2       2 LYS4        0.0000 
     95 CA         -0.0738   -4.2758    9.4409 C.3       4 GLY6        0.0000 
     96 N           0.6598   -4.8401    7.5322 N.2       1 ALA2        0.0000 
     97 CA         -0.4289   -1.8054   14.4679 C.3       4 GLY6        0.0000 
     98 NZ          0.3047   -2.3697   12.5592 N.2       2 LYS4        0.0000 
     99 CA         -0.1376   -3.1096   13.7867 C.3       4 GLY6        0.0000 
    100 NZ          1.0383   -2.9340   10.6504 N.2       2 LYS4        0.0000 
    101 N           0.5960   -3.6740   11.8780 N.2       1 ALA2        0.0000 
    102 CA          1.3296   -4.2383    9.9692 C.3       4 GLY6        0.0000 
@<TRIPOS>BOND
@<TRIPOS>SUBSTRUCTURE
     1 ALA2        2 GROUP   
     2 LYS4       84 GROUP   
     3 PHE5        4 GROUP   
     4 GLY6        1 GROUP   
     5 CUB7        9 GROUP   
@<TRIPOS>SET

