#    Name: 2evm_FC2_1_INTS_M
#    Modification time : Tue Mar 25 12:06:40 2014

@<TRIPOS>MOLECULE
2evm_FC2_1_INTS_M
   36     0     9     0     0
SMALL
NO_CHARGES


@<TRIPOS>ATOM
      1 N          -1.2850   -0.5605    6.7730 N.am      1 SEC2        0.0000 
      2 N          -1.7070   -0.8130    8.3700 N.am      7 SEL2        0.0000 
      3 N          -0.8630   -0.3080    5.1760 N.am      4 SEP2        0.0000 
      4 Zn          1.9310   -0.3155    7.3015 Zn        2 ZIC7        0.0000 
      5 Zn          0.8520   -0.6230    7.2880 Zn        8 ZIL7        0.0000 
      6 Zn          3.0100   -0.0080    7.3150 Zn        5 ZIP7        0.0000 
      7 N          -0.0055   -0.4655    6.2320 N.am      1 SEC2        0.0000 
      8 N           0.8520   -0.6230    7.2880 N.am      7 SEL2        0.0000 
      9 Zn          2.0705    0.4850    9.9105 Zn        2 ZIC7        0.0000 
     10 Zn          1.7290   -0.2460    9.2360 Zn        8 ZIL7        0.0000 
     11 Zn          2.4120    1.2160   10.5850 Zn        5 ZIP7        0.0000 
     12 Zn          2.3695   -0.1270    8.2755 Zn        2 ZIC7        0.0000 
     13 CA         -7.7025    0.3275    9.9065 C.3       3 GLC5        0.0000 
     14 CA         -6.5990   -0.9010    8.4890 C.3       9 GLL5        0.0000 
     15 CA         -8.8060    1.5560   11.3240 C.3       6 GLP5        0.0000 
     16 CA         -5.0020    2.4595   10.9975 C.3       3 GLC5        0.0000 
     17 CA         -5.3810    0.4410   10.4970 C.3       9 GLL5        0.0000 
     18 CA         -4.6230    4.4780   11.4980 C.3       6 GLP5        0.0000 
     19 CA         -6.7190    0.8495   11.5470 C.3       3 GLC5        0.0000 
     20 CA         -8.0570    1.2580   12.5970 C.3       6 GLP5        0.0000 
     21 CA         -4.4310    0.2815   12.2325 C.3       3 GLC5        0.0000 
     22 CA         -3.4810    0.1220   13.9680 C.3       6 GLP5        0.0000 
     23 CA         -5.3050   -1.1210    5.2310 C.3       3 GLC5        0.0000 
     24 CA         -5.4010   -3.2710    5.4330 C.3       9 GLL5        0.0000 
     25 CA         -5.2090    1.0290    5.0290 C.3       6 GLP5        0.0000 
     26 CA         -2.5953   -0.2072   12.2060 C.3       3 GLC5        0.0000 
     27 CA         -2.4190   -0.6300   10.4580 C.3       9 GLL5        0.0000 
     28 CA         -2.5537   -2.1593   11.1670 C.3       3 GLC5        0.0000 
     29 CA         -3.3980   -3.7820   11.8900 C.3       6 GLP5        0.0000 
     30 CA         -3.4370   -2.3840   10.3820 C.3       3 GLC5        0.0000 
     31 CA         -2.8070   -0.8550    9.1550 C.3       9 GLL5        0.0000 
     32 CA         -8.1485   -1.0537    6.9440 C.3       3 GLC5        0.0000 
     33 CA         -9.6890   -0.7850    5.9750 C.3       6 GLP5        0.0000 
     34 CA         -6.6380   -1.7580    5.1233 C.3       3 GLC5        0.0000 
     35 CA         -5.4070   -2.2650    6.8180 C.3       9 GLL5        0.0000 
     36 CA         -7.8720   -0.7480    4.1210 C.3       6 GLP5        0.0000 
@<TRIPOS>BOND
@<TRIPOS>SUBSTRUCTURE
     1 SEC2        1 GROUP        1 X    SEC  0     ROOT SEC X 2
     2 ZIC7        4 GROUP        1 X    ZIC  0     **** ZIC X 5
     3 GLC5       13 GROUP        1 X    GLC  0     **** GLC X 6
     4 SEP2        3 GROUP        1 Y    SEP  0     ROOT SEP Y 9
     5 ZIP7        6 GROUP        1 Y    ZIP  0     **** ZIP Y 12
     6 GLP5       15 GROUP        1 Y    GLP  0     **** GLP Y 13
     7 SEL2        2 GROUP        1 Z    SEL  0     ROOT SEL Z 16
     8 ZIL7        5 GROUP        1 Z    ZIL  0     **** ZIL Z 19
     9 GLL5       14 GROUP        1 Z    GLL  0     **** GLL Z 20
@<TRIPOS>SET

