#    Name: 2evm_FC2_1_ligand
#    Modification time : Tue Mar 25 12:06:40 2014

@<TRIPOS>MOLECULE
2evm_FC2_1_ligand
   21    22     1     0     0
SMALL
NO_CHARGES


@<TRIPOS>ATOM
      1 OA         -1.7070   -0.8130    8.3700 O.3       1 FC2999      0.0000 
      2 CA         -0.6130   -0.5690    9.1090 C.2       1 FC2999      0.0000 
      3 C           0.7290   -0.4710    8.5280 C.2       1 FC2999      0.0000 
      4 OB          0.8520   -0.6230    7.2880 O.co2     1 FC2999      0.0000 
      5 CB         -1.0000   -0.4430   10.4300 C.2       1 FC2999      0.0000 
      6 CG         -2.4190   -0.6300   10.4580 C.2       1 FC2999      0.0000 
      7 CD         -2.8070   -0.8550    9.1550 C.2       1 FC2999      0.0000 
      8 OXT         1.7290   -0.2460    9.2360 O.co2     1 FC2999      0.0000 
      9 C1         -4.1450   -1.1170    8.5930 C.ar      1 FC2999      0.0000 
     10 C2         -5.3680   -0.5780    9.1260 C.ar      1 FC2999      0.0000 
     11 C3         -6.5990   -0.9010    8.4890 C.ar      1 FC2999      0.0000 
     12 C4         -6.6170   -1.7440    7.3370 C.ar      1 FC2999      0.0000 
     13 C5         -5.4070   -2.2650    6.8180 C.ar      1 FC2999      0.0000 
     14 C6         -4.1820   -1.9550    7.4420 C.ar      1 FC2999      0.0000 
     15 CL1        -5.3810    0.4410   10.4970 Cl        1 FC2999      0.0000 
     16 CL2        -5.4010   -3.2710    5.4330 Cl        1 FC2999      0.0000 
     17 H          -0.4672   -0.2711   11.1739 H         1 FC2999      0.0000 
     18 H          -2.9478   -0.5995   11.2237 H         1 FC2999      0.0000 
     19 H          -7.4744   -0.5290    8.8561 H         1 FC2999      0.0000 
     20 H          -7.5053   -1.9683    6.8909 H         1 FC2999      0.0000 
     21 H          -3.3061   -2.3329    7.0691 H         1 FC2999      0.0000 
@<TRIPOS>BOND
     1    2    1 1    
     2    7    1 1    
     3    3    2 1    
     4    5    2 2    
     5    4    3 ar   
     6    8    3 ar   
     7    6    5 1    
     8   17    5 1    
     9    7    6 2    
    10   18    6 1    
    11    9    7 1    
    12   10    9 ar   
    13   14    9 ar   
    14   11   10 ar   
    15   15   10 1    
    16   12   11 ar   
    17   19   11 1    
    18   13   12 ar   
    19   20   12 1    
    20   14   13 ar   
    21   16   13 1    
    22   21   14 1    
@<TRIPOS>SUBSTRUCTURE
     1 FC2999      1 GROUP   
@<TRIPOS>SET

