#    Name: 3pi5_3P5_3_INTS_M
#    Modification time : Tue Mar 25 06:38:38 2014

@<TRIPOS>MOLECULE
3pi5_3P5_3_INTS_M
   61     0     9     0     0
SMALL
NO_CHARGES


@<TRIPOS>ATOM
      1 CA          1.5255  -40.2220   48.0965 C.3       3 GLC5        0.0000 
      2 CA          2.9900  -40.7220   47.2040 C.3       9 GLL5        0.0000 
      3 CA          0.0610  -39.7220   48.9890 C.3       6 GLP5        0.0000 
      4 CA          1.6870  -42.2815   47.3340 C.3       3 GLC5        0.0000 
      5 CA          0.3840  -43.8410   47.4640 C.3       6 GLP5        0.0000 
      6 CA          7.5910  -42.5830   45.3035 C.3       3 GLC5        0.0000 
      7 CA          7.5470  -43.6300   47.2570 C.3       9 GLL5        0.0000 
      8 CA          7.6350  -41.5360   43.3500 C.3       6 GLP5        0.0000 
      9 CA         11.6420  -40.3905   50.1390 C.3       3 GLC5        0.0000 
     10 CA         11.1280  -40.9710   48.0640 C.3       9 GLL5        0.0000 
     11 CA         12.1560  -39.8100   52.2140 C.3       6 GLP5        0.0000 
     12 CA         10.6235  -39.3985   46.5415 C.3       3 GLC5        0.0000 
     13 CA         10.1190  -37.8260   45.0190 C.3       6 GLP5        0.0000 
     14 N          10.6745  -41.8220   51.5340 N.am      2 SEC2        0.0000 
     15 N           9.8780  -41.5190   50.3360 N.am      8 SEL2        0.0000 
     16 N          11.4710  -42.1250   52.7320 N.am      5 SEP2        0.0000 
     17 N           9.6760  -41.0765   51.9910 N.am      2 SEC2        0.0000 
     18 N           9.4740  -40.6340   53.6460 N.am      5 SEP2        0.0000 
     19 CA         15.2830  -43.7695   47.0890 C.3       3 GLC5        0.0000 
     20 CA         13.7270  -42.6490   47.6340 C.3       9 GLL5        0.0000 
     21 CA         16.8390  -44.8900   46.5440 C.3       6 GLP5        0.0000 
     22 CA         15.0415  -41.8370   46.1025 C.3       3 GLC5        0.0000 
     23 CA         16.3560  -41.0250   44.5710 C.3       6 GLP5        0.0000 
     24 CA         13.0875  -42.2445   52.2915 C.3       3 GLC5        0.0000 
     25 CA         14.3340  -43.6500   51.2770 C.3       9 GLL5        0.0000 
     26 CA         11.8410  -40.8390   53.3060 C.3       6 GLP5        0.0000 
     27 CA         13.1610  -41.3535   51.1620 C.3       3 GLC5        0.0000 
     28 CA         14.1660  -42.8970   50.1100 C.3       9 GLL5        0.0000 
     29 CA         11.7155  -46.5350   50.0720 C.3       3 GLC5        0.0000 
     30 CA         13.8470  -47.2340   50.1090 C.3       9 GLL5        0.0000 
     31 CA          9.5840  -45.8360   50.0350 C.3       6 GLP5        0.0000 
     32 CA         15.4800  -48.0850   47.1045 C.3       3 GLC5        0.0000 
     33 CA         14.3330  -47.8880   48.8210 C.3       9 GLL5        0.0000 
     34 CA         16.6270  -48.2820   45.3880 C.3       6 GLP5        0.0000 
     35 CA         11.0275  -47.3865   49.2395 C.3       3 GLC5        0.0000 
     36 CA         12.8380  -47.7620   49.0930 C.3       9 GLL5        0.0000 
     37 CA          9.2170  -47.0110   49.3860 C.3       6 GLP5        0.0000 
     38 O           9.8045  -44.2920   45.2895 O.2       1 ALC1        0.0000 
     39 O          10.2550  -44.4460   46.9310 O.2       7 ALL1        0.0000 
     40 O           9.3540  -44.1380   43.6480 O.2       4 ALP1        0.0000 
     41 O           9.6820  -45.1095   46.0205 O.2       1 ALC1        0.0000 
     42 O           9.1090  -45.7730   45.1100 O.2       4 ALP1        0.0000 
     43 O           1.9710  -43.0005   50.7360 O.2       1 ALC1        0.0000 
     44 O           2.5920  -42.2860   49.8070 O.2       7 ALL1        0.0000 
     45 O           1.3500  -43.7150   51.6650 O.2       4 ALP1        0.0000 
     46 CA          3.6760  -42.8637   46.3028 C.3       3 GLC5        0.0000 
     47 CA          4.1500  -41.9870   47.9690 C.3       9 GLL5        0.0000 
     48 CA          3.7820  -44.3730   45.0190 C.3       6 GLP5        0.0000 
     49 CA          5.2260  -43.7911   46.2314 C.3       3 GLC5        0.0000 
     50 CA          6.2140  -43.2730   47.9120 C.3       9 GLL5        0.0000 
     51 CA          8.8562  -44.5430   48.8222 C.3       3 GLC5        0.0000 
     52 CA          6.4922  -45.4163   47.2082 C.3       3 GLC5        0.0000 
     53 CA          6.1990  -47.2190   46.5370 C.3       6 GLP5        0.0000 
     54 CA         10.1082  -44.3057   48.7657 C.3       3 GLC5        0.0000 
     55 CA         10.0180  -43.0620   47.1480 C.3       9 GLL5        0.0000 
     56 CA         12.4734  -44.4758   51.8996 C.3       3 GLC5        0.0000 
     57 CA         10.7360  -44.4420   52.8400 C.3       6 GLP5        0.0000 
     58 CA         11.9853  -48.5870   50.6955 C.3       3 GLC5        0.0000 
     59 CA         10.6280  -49.6760   51.7900 C.3       6 GLP5        0.0000 
     60 CA         12.3762  -47.8725   47.5825 C.3       3 GLC5        0.0000 
     61 CA         11.1670  -47.9200   46.2080 C.3       6 GLP5        0.0000 
@<TRIPOS>BOND
@<TRIPOS>SUBSTRUCTURE
     1 ALC1       38 GROUP        1 X    ALC  0     ROOT ALC X 1
     2 SEC2       14 GROUP        1 X    SEC  0     **** SEC X 2
     3 GLC5        1 GROUP        1 X    GLC  0     **** GLC X 6
     4 ALP1       40 GROUP        1 Y    ALP  0     ROOT ALP Y 8
     5 SEP2       16 GROUP        1 Y    SEP  0     **** SEP Y 9
     6 GLP5        3 GROUP        1 Y    GLP  0     **** GLP Y 13
     7 ALL1       39 GROUP        1 Z    ALL  0     ROOT ALL Z 15
     8 SEL2       15 GROUP        1 Z    SEL  0     **** SEL Z 16
     9 GLL5        2 GROUP        1 Z    GLL  0     **** GLL Z 20
@<TRIPOS>SET

