#    Name: 3pi5_3P5_3_ligand
#    Modification time : Tue Mar 25 06:38:38 2014

@<TRIPOS>MOLECULE
3pi5_3P5_3_ligand
   54    57     1     0     0
SMALL
NO_CHARGES


@<TRIPOS>ATOM
      1 BR1         2.9900  -40.7220   47.2040 Br        1 3P5387      0.0000 
      2 C2          4.1500  -41.9870   47.9690 C.ar      1 3P5387      0.0000 
      3 C3          3.7850  -42.6200   49.1650 C.ar      1 3P5387      0.0000 
      4 C4          4.6220  -43.5880   49.7100 C.ar      1 3P5387      0.0000 
      5 C6          5.8340  -43.9210   49.0920 C.ar      1 3P5387      0.0000 
      6 C8          6.2140  -43.2730   47.9120 C.ar      1 3P5387      0.0000 
      7 C9          5.3720  -42.3040   47.3490 C.ar      1 3P5387      0.0000 
      8 C11         7.5470  -43.6300   47.2570 C.3       1 3P5387      0.0000 
      9 C14         8.7100  -42.8700   47.9620 C.3       1 3P5387      0.0000 
     10 C16        10.0180  -43.0620   47.1480 C.3       1 3P5387      0.0000 
     11 C18        11.2470  -42.4890   47.8450 C.3       1 3P5387      0.0000 
     12 C20        11.1280  -40.9710   48.0640 C.3       1 3P5387      0.0000 
     13 S23         9.7330  -40.6830   49.1430 S.o2      1 3P5387      0.0000 
     14 C24         8.3880  -41.3830   48.1170 C.3       1 3P5387      0.0000 
     15 O27         9.5340  -39.2890   49.2930 O.2       1 3P5387      0.0000 
     16 O28         9.8780  -41.5190   50.3360 O.2       1 3P5387      0.0000 
     17 N29        12.4160  -42.8010   46.9770 N.3       1 3P5387      0.0000 
     18 C31        13.7270  -42.6490   47.6340 C.3       1 3P5387      0.0000 
     19 C34        13.8980  -43.5340   48.8940 C.ar      1 3P5387      0.0000 
     20 C35        13.7920  -44.9440   48.8480 C.ar      1 3P5387      0.0000 
     21 C37        13.9530  -45.6960   50.0370 C.ar      1 3P5387      0.0000 
     22 C38        14.2220  -45.0420   51.2460 C.ar      1 3P5387      0.0000 
     23 C40        14.3340  -43.6500   51.2770 C.ar      1 3P5387      0.0000 
     24 C42        14.1660  -42.8970   50.1100 C.ar      1 3P5387      0.0000 
     25 C44        13.8470  -47.2340   50.1090 C.3       1 3P5387      0.0000 
     26 C46        14.3330  -47.8880   48.8210 C.3       1 3P5387      0.0000 
     27 C49        12.8380  -47.7620   49.0930 C.3       1 3P5387      0.0000 
     28 O52        10.2550  -44.4460   46.9310 O.3       1 3P5387      0.0000 
     29 O54         2.5920  -42.2860   49.8070 O.3       1 3P5387      0.0000 
     30 H           4.3500  -44.0701   50.5819 H         1 3P5387      0.0000 
     31 H           6.4396  -44.6368   49.5034 H         1 3P5387      0.0000 
     32 H           5.6449  -41.8254   46.4858 H         1 3P5387      0.0000 
     33 H           7.5310  -43.3448   46.2130 H         1 3P5387      0.0000 
     34 H           7.7261  -44.6938   47.3453 H         1 3P5387      0.0000 
     35 H           8.8548  -43.3078   48.9362 H         1 3P5387      0.0000 
     36 H           9.8978  -42.5456   46.2003 H         1 3P5387      0.0000 
     37 H          11.3648  -42.9769   48.7923 H         1 3P5387      0.0000 
     38 H          10.8707  -40.4451   47.1900 H         1 3P5387      0.0000 
     39 H          11.9368  -40.5650   48.6003 H         1 3P5387      0.0000 
     40 H           7.5447  -41.1881   48.6992 H         1 3P5387      0.0000 
     41 H           8.4773  -40.8336   47.2348 H         1 3P5387      0.0000 
     42 H          13.8885  -41.5992   47.9390 H         1 3P5387      0.0000 
     43 H          14.5434  -42.9035   46.9341 H         1 3P5387      0.0000 
     44 H          13.6014  -45.4150   47.9671 H         1 3P5387      0.0000 
     45 H          14.3364  -45.5865   52.1074 H         1 3P5387      0.0000 
     46 H          14.5419  -43.1733   52.1657 H         1 3P5387      0.0000 
     47 H          14.2397  -41.8733   50.1465 H         1 3P5387      0.0000 
     48 H          13.9234  -47.7867   50.7986 H         1 3P5387      0.0000 
     49 H          14.5881  -48.7749   49.0282 H         1 3P5387      0.0000 
     50 H          14.5744  -47.1971   48.2218 H         1 3P5387      0.0000 
     51 H          12.5183  -47.0229   48.5977 H         1 3P5387      0.0000 
     52 H          12.5320  -48.6007   49.4041 H         1 3P5387      0.0000 
     53 H           9.6969  -44.6824   46.1356 H         1 3P5387      0.0000 
     54 H           2.4208  -43.0387   50.4428 H         1 3P5387      0.0000 
@<TRIPOS>BOND
     1    2    1 1    
     2    3    2 ar   
     3    7    2 ar   
     4    4    3 ar   
     5   29    3 1    
     6    5    4 ar   
     7   30    4 1    
     8    6    5 ar   
     9   31    5 1    
    10    7    6 ar   
    11    8    6 1    
    12   32    7 1    
    13    9    8 1    
    14   33    8 1    
    15   34    8 1    
    16   10    9 1    
    17   14    9 1    
    18   35    9 1    
    19   11   10 1    
    20   28   10 1    
    21   36   10 1    
    22   12   11 1    
    23   17   11 1    
    24   37   11 1    
    25   13   12 1    
    26   38   12 1    
    27   39   12 1    
    28   14   13 1    
    29   15   13 2    
    30   16   13 2    
    31   40   14 1    
    32   41   14 1    
    33   18   17 1    
    34   19   18 1    
    35   42   18 1    
    36   43   18 1    
    37   20   19 ar   
    38   24   19 ar   
    39   21   20 ar   
    40   44   20 1    
    41   22   21 ar   
    42   25   21 1    
    43   23   22 ar   
    44   45   22 1    
    45   24   23 ar   
    46   46   23 1    
    47   47   24 1    
    48   26   25 1    
    49   27   25 1    
    50   48   25 1    
    51   27   26 1    
    52   49   26 1    
    53   50   26 1    
    54   51   27 1    
    55   52   27 1    
    56   53   28 1    
    57   54   29 1    
@<TRIPOS>SUBSTRUCTURE
     1 3P5387      1 GROUP   
@<TRIPOS>SET

