#    Name: 4E2X_2_CAVITY_N1_6.mol2
#    Modification time : Mon Mar 10 15:53:53 2014

@<TRIPOS>MOLECULE
4E2X_2_CAVITY_N1_6.mol2
  119     0     7     0     0
SMALL
NO_CHARGES


@<TRIPOS>ATOM
      1 CZ        -26.4088    5.3114    7.2313 C.ar      5 PHE5        0.0000 
      2 CA        -27.0895    5.1435    5.9052 C.3       6 GLY6        0.0000 
      3 CA        -25.8996    4.3894    5.3899 C.3       6 GLY6        0.0000 
      4 OD1       -28.1798    8.1052    7.7865 O.3       3 ASP3        0.0000 
      5 CA        -26.9899    7.3512    7.2712 C.3       6 GLY6        0.0000 
      6 CA        -25.7999    6.5972    6.7560 C.3       6 GLY6        0.0000 
      7 CZ        -24.6100    5.8431    6.2407 C.ar      5 PHE5        0.0000 
      8 OD1       -28.8604    7.9373    6.4604 O.3       3 ASP3        0.0000 
      9 OD1       -27.6705    7.1833    5.9451 O.3       3 ASP3        0.0000 
     10 OG        -26.4806    6.4293    5.4299 O.2       1 SER1        0.0000 
     11 OG        -25.2906    5.6752    4.9146 O.2       1 SER1        0.0000 
     12 OG        -28.3511    7.0154    4.6190 O.2       1 SER1        0.0000 
     13 NZ        -27.5709    9.3910    7.3112 N.2       4 LYS4        0.0000 
     14 CA        -26.3809    8.6370    6.7959 C.3       6 GLY6        0.0000 
     15 CA        -25.1910    7.8830    6.2806 C.3       6 GLY6        0.0000 
     16 CA        -24.0011    7.1289    5.7654 C.3       6 GLY6        0.0000 
     17 N         -28.2515    9.2231    5.9851 N.2       2 ALA2        0.0000 
     18 N         -27.0616    8.4691    5.4698 N.2       2 ALA2        0.0000 
     19 OG        -25.8716    7.7150    4.9545 O.2       1 SER1        0.0000 
     20 OG        -24.6817    6.9610    4.4393 O.2       1 SER1        0.0000 
     21 NZ        -23.4918    6.2070    3.9240 N.2       4 LYS4        0.0000 
     22 N         -27.7422    8.3012    4.1437 N.2       2 ALA2        0.0000 
     23 OG        -25.3623    6.7931    3.1132 O.2       1 SER1        0.0000 
     24 CA        -25.7720    9.9228    6.3206 C.3       6 GLY6        0.0000 
     25 CA        -24.5821    9.1687    5.8053 C.3       6 GLY6        0.0000 
     26 CA        -23.3921    8.4147    5.2900 C.3       6 GLY6        0.0000 
     27 CA        -22.2022    7.6607    4.7747 C.3       6 GLY6        0.0000 
     28 CA        -27.6426   10.5089    5.5097 C.3       6 GLY6        0.0000 
     29 N         -26.4526    9.7549    4.9945 N.2       2 ALA2        0.0000 
     30 CA        -25.2627    9.0008    4.4792 C.3       6 GLY6        0.0000 
     31 DU        -24.0728    8.2468    3.9639 H         7 CUB7        0.0000 
     32 NZ        -22.8828    7.4928    3.4486 N.2       4 LYS4        0.0000 
     33 N         -27.1333    9.5870    3.6684 N.2       2 ALA2        0.0000 
     34 OG        -25.9433    8.8329    3.1531 O.2       1 SER1        0.0000 
     35 NZ        -24.7534    8.0789    2.6378 N.2       4 LYS4        0.0000 
     36 OG        -26.6240    8.6650    1.8270 O.2       1 SER1        0.0000 
     37 OG        -25.4340    7.9110    1.3117 O.2       1 SER1        0.0000 
     38 OG        -27.3046    8.4971    0.5009 O.2       1 SER1        0.0000 
     39 CA        -22.7832    9.7005    4.8147 C.3       6 GLY6        0.0000 
     40 CA        -21.5933    8.9465    4.2994 C.3       6 GLY6        0.0000 
     41 N         -25.8437   11.0406    4.5191 N.2       2 ALA2        0.0000 
     42 N         -24.6538   10.2866    4.0038 N.2       2 ALA2        0.0000 
     43 CA        -23.4638    9.5326    3.4886 C.3       6 GLY6        0.0000 
     44 NZ        -22.2739    8.7786    2.9733 N.2       4 LYS4        0.0000 
     45 N         -26.5243   10.8727    3.1930 N.2       2 ALA2        0.0000 
     46 DU        -25.3344   10.1187    2.6777 H         7 CUB7        0.0000 
     47 DU        -24.1445    9.3647    2.1625 H         7 CUB7        0.0000 
     48 NZ        -22.9545    8.6107    1.6472 N.2       4 LYS4        0.0000 
     49 CA        -27.2050   10.7048    1.8669 C.3       6 GLY6        0.0000 
     50 N         -26.0150    9.9508    1.3516 N.2       2 ALA2        0.0000 
     51 OG        -24.8251    9.1968    0.8364 O.2       1 SER1        0.0000 
     52 OG        -23.6352    8.4428    0.3211 O.2       1 SER1        0.0000 
     53 N         -26.6957    9.7829    0.0255 N.2       2 ALA2        0.0000 
     54 OG        -25.5058    9.0289   -0.4897 O.2       1 SER1        0.0000 
     55 CA        -22.1743   10.9863    4.3393 C.3       6 GLY6        0.0000 
     56 N         -22.8549   10.8184    3.0132 N.2       2 ALA2        0.0000 
     57 CA        -21.6650   10.0644    2.4979 C.3       6 GLY6        0.0000 
     58 N         -25.9154   12.1585    2.7177 N.2       2 ALA2        0.0000 
     59 CZ        -24.7255   11.4045    2.2024 C.ar      5 PHE5        0.0000 
     60 CZ        -23.5355   10.6505    1.6871 C.ar      5 PHE5        0.0000 
     61 OD1       -22.3456    9.8965    1.1718 O.3       3 ASP3        0.0000 
     62 CZ        -25.4061   11.2366    0.8763 C.ar      5 PHE5        0.0000 
     63 CZ        -24.2162   10.4826    0.3610 C.ar      5 PHE5        0.0000 
     64 OD1       -23.0263    9.7285   -0.1543 O.3       3 ASP3        0.0000 
     65 CZ        -24.8968   10.3147   -0.9651 C.ar      5 PHE5        0.0000 
     66 N         -21.5653   12.2721    3.8640 N.2       2 ALA2        0.0000 
     67 CA        -20.3754   11.5181    3.3487 C.3       6 GLY6        0.0000 
     68 N         -23.4359   12.8582    3.0531 N.2       2 ALA2        0.0000 
     69 CZ        -22.2460   12.1042    2.5379 C.ar      5 PHE5        0.0000 
     70 CA        -21.0561   11.3502    2.0226 C.3       6 GLY6        0.0000 
     71 OD1       -20.5468   10.4282    0.1812 O.3       3 ASP3        0.0000 
     72 OD1       -20.9564   13.5579    3.3886 O.3       3 ASP3        0.0000 
     73 CZ        -21.6371   13.3900    2.0625 C.ar      5 PHE5        0.0000 
     74 OD1       -20.4471   12.6359    1.5472 O.3       3 ASP3        0.0000 
     75 O         -19.2572   11.8819    1.0320 O.2       2 ALA2        0.0000 
     76 CZ        -21.1278   12.4680    0.2211 C.ar      5 PHE5        0.0000 
     77 O         -19.9378   11.7140   -0.2941 O.2       2 ALA2        0.0000 
     78 CZ        -20.6185   11.5461   -1.6202 C.ar      5 PHE5        0.0000 
     79 OD1       -20.3475   14.8437    2.9133 O.3       3 ASP3        0.0000 
     80 OG        -21.0281   14.6758    1.5872 O.2       1 SER1        0.0000 
     81 OD1       -19.8382   13.9217    1.0719 O.3       3 ASP3        0.0000 
     82 CA        -18.6483   13.1677    0.5566 C.3       6 GLY6        0.0000 
     83 CZ        -21.7088   14.5078    0.2611 C.ar      5 PHE5        0.0000 
     84 CZ        -20.5188   13.7538   -0.2542 C.ar      5 PHE5        0.0000 
     85 CA        -19.3289   12.9998   -0.7695 C.3       6 GLY6        0.0000 
     86 CA        -20.0095   12.8319   -2.0956 C.3       6 GLY6        0.0000 
     87 O         -19.7386   16.1295    2.4379 O.2       2 ALA2        0.0000 
     88 OD1       -18.5486   15.3754    1.9227 O.3       3 ASP3        0.0000 
     89 O         -20.4192   15.9615    1.1118 O.2       2 ALA2        0.0000 
     90 DU        -19.2293   15.2075    0.5966 H         7 CUB7        0.0000 
     91 CZ        -18.0393   14.4535    0.0813 C.ar      5 PHE5        0.0000 
     92 OG        -22.2898   16.5477    0.3010 O.2       1 SER1        0.0000 
     93 CZ        -21.0998   15.7936   -0.2143 C.ar      5 PHE5        0.0000 
     94 DU        -19.9099   15.0396   -0.7295 H         7 CUB7        0.0000 
     95 CA        -18.7200   14.2856   -1.2448 C.3       6 GLY6        0.0000 
     96 CZ        -24.1603   17.1338   -0.5098 C.ar      5 PHE5        0.0000 
     97 CZ        -21.7805   15.6257   -1.5404 C.ar      5 PHE5        0.0000 
     98 CZ        -20.5905   14.8717   -2.0556 C.ar      5 PHE5        0.0000 
     99 NZ        -19.4006   14.1177   -2.5709 N.2       4 LYS4        0.0000 
    100 OG        -21.2712   14.7038   -3.3817 O.2       1 SER1        0.0000 
    101 O         -20.3196   18.1693    2.4779 O.2       2 ALA2        0.0000 
    102 N         -19.1296   17.4152    1.9626 N.2       2 ALA2        0.0000 
    103 N         -17.9397   16.6612    1.4473 N.2       2 ALA2        0.0000 
    104 O         -21.0002   18.0014    1.1518 O.2       2 ALA2        0.0000 
    105 N         -19.8103   17.2473    0.6365 N.2       2 ALA2        0.0000 
    106 N         -18.6203   16.4933    0.1212 N.2       2 ALA2        0.0000 
    107 CA        -21.6808   17.8334   -0.1743 C.3       6 GLY6        0.0000 
    108 DU        -20.4909   17.0794   -0.6896 H         7 CUB7        0.0000 
    109 N         -19.3010   16.3254   -1.2049 N.2       2 ALA2        0.0000 
    110 CZ        -18.1110   15.5714   -1.7202 C.ar      5 PHE5        0.0000 
    111 CA        -22.3615   17.6655   -1.5004 C.3       6 GLY6        0.0000 
    112 N         -21.1715   16.9115   -2.0157 N.2       2 ALA2        0.0000 
    113 NZ        -19.9816   16.1575   -2.5310 N.2       4 LYS4        0.0000 
    114 NZ        -18.7917   15.4035   -3.0463 N.2       4 LYS4        0.0000 
    115 OG        -21.8522   16.7436   -3.3418 O.2       1 SER1        0.0000 
    116 N         -19.2013   18.5331    0.1611 N.2       2 ALA2        0.0000 
    117 N         -19.8820   18.3652   -1.1650 N.2       2 ALA2        0.0000 
    118 N         -18.6920   17.6112   -1.6802 N.2       2 ALA2        0.0000 
    119 N         -20.5626   18.1973   -2.4911 N.2       2 ALA2        0.0000 
@<TRIPOS>BOND
@<TRIPOS>SUBSTRUCTURE
     1 SER1       10 GROUP   
     2 ALA2       17 GROUP   
     3 ASP3        4 GROUP   
     4 LYS4       13 GROUP   
     5 PHE5        1 GROUP   
     6 GLY6        2 GROUP   
     7 CUB7       31 GROUP   
@<TRIPOS>SET

