#    Name: 4e2x_TYD_2_INTS_M
#    Modification time : Mon Apr  7 23:16:05 2014

@<TRIPOS>MOLECULE
4e2x_TYD_2_INTS_M
   59     0    12     0     0
SMALL
NO_CHARGES


@<TRIPOS>ATOM
      1 N         -23.8755   13.8685    1.8340 N.am      2 SEC2        0.0000 
      2 N         -23.2500   13.1700    2.8040 N.am     10 SEL2        0.0000 
      3 N         -24.5010   14.5670    0.8640 N.am      6 SEP2        0.0000 
      4 N         -23.7435   13.0815    4.1290 N.am      2 SEC2        0.0000 
      5 N         -24.2370   12.9930    5.4540 N.am      6 SEP2        0.0000 
      6 NZ        -19.8675   13.2105    4.3650 N.4       3 LYC4        0.0000 
      7 NZ        -21.2060   12.7180    4.2490 N.4      11 LYL4        0.0000 
      8 NZ        -18.5290   13.7030    4.4810 N.4       7 LYP4        0.0000 
      9 N         -21.3775   13.7310    5.2725 N.am      2 SEC2        0.0000 
     10 N         -21.2060   12.7180    4.2490 N.am     10 SEL2        0.0000 
     11 N         -21.5490   14.7440    6.2960 N.am      6 SEP2        0.0000 
     12 N         -18.6380   11.0165   -0.2180 N.am      2 SEC2        0.0000 
     13 N         -19.8590   11.7160   -0.0290 N.am     10 SEL2        0.0000 
     14 N         -17.4170   10.3170   -0.4070 N.am      6 SEP2        0.0000 
     15 NZ        -18.5665   13.1455    3.2445 N.4       3 LYC4        0.0000 
     16 NZ        -18.6040   12.5880    2.0080 N.4      11 LYL4        0.0000 
     17 N         -17.0365   12.2165    1.3780 N.am      2 SEC2        0.0000 
     18 N         -18.6040   12.5880    2.0080 N.am     10 SEL2        0.0000 
     19 N         -15.4690   11.8450    0.7480 N.am      6 SEP2        0.0000 
     20 N         -18.5665   13.1455    3.2445 N.am      2 SEC2        0.0000 
     21 N         -18.5290   13.7030    4.4810 N.am      6 SEP2        0.0000 
     22 CA        -21.8315    9.5555    5.2120 C.3       4 GLC5        0.0000 
     23 CA        -22.5720   10.1610    3.4080 C.3      12 GLL5        0.0000 
     24 CA        -21.0910    8.9500    7.0160 C.3       8 GLP5        0.0000 
     25 CA        -23.1215   11.1315    4.8700 C.3       4 GLC5        0.0000 
     26 CA        -23.6710   12.1020    6.3320 C.3       8 GLP5        0.0000 
     27 CA        -21.5375    7.1705    3.8110 C.3       4 GLC5        0.0000 
     28 CA        -22.5640    8.8040    2.7270 C.3      12 GLL5        0.0000 
     29 CA        -20.5110    5.5370    4.8950 C.3       8 GLP5        0.0000 
     30 N         -22.0610    7.9925   -0.5285 N.am      2 SEC2        0.0000 
     31 N         -22.8590    7.7430    0.5710 N.am     10 SEL2        0.0000 
     32 N         -21.2630    8.2420   -1.6280 N.am      6 SEP2        0.0000 
     33 O         -22.6280    6.5505    1.1160 O.2       1 ALC1        0.0000 
     34 O         -22.8590    7.7430    0.5710 O.2       9 ALL1        0.0000 
     35 O         -22.3970    5.3580    1.6610 O.2       5 ALP1        0.0000 
     36 CA        -22.3410    6.3890    4.1640 C.3       4 GLC5        0.0000 
     37 CA        -24.1710    7.2410    3.4330 C.3      12 GLL5        0.0000 
     38 N         -25.5650    4.2380    3.4170 N.am      2 SEC2        0.0000 
     39 N         -25.1690    5.0220    4.6360 N.am     10 SEL2        0.0000 
     40 N         -25.9610    3.4540    2.1980 N.am      6 SEP2        0.0000 
     41 N         -29.0900    6.6030    7.6580 N.am      2 SEC2        0.0000 
     42 N         -27.8260    7.2230    7.5340 N.am     10 SEL2        0.0000 
     43 N         -30.3540    5.9830    7.7820 N.am      6 SEP2        0.0000 
     44 CA        -27.9230   11.4700    5.7280 C.3       4 GLC5        0.0000 
     45 CA        -27.0560    9.8230    6.6020 C.3      12 GLL5        0.0000 
     46 CA        -28.7900   13.1170    4.8540 C.3       8 GLP5        0.0000 
     47 CA        -28.2810   10.1055    8.2510 C.3       4 GLC5        0.0000 
     48 CA        -29.5060   10.3880    9.9000 C.3       8 GLP5        0.0000 
     49 CA        -24.6310   10.2885    5.6735 C.3       4 GLC5        0.0000 
     50 CA        -25.5910    8.4750    5.0150 C.3      12 GLL5        0.0000 
     51 CA        -24.6970    8.0585    6.9765 C.3       4 GLC5        0.0000 
     52 CA        -23.8030    7.6420    8.9380 C.3       8 GLP5        0.0000 
     53 CA        -20.7010    9.5452    3.5387 C.3       4 GLC5        0.0000 
     54 CA        -18.8340    9.6080    4.0100 C.3       8 GLP5        0.0000 
     55 CA        -25.6022   10.6645    6.8950 C.3       4 GLC5        0.0000 
     56 CA        -26.5270    8.5190    6.0500 C.3      12 GLL5        0.0000 
     57 CA        -24.4130   12.1580    7.4640 C.3       8 GLP5        0.0000 
     58 CA        -25.9937    8.2890    7.9480 C.3       4 GLC5        0.0000 
     59 CA        -25.1960    7.4070    9.5700 C.3       8 GLP5        0.0000 
@<TRIPOS>BOND
@<TRIPOS>SUBSTRUCTURE
     1 ALC1       33 GROUP        1 X    ALC  0     ROOT ALC X 1
     2 SEC2        1 GROUP        1 X    SEC  0     **** SEC X 2
     3 LYC4        6 GROUP        1 X    LYC  0     **** LYC X 4
     4 GLC5       22 GROUP        1 X    GLC  0     **** GLC X 6
     5 ALP1       35 GROUP        1 Y    ALP  0     ROOT ALP Y 8
     6 SEP2        3 GROUP        1 Y    SEP  0     **** SEP Y 9
     7 LYP4        8 GROUP        1 Y    LYP  0     **** LYP Y 11
     8 GLP5       24 GROUP        1 Y    GLP  0     **** GLP Y 13
     9 ALL1       34 GROUP        1 Z    ALL  0     ROOT ALL Z 15
    10 SEL2        2 GROUP        1 Z    SEL  0     **** SEL Z 16
    11 LYL4        7 GROUP        1 Z    LYL  0     **** LYL Z 18
    12 GLL5       23 GROUP        1 Z    GLL  0     **** GLL Z 20
@<TRIPOS>SET

