#    Name: 4e2x_TYD_2_ligand
#    Modification time : Mon Apr  7 23:16:06 2014

@<TRIPOS>MOLECULE
4e2x_TYD_2_ligand
   38    39     1     0     0
SMALL
NO_CHARGES


@<TRIPOS>ATOM
      1 PA        -21.8700   12.5960    2.9020 P.3       1 TYD507      0.0000 
      2 O1A       -23.2500   13.1700    2.8040 O.co2     1 TYD507      0.0000 
      3 O2A       -21.2060   12.7180    4.2490 O.co2     1 TYD507      0.0000 
      4 O3A       -21.0880   13.2450    1.6490 O.3       1 TYD507      0.0000 
      5 PB        -19.6710   12.8150    0.9780 P.3       1 TYD507      0.0000 
      6 O1B       -19.8590   11.7160   -0.0290 O.co2     1 TYD507      0.0000 
      7 O2B       -18.6040   12.5880    2.0080 O.co2     1 TYD507      0.0000 
      8 O3B       -19.3890   14.1800    0.3640 O.co2     1 TYD507      0.0000 
      9 O5'       -21.9270   11.0490    2.5160 O.3       1 TYD507      0.0000 
     10 C5'       -22.5720   10.1610    3.4080 C.3       1 TYD507      0.0000 
     11 C4'       -22.5640    8.8040    2.7270 C.3       1 TYD507      0.0000 
     12 O4'       -23.0030    7.9840    3.7830 O.3       1 TYD507      0.0000 
     13 C3'       -23.4800    8.6100    1.5270 C.3       1 TYD507      0.0000 
     14 O3'       -22.8590    7.7430    0.5710 O.3       1 TYD507      0.0000 
     15 C2'       -24.6790    7.9310    2.1620 C.3       1 TYD507      0.0000 
     16 C1'       -24.1710    7.2410    3.4330 C.3       1 TYD507      0.0000 
     17 N1        -25.1270    7.2980    4.5550 N.am      1 TYD507      0.0000 
     18 C2        -25.6040    6.0960    5.0950 C.2       1 TYD507      0.0000 
     19 O2        -25.1690    5.0220    4.6360 O.2       1 TYD507      0.0000 
     20 N3        -26.4920    6.0880    6.0970 N.am      1 TYD507      0.0000 
     21 C4        -27.0120    7.2200    6.5780 C.2       1 TYD507      0.0000 
     22 O4        -27.8260    7.2230    7.5340 O.2       1 TYD507      0.0000 
     23 C5        -26.5270    8.5190    6.0500 C.2       1 TYD507      0.0000 
     24 C5M       -27.0560    9.8230    6.6020 C.3       1 TYD507      0.0000 
     25 C6        -25.5910    8.4750    5.0150 C.2       1 TYD507      0.0000 
     26 H         -23.6032   10.4390    3.5929 H         1 TYD507      0.0000 
     27 H         -22.0448   10.0680    4.3505 H         1 TYD507      0.0000 
     28 H         -21.5513    8.5568    2.4748 H         1 TYD507      0.0000 
     29 H         -23.7633    9.5414    1.1591 H         1 TYD507      0.0000 
     30 H         -25.0790    7.1941    1.4938 H         1 TYD507      0.0000 
     31 H         -25.4169    8.6627    2.4260 H         1 TYD507      0.0000 
     32 H         -23.9134    6.2369    3.1880 H         1 TYD507      0.0000 
     33 H         -26.7871    5.1641    6.5157 H         1 TYD507      0.0000 
     34 H         -25.2619    9.3747    4.6090 H         1 TYD507      0.0000 
     35 H         -26.8715    9.9141    7.5806 H         1 TYD507      0.0000 
     36 H         -26.6410   10.6130    6.1506 H         1 TYD507      0.0000 
     37 H         -28.0455    9.9031    6.4816 H         1 TYD507      0.0000 
     38 H         -22.7106    6.8832    1.0596 H         1 TYD507      0.0000 
@<TRIPOS>BOND
     1    2    1 ar   
     2    3    1 ar   
     3    4    1 1    
     4    9    1 1    
     5    5    4 1    
     6    6    5 ar   
     7    7    5 ar   
     8    8    5 ar   
     9   10    9 1    
    10   11   10 1    
    11   26   10 1    
    12   27   10 1    
    13   12   11 1    
    14   13   11 1    
    15   28   11 1    
    16   16   12 1    
    17   14   13 1    
    18   15   13 1    
    19   29   13 1    
    20   38   14 1    
    21   16   15 1    
    22   30   15 1    
    23   31   15 1    
    24   17   16 1    
    25   32   16 1    
    26   18   17 1    
    27   25   17 1    
    28   19   18 2    
    29   20   18 1    
    30   21   20 1    
    31   33   20 1    
    32   22   21 2    
    33   23   21 1    
    34   24   23 1    
    35   25   23 2    
    36   35   24 1    
    37   36   24 1    
    38   37   24 1    
    39   34   25 1    
@<TRIPOS>SUBSTRUCTURE
     1 TYD507      1 GROUP   
@<TRIPOS>SET

