#    Name: 3nsh_957_3_INTS_M
#    Modification time : Tue Mar 25 02:05:31 2014

@<TRIPOS>MOLECULE
3nsh_957_3_INTS_M
   73     0    12     0     0
SMALL
NO_CHARGES


@<TRIPOS>ATOM
      1 CA         18.3075  -12.1745   -2.7830 C.3       4 GLC5        0.0000 
      2 CA         19.7690  -12.0620   -1.2820 C.3      12 GLL5        0.0000 
      3 CA         16.8460  -12.2870   -4.2840 C.3       8 GLP5        0.0000 
      4 CA         19.4455  -11.5200    0.8120 C.3       4 GLC5        0.0000 
      5 CA         19.1220  -10.9780    2.9060 C.3       8 GLP5        0.0000 
      6 O          20.1250  -13.7295    1.0505 O.2       1 ALC1        0.0000 
      7 O          19.5710  -14.2470   -0.1980 O.2       9 ALL1        0.0000 
      8 O          20.6790  -13.2120    2.2990 O.2       5 ALP1        0.0000 
      9 CA         19.1345  -15.1480    2.5500 C.3       4 GLC5        0.0000 
     10 CA         18.0480  -15.8770    0.8130 C.3      12 GLL5        0.0000 
     11 CA         20.2210  -14.4190    4.2870 C.3       8 GLP5        0.0000 
     12 OD1        16.2525  -14.9975    2.7835 O.co2     3 ASC3        0.0000 
     13 OD1        15.6040  -15.4140    1.0490 O.co2    11 ASL3        0.0000 
     14 OD1        16.9010  -14.5810    4.5180 O.co2     7 ASP3        0.0000 
     15 OD1        15.7075  -14.4865    1.9975 O.co2     3 ASC3        0.0000 
     16 OD1        15.8110  -13.5590    2.9460 O.co2     7 ASP3        0.0000 
     17 CA         15.6900  -16.3340   -3.7650 C.3       4 GLC5        0.0000 
     18 CA         14.0390  -15.5660   -2.6300 C.3      12 GLL5        0.0000 
     19 CA         17.3410  -17.1020   -4.9000 C.3       8 GLP5        0.0000 
     20 CA         15.3885  -14.4740   -4.0065 C.3       4 GLC5        0.0000 
     21 CA         16.7380  -13.3820   -5.3830 C.3       8 GLP5        0.0000 
     22 CA         16.5555  -19.0905   -2.2890 C.3       4 GLC5        0.0000 
     23 CA         14.6420  -19.6130   -2.5720 C.3      12 GLL5        0.0000 
     24 CA         18.4690  -18.5680   -2.0060 C.3       8 GLP5        0.0000 
     25 CA         14.3230  -20.5005    0.9325 C.3       4 GLC5        0.0000 
     26 CA         13.0950  -20.3570   -0.8770 C.3      12 GLL5        0.0000 
     27 CA         15.5510  -20.6440    2.7420 C.3       8 GLP5        0.0000 
     28 CA         12.1335  -20.6020    0.8485 C.3       4 GLC5        0.0000 
     29 CA         11.1720  -20.8470    2.5740 C.3       8 GLP5        0.0000 
     30 CA         12.1440  -18.8940    0.3840 C.3       4 GLC5        0.0000 
     31 CA         11.1930  -17.4310    1.6450 C.3       8 GLP5        0.0000 
     32 CA         13.6520  -23.7780   -3.5315 C.3       4 GLC5        0.0000 
     33 CA         13.5950  -21.9560   -2.7330 C.3      12 GLL5        0.0000 
     34 CA         13.7090  -25.6000   -4.3300 C.3       8 GLP5        0.0000 
     35 N          18.0670  -14.3970   -3.5920 N.am      2 SEC2        0.0000 
     36 N          19.0670  -14.0890   -2.3760 N.am     10 SEL2        0.0000 
     37 N          17.0670  -14.7050   -4.8080 N.am      6 SEP2        0.0000 
     38 CA         19.5005  -17.4300   -0.7165 C.3       4 GLC5        0.0000 
     39 CA         20.5320  -16.2920    0.5730 C.3      12 GLL5        0.0000 
     40 CA         20.3765  -15.3555    2.4300 C.3       4 GLC5        0.0000 
     41 CA         20.0870  -16.5810   -2.7950 C.3       4 GLC5        0.0000 
     42 CA         21.6910  -16.2360   -1.6450 C.3      12 GLL5        0.0000 
     43 CA         18.4830  -16.9260   -3.9450 C.3       8 GLP5        0.0000 
     44 CA         26.6590  -13.6370   -0.6985 C.3       4 GLC5        0.0000 
     45 CA         25.2350  -14.4870   -0.0740 C.3      12 GLL5        0.0000 
     46 CA         28.0830  -12.7870   -1.3230 C.3       8 GLP5        0.0000 
     47 CA         26.4675  -15.4785    0.1155 C.3       4 GLC5        0.0000 
     48 CA         27.7000  -16.4700    0.3050 C.3       8 GLP5        0.0000 
     49 CA         21.3335  -17.6120   -3.9170 C.3       4 GLC5        0.0000 
     50 CA         22.7740  -16.2080   -3.9450 C.3      12 GLL5        0.0000 
     51 CA         19.8930  -19.0160   -3.8890 C.3       8 GLP5        0.0000 
     52 CA         22.4165  -16.0830   -5.7630 C.3       4 GLC5        0.0000 
     53 CA         22.0590  -15.9580   -7.5810 C.3       8 GLP5        0.0000 
     54 CA         23.5185  -17.6445   -3.8020 C.3       4 GLC5        0.0000 
     55 CA         24.2630  -19.0810   -3.6590 C.3       8 GLP5        0.0000 
     56 O          18.3695  -17.9330    1.8130 O.2       1 ALC1        0.0000 
     57 O          17.7210  -17.2570    0.9320 O.2       9 ALL1        0.0000 
     58 O          19.0180  -18.6090    2.6940 O.2       5 ALP1        0.0000 
     59 CA         12.2175  -14.2495    2.0595 C.3       4 GLC5        0.0000 
     60 CA         13.0990  -14.7800    0.6190 C.3      12 GLL5        0.0000 
     61 CA         11.3360  -13.7190    3.5000 C.3       8 GLP5        0.0000 
     62 CA         18.1129  -17.0012   -0.8324 C.3       4 GLC5        0.0000 
     63 CA         12.4850  -16.2420    1.0175 C.3       4 GLC5        0.0000 
     64 CA         14.4550  -15.3260    0.1610 C.3      12 GLL5        0.0000 
     65 CA         15.8033  -17.3720   -3.8548 C.3       4 GLC5        0.0000 
     66 CA         14.4230  -18.1050   -2.3050 C.3      12 GLL5        0.0000 
     67 CA         15.5373  -21.5039   -3.2154 C.3       4 GLC5        0.0000 
     68 CA         17.2620  -22.0100   -3.8330 C.3       8 GLP5        0.0000 
     69 CA         21.5030  -17.9210    0.8193 C.3       4 GLC5        0.0000 
     70 CA         21.8680  -19.7150    1.4910 C.3       8 GLP5        0.0000 
     71 CA         25.0031  -15.5534    1.5426 C.3       4 GLC5        0.0000 
     72 CA         22.9210  -15.4200    0.2760 C.3      12 GLL5        0.0000 
     73 CA         25.6560  -16.2240    3.1980 C.3       8 GLP5        0.0000 
@<TRIPOS>BOND
@<TRIPOS>SUBSTRUCTURE
     1 ALC1        6 GROUP        1 X    ALC  0     ROOT ALC X 1
     2 SEC2       35 GROUP        1 X    SEC  0     **** SEC X 2
     3 ASC3       12 GROUP        1 X    ASC  0     **** ASC X 3
     4 GLC5        1 GROUP        1 X    GLC  0     **** GLC X 6
     5 ALP1        8 GROUP        1 Y    ALP  0     ROOT ALP Y 8
     6 SEP2       37 GROUP        1 Y    SEP  0     **** SEP Y 9
     7 ASP3       14 GROUP        1 Y    ASP  0     **** ASP Y 10
     8 GLP5        3 GROUP        1 Y    GLP  0     **** GLP Y 13
     9 ALL1        7 GROUP        1 Z    ALL  0     ROOT ALL Z 15
    10 SEL2       36 GROUP        1 Z    SEL  0     **** SEL Z 16
    11 ASL3       13 GROUP        1 Z    ASL  0     **** ASL Z 17
    12 GLL5        2 GROUP        1 Z    GLL  0     **** GLL Z 20
@<TRIPOS>SET

