#    Name: 3nsh_957_3_ligand
#    Modification time : Tue Mar 25 02:05:31 2014

@<TRIPOS>MOLECULE
3nsh_957_3_ligand
   62    64     1     0     0
SMALL
NO_CHARGES


@<TRIPOS>ATOM
      1 C1         19.7690  -12.0620   -1.2820 C.3       1 957407      0.0000 
      2 C2         19.4360  -13.5430   -1.3380 C.2       1 957407      0.0000 
      3 N3         19.5710  -14.2470   -0.1980 N.am      1 957407      0.0000 
      4 C4         19.2850  -15.6670   -0.0680 C.3       1 957407      0.0000 
      5 C5         18.0480  -15.8770    0.8130 C.3       1 957407      0.0000 
      6 C6         16.8470  -15.0970    0.3100 C.3       1 957407      0.0000 
      7 N7         15.6040  -15.4140    1.0490 N.4       1 957407      0.0000 
      8 C8         14.4550  -15.3260    0.1610 C.3       1 957407      0.0000 
      9 C9         14.4190  -16.1770   -1.0860 C.2       1 957407      0.0000 
     10 C10        14.6060  -17.5280   -1.0600 C.2       1 957407      0.0000 
     11 C11        14.4230  -18.1050   -2.3050 C.2       1 957407      0.0000 
     12 C12        14.1080  -17.1790   -3.3140 C.2       1 957407      0.0000 
     13 S13        14.0390  -15.5660   -2.6300 S.3       1 957407      0.0000 
     14 C14        14.6420  -19.6130   -2.5720 C.3       1 957407      0.0000 
     15 C15        13.4180  -20.4660   -2.3530 C.3       1 957407      0.0000 
     16 C16        12.3140  -19.9200   -3.2170 C.3       1 957407      0.0000 
     17 C17        13.0950  -20.3570   -0.8770 C.3       1 957407      0.0000 
     18 C18        13.5950  -21.9560   -2.7330 C.3       1 957407      0.0000 
     19 O19        19.0670  -14.0890   -2.3760 O.2       1 957407      0.0000 
     20 C20        20.5320  -16.2920    0.5730 C.3       1 957407      0.0000 
     21 C21        21.7440  -15.9620   -0.2780 C.ar      1 957407      0.0000 
     22 C22        22.9210  -15.4200    0.2760 C.ar      1 957407      0.0000 
     23 C23        24.0100  -15.1370   -0.5790 C.ar      1 957407      0.0000 
     24 C24        23.9700  -15.3900   -1.9470 C.ar      1 957407      0.0000 
     25 C25        22.8070  -15.9410   -2.4810 C.ar      1 957407      0.0000 
     26 C26        21.6910  -16.2360   -1.6450 C.ar      1 957407      0.0000 
     27 F27        25.2350  -14.4870   -0.0740 F         1 957407      0.0000 
     28 F28        22.7740  -16.2080   -3.9450 F         1 957407      0.0000 
     29 O29        17.7210  -17.2570    0.9320 O.3       1 957407      0.0000 
     30 C30        14.0950  -13.8630   -0.1580 C.3       1 957407      0.0000 
     31 C31        13.0990  -14.7800    0.6190 C.3       1 957407      0.0000 
     32 H          19.9053  -13.7738    0.6874 H         1 957407      0.0000 
     33 H          19.1312  -16.1136   -1.0195 H         1 957407      0.0000 
     34 H          18.2976  -15.4698    1.8133 H         1 957407      0.0000 
     35 H          16.7132  -15.3138   -0.7642 H         1 957407      0.0000 
     36 H          17.0701  -14.0189    0.3916 H         1 957407      0.0000 
     37 H          14.8427  -18.0408   -0.2583 H         1 957407      0.0000 
     38 H          13.9393  -17.2154   -4.1961 H         1 957407      0.0000 
     39 H          15.4598  -19.9622   -1.9176 H         1 957407      0.0000 
     40 H          14.9947  -19.7298   -3.6116 H         1 957407      0.0000 
     41 H          20.4026  -17.3645    0.6261 H         1 957407      0.0000 
     42 H          20.6604  -15.8852    1.5669 H         1 957407      0.0000 
     43 H          22.9871  -15.2357    1.2703 H         1 957407      0.0000 
     44 H          24.7662  -15.1791   -2.5403 H         1 957407      0.0000 
     45 H          20.8529  -16.6506   -2.0621 H         1 957407      0.0000 
     46 H          13.7943  -13.8388   -1.0477 H         1 957407      0.0000 
     47 H          14.5188  -13.3261    0.4860 H         1 957407      0.0000 
     48 H          13.1787  -14.5494    1.5279 H         1 957407      0.0000 
     49 H          12.4543  -15.0621   -0.0058 H         1 957407      0.0000 
     50 H          20.7183  -11.9048   -1.0097 H         1 957407      0.0000 
     51 H          19.6414  -11.6188   -2.1693 H         1 957407      0.0000 
     52 H          19.1916  -11.5760   -0.6259 H         1 957407      0.0000 
     53 H          12.0982  -18.9708   -2.9881 H         1 957407      0.0000 
     54 H          12.5572  -19.9396   -4.1868 H         1 957407      0.0000 
     55 H          11.4691  -20.4453   -3.1160 H         1 957407      0.0000 
     56 H          13.8475  -20.6867   -0.3068 H         1 957407      0.0000 
     57 H          12.9137  -19.4118   -0.6053 H         1 957407      0.0000 
     58 H          12.2863  -20.8923   -0.6333 H         1 957407      0.0000 
     59 H          13.8297  -22.0677   -3.6986 H         1 957407      0.0000 
     60 H          14.3226  -22.3907   -2.2023 H         1 957407      0.0000 
     61 H          12.7601  -22.4822   -2.5716 H         1 957407      0.0000 
     62 H          18.5582  -17.6937    1.2614 H         1 957407      0.0000 
@<TRIPOS>BOND
     1    2    1 1    
     2   50    1 1    
     3   51    1 1    
     4   52    1 1    
     5    3    2 am   
     6   19    2 2    
     7    4    3 1    
     8   32    3 1    
     9    5    4 1    
    10   20    4 1    
    11   33    4 1    
    12    6    5 1    
    13   29    5 1    
    14   34    5 1    
    15    7    6 1    
    16   35    6 1    
    17   36    6 1    
    18    8    7 1    
    19    9    8 1    
    20   30    8 1    
    21   31    8 1    
    22   10    9 2    
    23   13    9 1    
    24   11   10 1    
    25   37   10 1    
    26   12   11 2    
    27   14   11 1    
    28   13   12 1    
    29   38   12 1    
    30   15   14 1    
    31   39   14 1    
    32   40   14 1    
    33   16   15 1    
    34   17   15 1    
    35   18   15 1    
    36   53   16 1    
    37   54   16 1    
    38   55   16 1    
    39   56   17 1    
    40   57   17 1    
    41   58   17 1    
    42   59   18 1    
    43   60   18 1    
    44   61   18 1    
    45   21   20 1    
    46   41   20 1    
    47   42   20 1    
    48   22   21 ar   
    49   26   21 ar   
    50   23   22 ar   
    51   43   22 1    
    52   24   23 ar   
    53   27   23 1    
    54   25   24 ar   
    55   44   24 1    
    56   26   25 ar   
    57   28   25 1    
    58   45   26 1    
    59   62   29 1    
    60   31   30 1    
    61   46   30 1    
    62   47   30 1    
    63   48   31 1    
    64   49   31 1    
@<TRIPOS>SUBSTRUCTURE
     1 957407      1 GROUP   
@<TRIPOS>SET

