#    Name: 1d1v_PTU_1_INTS_M
#    Modification time : Mon Mar 24 21:16:22 2014

@<TRIPOS>MOLECULE
1d1v_PTU_1_INTS_M
   30     0     6     0     0
SMALL
NO_CHARGES


@<TRIPOS>ATOM
      1 O           3.7970   11.7195   30.9940 O.2       1 ALC1        0.0000 
      2 O           4.8170   12.0740   31.9490 O.2       5 ALL1        0.0000 
      3 O           2.7770   11.3650   30.0390 O.2       3 ALP1        0.0000 
      4 O           4.3620   12.6575   33.0115 O.2       1 ALC1        0.0000 
      5 O           3.9070   13.2410   34.0740 O.2       3 ALP1        0.0000 
      6 O           5.3770   13.0675   33.1365 O.2       1 ALC1        0.0000 
      7 O           5.9370   14.0610   34.3240 O.2       3 ALP1        0.0000 
      8 CA          6.3575   13.3820   30.4070 C.3       2 GLC5        0.0000 
      9 CA          6.2630   11.8960   31.6810 C.3       6 GLL5        0.0000 
     10 CA          6.4520   14.8680   29.1330 C.3       4 GLP5        0.0000 
     11 O           6.5270   13.3500   33.3715 O.2       1 ALC1        0.0000 
     12 O           7.1170   12.6390   32.4190 O.2       5 ALL1        0.0000 
     13 CA         10.5735    9.6305   28.5720 C.3       2 GLC5        0.0000 
     14 CA          9.1260   10.4050   29.0580 C.3       6 GLL5        0.0000 
     15 CA         12.0210    8.8560   28.0860 C.3       4 GLP5        0.0000 
     16 CA          6.4375   12.5435   29.1745 C.3       2 GLC5        0.0000 
     17 CA          8.0620   11.4470   29.3710 C.3       6 GLL5        0.0000 
     18 CA          5.4520   14.0060   28.4520 C.3       4 GLP5        0.0000 
     19 CA          6.3180   10.4390   28.1455 C.3       2 GLC5        0.0000 
     20 CA          5.2130    9.7970   26.3940 C.3       4 GLP5        0.0000 
     21 CA         10.4663   12.8308   31.5995 C.3       2 GLC5        0.0000 
     22 CA          8.4350   12.6140   32.7480 C.3       6 GLL5        0.0000 
     23 CA         12.1900   12.4280   30.2820 C.3       4 GLP5        0.0000 
     24 CA         11.4972   12.8758   31.8725 C.3       2 GLC5        0.0000 
     25 CA         11.1910   12.7340   33.4810 C.3       6 GLL5        0.0000 
     26 CA         11.0575   11.9410   31.6237 C.3       2 GLC5        0.0000 
     27 CA         10.6090   11.4870   33.1460 C.3       6 GLL5        0.0000 
     28 CA         10.3920   11.6770   29.7482 C.3       2 GLC5        0.0000 
     29 CA          8.6365   10.8965   27.2652 C.3       2 GLC5        0.0000 
     30 CA          8.6790   10.8670   25.3160 C.3       4 GLP5        0.0000 
@<TRIPOS>BOND
@<TRIPOS>SUBSTRUCTURE
     1 ALC1        1 GROUP        1 X    ALC  0     ROOT ALC X 1
     2 GLC5        8 GROUP        1 X    GLC  0     **** GLC X 6
     3 ALP1        3 GROUP        1 Y    ALP  0     ROOT ALP Y 8
     4 GLP5       10 GROUP        1 Y    GLP  0     **** GLP Y 13
     5 ALL1        2 GROUP        1 Z    ALL  0     ROOT ALL Z 15
     6 GLL5        9 GROUP        1 Z    GLL  0     **** GLL Z 20
@<TRIPOS>SET

