#    Name: 1d1v_PTU_1_ligand
#    Modification time : Mon Mar 24 21:16:22 2014

@<TRIPOS>MOLECULE
1d1v_PTU_1_ligand
   25    25     1     0     0
SMALL
NO_CHARGES


@<TRIPOS>ATOM
      1 N1          4.8170   12.0740   31.9490 N.pl3     1 PTU810      0.0000 
      2 C           6.2630   11.8960   31.6810 C.2       1 PTU810      0.0000 
      3 S           6.7840   10.7150   30.4230 S.3       1 PTU810      0.0000 
      4 N2          7.1170   12.6390   32.4190 N.pl3     1 PTU810      0.0000 
      5 C1          8.4350   12.6140   32.7480 C.ar      1 PTU810      0.0000 
      6 C2          9.0500   13.8530   33.0860 C.ar      1 PTU810      0.0000 
      7 C3         10.4180   13.9130   33.4450 C.ar      1 PTU810      0.0000 
      8 C4         11.1910   12.7340   33.4810 C.ar      1 PTU810      0.0000 
      9 C5         10.6090   11.4870   33.1460 C.ar      1 PTU810      0.0000 
     10 C6          9.2410   11.4210   32.7850 C.ar      1 PTU810      0.0000 
     11 C1'         8.0620   11.4470   29.3710 C.3       1 PTU810      0.0000 
     12 C2'         9.1260   10.4050   29.0580 C.3       1 PTU810      0.0000 
     13 H           4.5794   12.7374   32.6585 H         1 PTU810      0.0000 
     14 H           4.1956   11.5163   31.3987 H         1 PTU810      0.0000 
     15 H           6.5793   13.5481   32.9061 H         1 PTU810      0.0000 
     16 H           8.4907   14.7123   33.0680 H         1 PTU810      0.0000 
     17 H          10.8433   14.8118   33.6777 H         1 PTU810      0.0000 
     18 H          12.1770   12.7768   33.7500 H         1 PTU810      0.0000 
     19 H          11.1733   10.6389   33.1646 H         1 PTU810      0.0000 
     20 H           8.8134   10.5261   32.5475 H         1 PTU810      0.0000 
     21 H           8.4130   12.2529   29.9648 H         1 PTU810      0.0000 
     22 H           7.5076   11.7615   28.5230 H         1 PTU810      0.0000 
     23 H           9.8525   10.7778   28.4808 H         1 PTU810      0.0000 
     24 H           9.5609   10.0572   29.8886 H         1 PTU810      0.0000 
     25 H           8.7436    9.6170   28.5755 H         1 PTU810      0.0000 
@<TRIPOS>BOND
     1    2    1 2    
     2   13    1 1    
     3   14    1 1    
     4    3    2 1    
     5    4    2 1    
     6   11    3 1    
     7    5    4 1    
     8   15    4 1    
     9    6    5 ar   
    10   10    5 ar   
    11    7    6 ar   
    12   16    6 1    
    13    8    7 ar   
    14   17    7 1    
    15    9    8 ar   
    16   18    8 1    
    17   10    9 ar   
    18   19    9 1    
    19   20   10 1    
    20   12   11 1    
    21   21   11 1    
    22   22   11 1    
    23   23   12 1    
    24   24   12 1    
    25   25   12 1    
@<TRIPOS>SUBSTRUCTURE
     1 PTU810      1 GROUP   
@<TRIPOS>SET

