#    Name: 2xx2_13C_3_INTS_M
#    Modification time : Tue Mar 25 07:02:00 2014

@<TRIPOS>MOLECULE
2xx2_13C_3_INTS_M
   43     0     6     0     0
SMALL
NO_CHARGES


@<TRIPOS>ATOM
      1 CA        -35.7025   41.9620   33.4805 C.3       2 GLC5        0.0000 
      2 CA        -36.4450   41.4570   31.4710 C.3       6 GLL5        0.0000 
      3 CA        -34.9600   42.4670   35.4900 C.3       4 GLP5        0.0000 
      4 CA        -35.3350   39.8725   30.6425 C.3       2 GLC5        0.0000 
      5 CA        -34.2250   38.2880   29.8140 C.3       4 GLP5        0.0000 
      6 CA        -33.2110   43.5910   31.5870 C.3       2 GLC5        0.0000 
      7 CA        -34.4330   42.2880   30.4010 C.3       6 GLL5        0.0000 
      8 CA        -31.9890   44.8940   32.7730 C.3       4 GLP5        0.0000 
      9 CA        -34.3290   40.2880   30.1075 C.3       2 GLC5        0.0000 
     10 CA        -41.0110   41.8900   28.2500 C.3       2 GLC5        0.0000 
     11 CA        -41.0130   42.9370   29.9720 C.3       6 GLL5        0.0000 
     12 CA        -41.0090   40.8430   26.5280 C.3       4 GLP5        0.0000 
     13 CA        -39.5525   42.8635   36.8685 C.3       2 GLC5        0.0000 
     14 CA        -39.5540   41.7890   35.4050 C.3       6 GLL5        0.0000 
     15 CA        -39.5510   43.9380   38.3320 C.3       4 GLP5        0.0000 
     16 CA        -36.6850   41.7000   35.1545 C.3       2 GLC5        0.0000 
     17 CA        -38.4100   40.9330   34.8190 C.3       6 GLL5        0.0000 
     18 CA        -39.2260   39.3425   33.6710 C.3       2 GLC5        0.0000 
     19 CA        -40.0420   37.7520   32.5230 C.3       4 GLP5        0.0000 
     20 N         -36.0095   38.6205   32.4140 N.am      1 SEC2        0.0000 
     21 N         -36.9280   39.5790   32.8590 N.am      5 SEL2        0.0000 
     22 N         -35.0910   37.6620   31.9690 N.am      3 SEP2        0.0000 
     23 CA        -39.2675   41.8975   27.2145 C.3       2 GLC5        0.0000 
     24 CA        -37.5260   42.9520   27.9010 C.3       6 GLL5        0.0000 
     25 CA        -37.5330   42.9750   26.3280 C.3       2 GLC5        0.0000 
     26 CA        -37.5400   42.9980   24.7550 C.3       4 GLP5        0.0000 
     27 CA        -35.1258   44.3088   29.9850 C.3       2 GLC5        0.0000 
     28 CA        -35.2060   42.6910   29.3150 C.3       6 GLL5        0.0000 
     29 CA        -35.4320   46.1280   30.1120 C.3       4 GLP5        0.0000 
     30 CA        -36.2450   44.4213   29.3573 C.3       2 GLC5        0.0000 
     31 CA        -36.5900   42.4770   29.3040 C.3       6 GLL5        0.0000 
     32 CA        -34.7984   41.3861   28.1920 C.3       2 GLC5        0.0000 
     33 CA        -33.8920   40.2890   26.8030 C.3       4 GLP5        0.0000 
     34 CA        -38.1908   39.9755   30.4230 C.3       2 GLC5        0.0000 
     35 CA        -37.2110   41.8630   30.3850 C.3       6 GLL5        0.0000 
     36 CA        -38.6060   38.3020   30.1910 C.3       4 GLP5        0.0000 
     37 CA        -42.6945   41.6782   30.2998 C.3       2 GLC5        0.0000 
     38 CA        -43.9310   40.3670   30.0000 C.3       4 GLP5        0.0000 
     39 CA        -40.7557   43.8907   36.1375 C.3       2 GLC5        0.0000 
     40 CA        -40.5110   42.2940   34.3030 C.3       6 GLL5        0.0000 
     41 CA        -40.7570   44.7960   37.9480 C.3       4 GLP5        0.0000 
     42 CA        -38.3695   40.7050   36.5980 C.3       2 GLC5        0.0000 
     43 CA        -37.7570   40.0490   38.0840 C.3       4 GLP5        0.0000 
@<TRIPOS>BOND
@<TRIPOS>SUBSTRUCTURE
     1 SEC2       20 GROUP        1 X    SEC  0     ROOT SEC X 2
     2 GLC5        1 GROUP        1 X    GLC  0     **** GLC X 6
     3 SEP2       22 GROUP        1 Y    SEP  0     ROOT SEP Y 9
     4 GLP5        3 GROUP        1 Y    GLP  0     **** GLP Y 13
     5 SEL2       21 GROUP        1 Z    SEL  0     ROOT SEL Z 16
     6 GLL5        2 GROUP        1 Z    GLL  0     **** GLL Z 20
@<TRIPOS>SET

