#    Name: 2xx2_13C_3_ligand
#    Modification time : Tue Mar 25 07:02:00 2014

@<TRIPOS>MOLECULE
2xx2_13C_3_ligand
   42    43     1     0     0
SMALL
NO_CHARGES


@<TRIPOS>ATOM
      1 C1        -37.0870   40.7710   32.6780 C.2       1 13C1215     0.0000 
      2 C2        -36.4450   41.4570   31.4710 C.ar      1 13C1215     0.0000 
      3 C3        -35.0730   41.6660   31.4820 C.ar      1 13C1215     0.0000 
      4 C4        -34.4330   42.2880   30.4010 C.ar      1 13C1215     0.0000 
      5 C5        -35.2060   42.6910   29.3150 C.ar      1 13C1215     0.0000 
      6 C6        -36.5900   42.4770   29.3040 C.ar      1 13C1215     0.0000 
      7 C7        -37.2110   41.8630   30.3850 C.ar      1 13C1215     0.0000 
      8 C8        -38.7230   41.6380   30.3820 C.3       1 13C1215     0.0000 
      9 C9        -39.5510   42.9380   30.4280 C.2       1 13C1215     0.0000 
     10 C10       -41.0130   42.9370   29.9720 C.3       1 13C1215     0.0000 
     11 C11       -41.9030   43.0420   31.2270 C.3       1 13C1215     0.0000 
     12 C12       -41.6150   44.3510   31.9920 C.3       1 13C1215     0.0000 
     13 C13       -42.1310   44.1660   33.4300 C.3       1 13C1215     0.0000 
     14 C14       -40.9980   43.6770   34.3510 C.2       1 13C1215     0.0000 
     15 C15       -40.5110   42.2940   34.3030 C.2       1 13C1215     0.0000 
     16 C16       -39.5540   41.7890   35.4050 C.3       1 13C1215     0.0000 
     17 C17       -38.4100   40.9330   34.8190 C.3       1 13C1215     0.0000 
     18 O2        -36.9280   39.5790   32.8590 O.2       1 13C1215     0.0000 
     19 O3        -34.3560   41.2380   32.6280 O.co2     1 13C1215     0.0000 
     20 O4        -34.5990   43.3170   28.2000 O.3       1 13C1215     0.0000 
     21 CL1       -37.5260   42.9520   27.9010 Cl        1 13C1215     0.0000 
     22 N1        -37.8200   41.5860   33.6420 N.am      1 13C1215     0.0000 
     23 O5        -39.0280   43.9780   30.7550 O.2       1 13C1215     0.0000 
     24 H         -33.4292   42.4392   30.4136 H         1 13C1215     0.0000 
     25 H         -38.9969   41.0165   31.2485 H         1 13C1215     0.0000 
     26 H         -39.0022   41.0757   29.4775 H         1 13C1215     0.0000 
     27 H         -41.2312   42.0179   29.4592 H         1 13C1215     0.0000 
     28 H         -41.1944   43.7853   29.3374 H         1 13C1215     0.0000 
     29 H         -41.7019   42.1979   31.8783 H         1 13C1215     0.0000 
     30 H         -42.9455   43.0275   30.9269 H         1 13C1215     0.0000 
     31 H         -42.1404   45.1590   31.5239 H         1 13C1215     0.0000 
     32 H         -40.5582   44.5266   32.0103 H         1 13C1215     0.0000 
     33 H         -42.9318   43.4342   33.4307 H         1 13C1215     0.0000 
     34 H         -42.5065   45.1144   33.7995 H         1 13C1215     0.0000 
     35 H         -40.6032   44.3435   34.9887 H         1 13C1215     0.0000 
     36 H         -40.7720   41.6667   33.5888 H         1 13C1215     0.0000 
     37 H         -40.1177   41.1889   36.1175 H         1 13C1215     0.0000 
     38 H         -39.1269   42.6453   35.9244 H         1 13C1215     0.0000 
     39 H         -38.8219   39.9543   34.5572 H         1 13C1215     0.0000 
     40 H         -37.6608   40.7901   35.6029 H         1 13C1215     0.0000 
     41 H         -37.9209   42.5669   33.5086 H         1 13C1215     0.0000 
     42 H         -33.6281   43.3747   28.4326 H         1 13C1215     0.0000 
@<TRIPOS>BOND
     1    2    1 1    
     2   18    1 2    
     3   22    1 am   
     4    3    2 ar   
     5    7    2 ar   
     6    4    3 ar   
     7   19    3 ar   
     8    5    4 ar   
     9   24    4 1    
    10    6    5 ar   
    11   20    5 1    
    12    7    6 ar   
    13   21    6 1    
    14    8    7 1    
    15    9    8 1    
    16   25    8 1    
    17   26    8 1    
    18   10    9 1    
    19   23    9 2    
    20   11   10 1    
    21   27   10 1    
    22   28   10 1    
    23   12   11 1    
    24   29   11 1    
    25   30   11 1    
    26   13   12 1    
    27   31   12 1    
    28   32   12 1    
    29   14   13 1    
    30   33   13 1    
    31   34   13 1    
    32   15   14 2    
    33   35   14 1    
    34   16   15 1    
    35   36   15 1    
    36   17   16 1    
    37   37   16 1    
    38   38   16 1    
    39   22   17 1    
    40   39   17 1    
    41   40   17 1    
    42   42   20 1    
    43   41   22 1    
@<TRIPOS>SUBSTRUCTURE
     1 13C1215     1 GROUP   
@<TRIPOS>SET

