#    Name: 2gtm_LID_1_INTS_M
#    Modification time : Tue Mar 25 15:06:53 2014

@<TRIPOS>MOLECULE
2gtm_LID_1_INTS_M
   83     0     6     0     0
SMALL
NO_CHARGES


@<TRIPOS>ATOM
      1 CA          3.9750    4.1555   23.4025 C.3       2 GLC5        0.0000 
      2 CA          2.2310    3.1250   22.7900 C.3       6 GLL5        0.0000 
      3 CA          5.7190    5.1860   24.0150 C.3       4 GLP5        0.0000 
      4 CA          1.0985    4.9075   22.4365 C.3       2 GLC5        0.0000 
      5 CA         -0.0340    6.6900   22.0830 C.3       4 GLP5        0.0000 
      6 CA          4.2710   -2.0540   21.6890 C.3       2 GLC5        0.0000 
      7 CA          2.5640   -1.0420   21.7860 C.3       6 GLL5        0.0000 
      8 CA          5.9780   -3.0660   21.5920 C.3       4 GLP5        0.0000 
      9 CA         -2.1430    0.8805   25.5550 C.3       2 GLC5        0.0000 
     10 CA         -0.1090    0.9960   25.8960 C.3       6 GLL5        0.0000 
     11 CA         -4.1770    0.7650   25.2140 C.3       4 GLP5        0.0000 
     12 CA          5.2730    2.0230   16.0330 C.3       2 GLC5        0.0000 
     13 CA          5.6580   -0.0410   16.0700 C.3       6 GLL5        0.0000 
     14 CA          4.8880    4.0870   15.9960 C.3       4 GLP5        0.0000 
     15 CA         -2.3625    1.2490   24.4205 C.3       2 GLC5        0.0000 
     16 CA         -0.5480    1.7330   23.6270 C.3       6 GLL5        0.0000 
     17 CA         -1.3805    2.8460   22.2025 C.3       2 GLC5        0.0000 
     18 CA         -2.2130    3.9590   20.7780 C.3       4 GLP5        0.0000 
     19 CA         -1.2460    0.9180   21.8560 C.3       2 GLC5        0.0000 
     20 CA         -1.9440    0.1030   20.0850 C.3       4 GLP5        0.0000 
     21 CA          3.8545    1.8240   26.3845 C.3       2 GLC5        0.0000 
     22 CA          3.1060    3.6290   26.2000 C.3       6 GLL5        0.0000 
     23 CA          4.6030    0.0190   26.5690 C.3       4 GLP5        0.0000 
     24 CA          4.4125    4.4075   25.1075 C.3       2 GLC5        0.0000 
     25 N           2.3970    5.4945   22.0565 N.am      1 SEC2        0.0000 
     26 N           2.4120    4.1010   21.7000 N.am      5 SEL2        0.0000 
     27 N           2.3820    6.8880   22.4130 N.am      3 SEP2        0.0000 
     28 CA          0.6735   -0.7600   19.8050 C.3       2 GLC5        0.0000 
     29 CA          1.5090   -1.9660   21.2720 C.3       6 GLL5        0.0000 
     30 CA         -0.1620    0.4460   18.3380 C.3       4 GLP5        0.0000 
     31 CA         -0.0460   -3.1045   21.2525 C.3       2 GLC5        0.0000 
     32 CA         -1.6010   -4.2430   21.2330 C.3       4 GLP5        0.0000 
     33 CA          3.7490    5.3310   21.0795 C.3       2 GLC5        0.0000 
     34 CA          2.8310    3.6710   20.5490 C.3       6 GLL5        0.0000 
     35 CA          4.6670    6.9910   21.6100 C.3       4 GLP5        0.0000 
     36 CA          1.4580    5.2410   20.5710 C.3       2 GLC5        0.0000 
     37 CA          0.0850    6.8110   20.5930 C.3       4 GLP5        0.0000 
     38 CA          5.6505    0.3975   13.0055 C.3       2 GLC5        0.0000 
     39 CA          4.7760   -0.3120   14.8310 C.3       6 GLL5        0.0000 
     40 CA          6.5250    1.1070   11.1800 C.3       4 GLP5        0.0000 
     41 CA          6.3685   -0.3840   20.6110 C.3       2 GLC5        0.0000 
     42 CA          6.1740    0.0700   18.6380 C.3       6 GLL5        0.0000 
     43 CA          6.5630   -0.8380   22.5840 C.3       4 GLP5        0.0000 
     44 CA          6.2990    1.5280   19.7755 C.3       2 GLC5        0.0000 
     45 CA          6.4240    2.9860   20.9130 C.3       4 GLP5        0.0000 
     46 CA          8.1945    0.4675   19.0065 C.3       2 GLC5        0.0000 
     47 CA         10.2150    0.8650   19.3750 C.3       4 GLP5        0.0000 
     48 CA          6.9630   -1.4045   18.3510 C.3       2 GLC5        0.0000 
     49 CA          7.7520   -2.8790   18.0640 C.3       4 GLP5        0.0000 
     50 CA          2.4832   -2.6920   22.9535 C.3       2 GLC5        0.0000 
     51 CA          2.9300   -3.8800   24.3780 C.3       4 GLP5        0.0000 
     52 CA          1.6660   -0.2310   17.6798 C.3       2 GLC5        0.0000 
     53 CA          3.0810   -1.0490   16.5140 C.3       6 GLL5        0.0000 
     54 CA         -0.0205    3.6358   26.3065 C.3       2 GLC5        0.0000 
     55 CA          2.0690    2.7700   26.1550 C.3       6 GLL5        0.0000 
     56 CA         -1.7490    4.5240   27.0430 C.3       4 GLP5        0.0000 
     57 CA         -0.8525    2.9577   26.1943 C.3       2 GLC5        0.0000 
     58 CA          0.1970    1.7870   24.7950 C.3       6 GLL5        0.0000 
     59 CA          1.0292   -0.7243   26.3313 C.3       2 GLC5        0.0000 
     60 CA          1.7870   -2.4910   26.1660 C.3       4 GLP5        0.0000 
     61 CA          4.3918   -2.6895   16.3171 C.3       2 GLC5        0.0000 
     62 CA          3.4150   -0.9040   15.2290 C.3       6 GLL5        0.0000 
     63 CA          5.3290   -4.4730   16.5090 C.3       4 GLP5        0.0000 
     64 CA          3.7237   -0.8945   13.4910 C.3       2 GLC5        0.0000 
     65 CA          3.3520   -1.1810   11.9520 C.3       4 GLP5        0.0000 
     66 CA          6.5723   -1.5155   17.3735 C.3       2 GLC5        0.0000 
     67 CA          6.8265   -0.7377   14.5742 C.3       2 GLC5        0.0000 
     68 CA          8.4360   -1.2990   13.6980 C.3       4 GLP5        0.0000 
     69 CA          2.9396    0.8710   26.7321 C.3       2 GLC5        0.0000 
     70 CA          1.7320    1.9440   27.2320 C.3       6 GLL5        0.0000 
     71 CA         -0.2785    3.0202   27.1037 C.3       2 GLC5        0.0000 
     72 CA          1.9450    4.8101   26.1395 C.3       2 GLC5        0.0000 
     73 CA          1.3470    2.7250   24.9850 C.3       6 GLL5        0.0000 
     74 CA          1.4830    6.4320   26.3940 C.3       4 GLP5        0.0000 
     75 CA          1.3095    1.1103   19.5727 C.3       2 GLC5        0.0000 
     76 CA          2.9080    2.2200   20.3200 C.3       6 GLL5        0.0000 
     77 CA          3.7152    3.3803   18.9292 C.3       2 GLC5        0.0000 
     78 CA          4.5610    3.8150   17.4240 C.3       4 GLP5        0.0000 
     79 CA          4.6150    2.8544   20.7956 C.3       2 GLC5        0.0000 
     80 CA          2.6280    0.8884   15.0331 C.3       2 GLC5        0.0000 
     81 CA          1.2440    2.4210   14.7150 C.3       4 GLP5        0.0000 
     82 CA          5.1057    1.8592   17.6955 C.3       2 GLC5        0.0000 
     83 CA          5.1270   -0.2630   17.2960 C.3       6 GLL5        0.0000 
@<TRIPOS>BOND
@<TRIPOS>SUBSTRUCTURE
     1 SEC2       25 GROUP        1 X    SEC  0     ROOT SEC X 2
     2 GLC5        1 GROUP        1 X    GLC  0     **** GLC X 6
     3 SEP2       27 GROUP        1 Y    SEP  0     ROOT SEP Y 9
     4 GLP5        3 GROUP        1 Y    GLP  0     **** GLP Y 13
     5 SEL2       26 GROUP        1 Z    SEL  0     ROOT SEL Z 16
     6 GLL5        2 GROUP        1 Z    GLL  0     **** GLL Z 20
@<TRIPOS>SET

