#    Name: 2gtm_LID_1_ligand
#    Modification time : Tue Mar 25 15:06:53 2014

@<TRIPOS>MOLECULE
2gtm_LID_1_ligand
   43    46     1     0     0
SMALL
NO_CHARGES


@<TRIPOS>ATOM
      1 C5          2.2310    3.1250   22.7900 C.ar      1 LID353      0.0000 
      2 C8          3.1620    0.2030   19.6060 C.2       1 LID353      0.0000 
      3 C10         2.5640   -1.0420   21.7860 C.3       1 LID353      0.0000 
      4 N12         3.4460   -0.9060   18.8330 N.pl3     1 LID353      0.0000 
      5 C13         3.9070   -0.7670   17.5290 C.ar      1 LID353      0.0000 
      6 C15         1.3470    2.7250   24.9850 C.ar      1 LID353      0.0000 
      7 C17        -0.1090    0.9960   25.8960 C.ar      1 LID353      0.0000 
      8 C20         2.0690    2.7700   26.1550 C.ar      1 LID353      0.0000 
      9 C21         3.0810   -1.0490   16.5140 C.ar      1 LID353      0.0000 
     10 C22         3.4150   -0.9040   15.2290 C.ar      1 LID353      0.0000 
     11 C24         5.6580   -0.0410   16.0700 C.ar      1 LID353      0.0000 
     12 F28        -0.5480    1.7330   23.6270 F         1 LID353      0.0000 
     13 C16         0.1970    1.7870   24.7950 C.ar      1 LID353      0.0000 
     14 C18         0.6520    1.0890   27.0970 C.ar      1 LID353      0.0000 
     15 C19         1.7320    1.9440   27.2320 C.ar      1 LID353      0.0000 
     16 F27         3.1060    3.6290   26.2000 F         1 LID353      0.0000 
     17 N14         1.7100    3.5690   24.0400 N.pl3     1 LID353      0.0000 
     18 N6          2.4120    4.1010   21.7000 N.ar      1 LID353      0.0000 
     19 N4          2.1840    1.7040   22.5170 N.ar      1 LID353      0.0000 
     20 C3          2.6540    1.3290   21.2950 C.ar      1 LID353      0.0000 
     21 N7          2.7500    0.1060   20.8930 N.pl3     1 LID353      0.0000 
     22 C11         1.5090   -1.9660   21.2720 C.3       1 LID353      0.0000 
     23 C2          2.9080    2.2200   20.3200 C.ar      1 LID353      0.0000 
     24 C1          2.8310    3.6710   20.5490 C.ar      1 LID353      0.0000 
     25 N9          3.2790    1.5260   19.1950 N.2       1 LID353      0.0000 
     26 C23         4.7760   -0.3120   14.8310 C.ar      1 LID353      0.0000 
     27 C25         5.1270   -0.2630   17.2960 C.ar      1 LID353      0.0000 
     28 CL26        6.1740    0.0700   18.6380 Cl        1 LID353      0.0000 
     29 H           2.2796   -0.6968   22.7928 H         1 LID353      0.0000 
     30 H           3.5092   -1.5984   21.8899 H         1 LID353      0.0000 
     31 H           3.3150   -1.8552   19.2266 H         1 LID353      0.0000 
     32 H          -0.8923    0.3299   25.8586 H         1 LID353      0.0000 
     33 H           2.1007   -1.4099   16.7460 H         1 LID353      0.0000 
     34 H           2.8203   -1.1629   14.4379 H         1 LID353      0.0000 
     35 H           6.5828    0.2876   15.8803 H         1 LID353      0.0000 
     36 H           0.3705    0.4817   27.8963 H         1 LID353      0.0000 
     37 H           2.2732    1.9758   28.0934 H         1 LID353      0.0000 
     38 H           1.6310    4.6079   24.1673 H         1 LID353      0.0000 
     39 H           3.1204    4.2648   19.7654 H         1 LID353      0.0000 
     40 H           5.0347   -0.1405   13.9721 H         1 LID353      0.0000 
     41 H           1.7405   -2.3284   20.3692 H         1 LID353      0.0000 
     42 H           1.3755   -2.7506   21.8774 H         1 LID353      0.0000 
     43 H           0.6241   -1.5082   21.1860 H         1 LID353      0.0000 
@<TRIPOS>BOND
     1   17    1 1    
     2   18    1 ar   
     3   19    1 ar   
     4    4    2 1    
     5   21    2 1    
     6   25    2 2    
     7   21    3 1    
     8   22    3 1    
     9   29    3 1    
    10   30    3 1    
    11    5    4 1    
    12   31    4 1    
    13    9    5 ar   
    14   27    5 ar   
    15    8    6 ar   
    16   13    6 ar   
    17   17    6 1    
    18   13    7 ar   
    19   14    7 ar   
    20   32    7 1    
    21   15    8 ar   
    22   16    8 1    
    23   10    9 ar   
    24   33    9 1    
    25   26   10 ar   
    26   34   10 1    
    27   26   11 ar   
    28   27   11 ar   
    29   35   11 1    
    30   13   12 1    
    31   15   14 ar   
    32   36   14 1    
    33   37   15 1    
    34   38   17 1    
    35   24   18 ar   
    36   20   19 ar   
    37   21   20 1    
    38   23   20 ar   
    39   41   22 1    
    40   42   22 1    
    41   43   22 1    
    42   24   23 ar   
    43   25   23 1    
    44   39   24 1    
    45   40   26 1    
    46   28   27 1    
@<TRIPOS>SUBSTRUCTURE
     1 LID353      1 GROUP   
@<TRIPOS>SET

