#    Name: 3bg5_ATP_1_INTS_M
#    Modification time : Mon Mar 24 19:22:41 2014

@<TRIPOS>MOLECULE
3bg5_ATP_1_INTS_M
   51     0    12     0     0
SMALL
NO_CHARGES


@<TRIPOS>ATOM
      1 N          84.5220   45.9975    1.3125 N.am      2 SEC2        0.0000 
      2 N          84.3760   47.0350    2.2290 N.am     10 SEL2        0.0000 
      3 N          84.6680   44.9600    0.3960 N.am      6 SEP2        0.0000 
      4 N          83.2070   46.1780    2.5390 N.am      2 SEC2        0.0000 
      5 N          82.0380   45.3210    2.8490 N.am      6 SEP2        0.0000 
      6 NZ         82.8220   48.5765   -1.4480 N.4       3 LYC4        0.0000 
      7 NZ         83.7770   47.8210   -0.1170 N.4      11 LYL4        0.0000 
      8 NZ         81.8670   49.3320   -2.7790 N.4       7 LYP4        0.0000 
      9 NZ         88.5600   45.6325    2.2760 N.4       3 LYC4        0.0000 
     10 NZ         87.2980   46.7810    2.6910 N.4      11 LYL4        0.0000 
     11 NZ         89.8220   44.4840    1.8610 N.4       7 LYP4        0.0000 
     12 NZ         90.3955   45.6535    1.0695 N.4       3 LYC4        0.0000 
     13 NZ         90.9690   46.8230    0.2780 N.4      11 LYL4        0.0000 
     14 NZ         91.4885   44.9940   -0.2270 N.4       3 LYC4        0.0000 
     15 NZ         92.0080   43.1650   -0.7320 N.4       7 LYP4        0.0000 
     16 N          91.1855   48.5090    0.5725 N.am      2 SEC2        0.0000 
     17 N          90.9690   46.8230    0.2780 N.am     10 SEL2        0.0000 
     18 N          91.4020   50.1950    0.8670 N.am      6 SEP2        0.0000 
     19 N          89.1400   45.6045    1.1695 N.am      2 SEC2        0.0000 
     20 N          88.4580   46.7250    0.4780 N.am     10 SEL2        0.0000 
     21 N          89.8220   44.4840    1.8610 N.am      6 SEP2        0.0000 
     22 CA         88.8140   46.2245   -6.4150 C.3       4 GLC5        0.0000 
     23 CA         89.1880   47.8630   -5.1120 C.3      12 GLL5        0.0000 
     24 CA         88.4400   44.5860   -7.7180 C.3       8 GLP5        0.0000 
     25 N          88.2615   50.0405   -5.7810 N.am      2 SEC2        0.0000 
     26 N          88.2140   48.7020   -5.7310 N.am     10 SEL2        0.0000 
     27 N          88.3090   51.3790   -5.8310 N.am      6 SEP2        0.0000 
     28 O          87.2120   47.8170   -6.0575 O.2       1 ALC1        0.0000 
     29 O          88.2140   48.7020   -5.7310 O.2       9 ALL1        0.0000 
     30 O          86.2100   46.9320   -6.3840 O.2       5 ALP1        0.0000 
     31 CA         96.2495   43.6285   -6.5205 C.3       4 GLC5        0.0000 
     32 CA         94.1640   43.8850   -5.8020 C.3      12 GLL5        0.0000 
     33 CA         98.3350   43.3720   -7.2390 C.3       8 GLP5        0.0000 
     34 CA         94.0270   43.2605   -7.6585 C.3       4 GLC5        0.0000 
     35 CA         93.8900   42.6360   -9.5150 C.3       8 GLP5        0.0000 
     36 N          95.6865   43.7545   -7.9630 N.am      2 SEC2        0.0000 
     37 N          94.6770   44.4500   -6.9160 N.am     10 SEL2        0.0000 
     38 N          96.6960   43.0590   -9.0100 N.am      6 SEP2        0.0000 
     39 CA         94.1265   44.1710   -8.3955 C.3       4 GLC5        0.0000 
     40 CA         94.3630   45.7060   -7.2760 C.3      12 GLL5        0.0000 
     41 CA         93.1980   46.0455   -9.0400 C.3       4 GLC5        0.0000 
     42 CA         92.0330   46.3850  -10.8040 C.3       8 GLP5        0.0000 
     43 CA         92.5935   44.7755   -7.3940 C.3       4 GLC5        0.0000 
     44 CA         90.8240   43.8450   -7.5120 C.3       8 GLP5        0.0000 
     45 CA         94.4660   45.8415   -4.1225 C.3       4 GLC5        0.0000 
     46 CA         92.9500   46.0600   -5.4210 C.3      12 GLL5        0.0000 
     47 CA         95.9820   45.6230   -2.8240 C.3       8 GLP5        0.0000 
     48 CA         94.7698   44.0640   -4.0295 C.3       4 GLC5        0.0000 
     49 CA         93.2410   44.6910   -4.9680 C.3      12 GLL5        0.0000 
     50 CA         95.8370   43.8400   -2.6740 C.3       8 GLP5        0.0000 
     51 CA         92.0751   44.5095   -6.4575 C.3       4 GLC5        0.0000 
@<TRIPOS>BOND
@<TRIPOS>SUBSTRUCTURE
     1 ALC1       28 GROUP        1 X    ALC  0     ROOT ALC X 1
     2 SEC2        1 GROUP        1 X    SEC  0     **** SEC X 2
     3 LYC4        6 GROUP        1 X    LYC  0     **** LYC X 4
     4 GLC5       22 GROUP        1 X    GLC  0     **** GLC X 6
     5 ALP1       30 GROUP        1 Y    ALP  0     ROOT ALP Y 8
     6 SEP2        3 GROUP        1 Y    SEP  0     **** SEP Y 9
     7 LYP4        8 GROUP        1 Y    LYP  0     **** LYP Y 11
     8 GLP5       24 GROUP        1 Y    GLP  0     **** GLP Y 13
     9 ALL1       29 GROUP        1 Z    ALL  0     ROOT ALL Z 15
    10 SEL2        2 GROUP        1 Z    SEL  0     **** SEL Z 16
    11 LYL4        7 GROUP        1 Z    LYL  0     **** LYL Z 18
    12 GLL5       23 GROUP        1 Z    GLL  0     **** GLL Z 20
@<TRIPOS>SET

