#    Name: 3bg5_ATP_1_ligand
#    Modification time : Mon Mar 24 19:22:41 2014

@<TRIPOS>MOLECULE
3bg5_ATP_1_ligand
   43    45     1     0     0
SMALL
NO_CHARGES


@<TRIPOS>ATOM
      1 PG         84.6660   47.9960    1.0960 P.3       1 ATP2100     0.0000 
      2 O1G        84.8260   49.4340    1.5380 O.co2     1 ATP2100     0.0000 
      3 O2G        84.3760   47.0350    2.2290 O.co2     1 ATP2100     0.0000 
      4 O3G        83.7770   47.8210   -0.1170 O.co2     1 ATP2100     0.0000 
      5 PB         87.4860   47.5910    1.4280 P.3       1 ATP2100     0.0000 
      6 O1B        87.2980   46.7810    2.6910 O.co2     1 ATP2100     0.0000 
      7 O2B        87.9720   49.0200    1.5380 O.co2     1 ATP2100     0.0000 
      8 O3B        86.1270   47.5600    0.5490 O.3       1 ATP2100     0.0000 
      9 PA         89.6960   47.3550   -0.3330 P.3       1 ATP2100     0.0000 
     10 O1A        90.9690   46.8230    0.2780 O.co2     1 ATP2100     0.0000 
     11 O2A        89.5030   48.8460   -0.4750 O.co2     1 ATP2100     0.0000 
     12 O3A        88.4580   46.7250    0.4780 O.3       1 ATP2100     0.0000 
     13 O5'        89.5120   46.6850   -1.7850 O.3       1 ATP2100     0.0000 
     14 C5'        88.6280   47.2490   -2.7550 C.3       1 ATP2100     0.0000 
     15 C4'        89.3620   48.2420   -3.6540 C.3       1 ATP2100     0.0000 
     16 O4'        90.7710   48.2580   -3.3890 O.3       1 ATP2100     0.0000 
     17 C3'        89.1880   47.8630   -5.1120 C.3       1 ATP2100     0.0000 
     18 O3'        88.2140   48.7020   -5.7310 O.3       1 ATP2100     0.0000 
     19 C2'        90.5540   48.0550   -5.7340 C.3       1 ATP2100     0.0000 
     20 O2'        90.6560   49.3390   -6.3550 O.3       1 ATP2100     0.0000 
     21 C1'        91.5280   47.9660   -4.5710 C.3       1 ATP2100     0.0000 
     22 N9         92.1080   46.5890   -4.5250 N.pl3     1 ATP2100     0.0000 
     23 C8         91.8740   45.6560   -3.5810 C.2       1 ATP2100     0.0000 
     24 N7         92.5500   44.5070   -3.8320 N.2       1 ATP2100     0.0000 
     25 C5         93.2410   44.6910   -4.9680 C.ar      1 ATP2100     0.0000 
     26 C6         94.1640   43.8850   -5.8020 C.ar      1 ATP2100     0.0000 
     27 N6         94.4870   42.6180   -5.4580 N.pl3     1 ATP2100     0.0000 
     28 N1         94.6770   44.4500   -6.9160 N.ar      1 ATP2100     0.0000 
     29 C2         94.3630   45.7060   -7.2760 C.ar      1 ATP2100     0.0000 
     30 N3         93.5360   46.4950   -6.5650 N.ar      1 ATP2100     0.0000 
     31 C4         92.9500   46.0600   -5.4210 C.ar      1 ATP2100     0.0000 
     32 H          87.7918   47.7849   -2.2787 H         1 ATP2100     0.0000 
     33 H          88.1888   46.4739   -3.4027 H         1 ATP2100     0.0000 
     34 H          88.9327   49.2215   -3.5127 H         1 ATP2100     0.0000 
     35 H          88.9365   46.8272   -5.1592 H         1 ATP2100     0.0000 
     36 H          90.7472   47.2516   -6.3971 H         1 ATP2100     0.0000 
     37 H          92.2993   48.6864   -4.7299 H         1 ATP2100     0.0000 
     38 H          91.2845   45.7877   -2.8017 H         1 ATP2100     0.0000 
     39 H          94.0937   42.2804   -4.6028 H         1 ATP2100     0.0000 
     40 H          95.0905   42.1309   -6.0893 H         1 ATP2100     0.0000 
     41 H          94.7904   46.0987   -8.1707 H         1 ATP2100     0.0000 
     42 H          87.5311   48.0739   -6.1039 H         1 ATP2100     0.0000 
     43 H          89.7115   49.6181   -6.5286 H         1 ATP2100     0.0000 
@<TRIPOS>BOND
     1    2    1 ar   
     2    3    1 ar   
     3    4    1 ar   
     4    8    1 1    
     5    6    5 ar   
     6    7    5 ar   
     7    8    5 1    
     8   12    5 1    
     9   10    9 ar   
    10   11    9 ar   
    11   12    9 1    
    12   13    9 1    
    13   14   13 1    
    14   15   14 1    
    15   32   14 1    
    16   33   14 1    
    17   16   15 1    
    18   17   15 1    
    19   34   15 1    
    20   21   16 1    
    21   18   17 1    
    22   19   17 1    
    23   35   17 1    
    24   42   18 1    
    25   20   19 1    
    26   21   19 1    
    27   36   19 1    
    28   43   20 1    
    29   22   21 1    
    30   37   21 1    
    31   23   22 1    
    32   31   22 1    
    33   24   23 2    
    34   38   23 1    
    35   25   24 1    
    36   26   25 ar   
    37   31   25 ar   
    38   27   26 1    
    39   28   26 ar   
    40   39   27 1    
    41   40   27 1    
    42   29   28 ar   
    43   30   29 ar   
    44   41   29 1    
    45   31   30 ar   
@<TRIPOS>SUBSTRUCTURE
     1 ATP2100     1 GROUP   
@<TRIPOS>SET

