#    Name: 2f43_ADP_2_INTS_M
#    Modification time : Tue Mar 25 12:18:52 2014

@<TRIPOS>MOLECULE
2f43_ADP_2_INTS_M
   43     0    12     0     0
SMALL
NO_CHARGES


@<TRIPOS>ATOM
      1 NZ         62.6585  101.6315   88.2595 N.4       2 LYC4        0.0000 
      2 NZ         63.0230   99.7580   88.6670 N.4      10 LYL4        0.0000 
      3 NZ         62.2940  103.5050   87.8520 N.4       6 LYP4        0.0000 
      4 N          62.1750  100.0365   89.9160 N.am      1 SEC2        0.0000 
      5 N          63.0230   99.7580   88.6670 N.am      9 SEL2        0.0000 
      6 N          61.3270  100.3150   91.1650 N.am      5 SEP2        0.0000 
      7 N          61.8850   99.0275   88.9060 N.am      1 SEC2        0.0000 
      8 N          60.7470   98.2970   89.1450 N.am      5 SEP2        0.0000 
      9 Zn         64.1880   98.0945   87.1960 Zn        3 ZIC7        0.0000 
     10 Zn         64.4240   97.7380   88.4200 Zn       11 ZIL7        0.0000 
     11 Zn         63.9520   98.4510   85.9720 Zn        7 ZIP7        0.0000 
     12 N          65.6565   97.5470   87.2490 N.am      1 SEC2        0.0000 
     13 N          64.4240   97.7380   88.4200 N.am      9 SEL2        0.0000 
     14 N          66.8890   97.3560   86.0780 N.am      5 SEP2        0.0000 
     15 N          62.0210   96.6955   91.3935 N.am      1 SEC2        0.0000 
     16 N          63.1960   97.4230   91.9870 N.am      9 SEL2        0.0000 
     17 N          60.8460   95.9680   90.8000 N.am      5 SEP2        0.0000 
     18 N          63.8285   99.9060   91.7835 N.am      1 SEC2        0.0000 
     19 N          64.2920   99.0200   90.5600 N.am      9 SEL2        0.0000 
     20 N          63.3650  100.7920   93.0070 N.am      5 SEP2        0.0000 
     21 N          62.8095   99.6675   90.8625 N.am      1 SEC2        0.0000 
     22 CA         66.9730  100.0880   91.8080 C.3       4 GLC5        0.0000 
     23 CA         66.6930   98.6490   92.8450 C.3      12 GLL5        0.0000 
     24 CA         67.2530  101.5270   90.7710 C.3       8 GLP5        0.0000 
     25 CA         65.8050  100.6155   93.1775 C.3       4 GLC5        0.0000 
     26 CA         64.9170  102.5820   93.5100 C.3       8 GLP5        0.0000 
     27 CA         65.6565   99.3030   97.0400 C.3       4 GLC5        0.0000 
     28 CA         66.4670   97.7710   96.3210 C.3      12 GLL5        0.0000 
     29 CA         64.8460  100.8350   97.7590 C.3       8 GLP5        0.0000 
     30 CA         63.1035   97.7075  100.2365 C.3       4 GLC5        0.0000 
     31 CA         64.1270   96.2970   99.8530 C.3      12 GLL5        0.0000 
     32 CA         62.0800   99.1180  100.6200 C.3       8 GLP5        0.0000 
     33 CA         63.0520   94.5025   99.4705 C.3       4 GLC5        0.0000 
     34 CA         61.9770   92.7080   99.0880 C.3       8 GLP5        0.0000 
     35 CA         67.8963   94.8160   95.7378 C.3       4 GLC5        0.0000 
     36 CA         67.3360   96.5330   95.9890 C.3      12 GLL5        0.0000 
     37 CA         68.4060   93.0570   96.2710 C.3       8 GLP5        0.0000 
     38 CA         61.6440   95.7280   96.1278 C.3       4 GLC5        0.0000 
     39 CA         63.0130   96.6360   97.3160 C.3      12 GLL5        0.0000 
     40 CA         60.7220   95.0350   94.3950 C.3       8 GLP5        0.0000 
     41 CA         62.2715   94.5645   98.4742 C.3       4 GLC5        0.0000 
     42 CA         62.1190   96.2060   98.4050 C.3      12 GLL5        0.0000 
     43 CA         62.7790   97.8798   99.1849 C.3       4 GLC5        0.0000 
@<TRIPOS>BOND
@<TRIPOS>SUBSTRUCTURE
     1 SEC2        4 GROUP        1 X    SEC  0     ROOT SEC X 2
     2 LYC4        1 GROUP        1 X    LYC  0     **** LYC X 4
     3 ZIC7        9 GROUP        1 X    ZIC  0     **** ZIC X 5
     4 GLC5       22 GROUP        1 X    GLC  0     **** GLC X 6
     5 SEP2        6 GROUP        1 Y    SEP  0     ROOT SEP Y 9
     6 LYP4        3 GROUP        1 Y    LYP  0     **** LYP Y 11
     7 ZIP7       11 GROUP        1 Y    ZIP  0     **** ZIP Y 12
     8 GLP5       24 GROUP        1 Y    GLP  0     **** GLP Y 13
     9 SEL2        5 GROUP        1 Z    SEL  0     ROOT SEL Z 16
    10 LYL4        2 GROUP        1 Z    LYL  0     **** LYL Z 18
    11 ZIL7       10 GROUP        1 Z    ZIL  0     **** ZIL Z 19
    12 GLL5       23 GROUP        1 Z    GLL  0     **** GLL Z 20
@<TRIPOS>SET

