#    Name: 2f43_ADP_2_ligand
#    Modification time : Tue Mar 25 12:18:52 2014

@<TRIPOS>MOLECULE
2f43_ADP_2_ligand
   39    41     1     0     0
SMALL
NO_CHARGES


@<TRIPOS>ATOM
      1 PB         64.3130   99.1700   88.9800 P.3       1 ADP604      0.0000 
      2 O1B        65.4690  100.0130   88.7600 O.co2     1 ADP604      0.0000 
      3 O2B        63.0230   99.7580   88.6670 O.co2     1 ADP604      0.0000 
      4 O3B        64.4240   97.7380   88.4200 O.co2     1 ADP604      0.0000 
      5 PA         64.5330   97.7620   91.4670 P.3       1 ADP604      0.0000 
      6 O1A        63.1960   97.4230   91.9870 O.co2     1 ADP604      0.0000 
      7 O2A        65.2260   96.6100   90.7700 O.co2     1 ADP604      0.0000 
      8 O3A        64.2920   99.0200   90.5600 O.3       1 ADP604      0.0000 
      9 O5'        65.2880   98.2680   92.7540 O.3       1 ADP604      0.0000 
     10 C5'        66.6930   98.6490   92.8450 C.3       1 ADP604      0.0000 
     11 C4'        67.4220   98.1380   94.1130 C.3       1 ADP604      0.0000 
     12 O4'        66.6840   98.7190   95.2450 O.3       1 ADP604      0.0000 
     13 C3'        67.4370   96.6170   94.4200 C.3       1 ADP604      0.0000 
     14 O3'        68.6700   96.0860   93.8850 O.3       1 ADP604      0.0000 
     15 C2'        67.3360   96.5330   95.9890 C.3       1 ADP604      0.0000 
     16 O2'        68.5860   96.7150   96.6950 O.3       1 ADP604      0.0000 
     17 C1'        66.4670   97.7710   96.3210 C.3       1 ADP604      0.0000 
     18 N9         64.9920   97.3140   96.4660 N.pl3     1 ADP604      0.0000 
     19 C8         63.9880   97.2910   95.4860 C.2       1 ADP604      0.0000 
     20 N7         62.7570   96.9040   95.9620 N.2       1 ADP604      0.0000 
     21 C5         63.0130   96.6360   97.3160 C.ar      1 ADP604      0.0000 
     22 C6         62.1190   96.2060   98.4050 C.ar      1 ADP604      0.0000 
     23 N6         60.8380   95.9980   98.2990 N.pl3     1 ADP604      0.0000 
     24 N1         62.7600   96.0560   99.6460 N.ar      1 ADP604      0.0000 
     25 C2         64.1270   96.2970   99.8530 C.ar      1 ADP604      0.0000 
     26 N3         64.9800   96.6810   98.8740 N.ar      1 ADP604      0.0000 
     27 C4         64.3900   96.8620   97.6390 C.ar      1 ADP604      0.0000 
     28 H          66.8036   99.7548   92.8255 H         1 ADP604      0.0000 
     29 H          67.2608   98.2742   91.9660 H         1 ADP604      0.0000 
     30 H          68.4211   98.5170   94.1378 H         1 ADP604      0.0000 
     31 H          66.5699   96.1971   94.0017 H         1 ADP604      0.0000 
     32 H          66.7953   95.6856   96.2539 H         1 ADP604      0.0000 
     33 H          66.8087   98.1529   97.2606 H         1 ADP604      0.0000 
     34 H          64.1633   97.5326   94.5463 H         1 ADP604      0.0000 
     35 H          60.4449   96.1280   97.3887 H         1 ADP604      0.0000 
     36 H          60.3653   95.7274   99.1376 H         1 ADP604      0.0000 
     37 H          64.4927   96.1655  100.8379 H         1 ADP604      0.0000 
     38 H          69.2502   95.9248   94.6834 H         1 ADP604      0.0000 
     39 H          68.6878   97.7053   96.7898 H         1 ADP604      0.0000 
@<TRIPOS>BOND
     1    2    1 ar   
     2    3    1 ar   
     3    4    1 ar   
     4    8    1 1    
     5    6    5 ar   
     6    7    5 ar   
     7    8    5 1    
     8    9    5 1    
     9   10    9 1    
    10   11   10 1    
    11   28   10 1    
    12   29   10 1    
    13   12   11 1    
    14   13   11 1    
    15   30   11 1    
    16   17   12 1    
    17   14   13 1    
    18   15   13 1    
    19   31   13 1    
    20   38   14 1    
    21   16   15 1    
    22   17   15 1    
    23   32   15 1    
    24   39   16 1    
    25   18   17 1    
    26   33   17 1    
    27   19   18 1    
    28   27   18 1    
    29   20   19 2    
    30   34   19 1    
    31   21   20 1    
    32   22   21 ar   
    33   27   21 ar   
    34   23   22 1    
    35   24   22 ar   
    36   35   23 1    
    37   36   23 1    
    38   25   24 ar   
    39   26   25 ar   
    40   37   25 1    
    41   27   26 ar   
@<TRIPOS>SUBSTRUCTURE
     1 ADP604      1 GROUP   
@<TRIPOS>SET

