#    Name: 1u4o_NDD_1_INTS_M
#    Modification time : Tue Mar 25 06:09:03 2014

@<TRIPOS>MOLECULE
1u4o_NDD_1_INTS_M
   32     0     6     0     0
SMALL
NO_CHARGES


@<TRIPOS>ATOM
      1 CA         29.5860   17.3440    1.5785 C.3       2 GLC5        0.0000 
      2 CA         30.0170   17.6880    3.7200 C.3       6 GLL5        0.0000 
      3 CA         29.1550   17.0000   -0.5630 C.3       4 GLP5        0.0000 
      4 CA         30.8160   19.6925    3.2530 C.3       2 GLC5        0.0000 
      5 CA         29.4580   18.5830    4.6320 C.3       6 GLL5        0.0000 
      6 CA         32.1740   20.8020    1.8740 C.3       4 GLP5        0.0000 
      7 CA         27.6375   22.3980    7.0910 C.3       2 GLC5        0.0000 
      8 CA         28.3500   20.3670    6.4850 C.3       6 GLL5        0.0000 
      9 CA         26.9250   24.4290    7.6970 C.3       4 GLP5        0.0000 
     10 N          35.1710   18.7940    5.7575 N.am      1 SEC2        0.0000 
     11 N          34.2300   17.7420    6.0010 N.am      5 SEL2        0.0000 
     12 N          36.1120   19.8460    5.5140 N.am      3 SEP2        0.0000 
     13 N          24.4205   21.4265    6.3155 N.am      1 SEC2        0.0000 
     14 N          25.6370   20.9190    6.2440 N.am      5 SEL2        0.0000 
     15 N          23.2040   21.9340    6.3870 N.am      3 SEP2        0.0000 
     16 CA         32.9600   19.5903    5.9582 C.3       2 GLC5        0.0000 
     17 CA         31.5090   18.5130    5.9700 C.3       6 GLL5        0.0000 
     18 CA         34.1460   21.1240    6.4160 C.3       4 GLP5        0.0000 
     19 CA         32.5290   19.0143    4.0172 C.3       2 GLC5        0.0000 
     20 CA         33.2840   19.9720    2.5340 C.3       4 GLP5        0.0000 
     21 CA         31.9733   18.7085    3.1740 C.3       2 GLC5        0.0000 
     22 CA         31.3080   17.2020    3.9080 C.3       6 GLL5        0.0000 
     23 CA         28.6001   21.0689    4.0681 C.3       2 GLC5        0.0000 
     24 CA         27.6170   19.9450    5.3670 C.3       6 GLL5        0.0000 
     25 CA         28.9850   22.7490    3.1820 C.3       4 GLP5        0.0000 
     26 CA         28.9543   20.9548    8.2370 C.3       2 GLC5        0.0000 
     27 CA         29.6450   19.9160    6.6930 C.3       6 GLL5        0.0000 
     28 CA         28.9110   21.7680    9.8850 C.3       4 GLP5        0.0000 
     29 CA         29.2952   21.7613    5.4870 C.3       2 GLC5        0.0000 
     30 CA         29.5930   23.3810    4.3850 C.3       4 GLP5        0.0000 
     31 CA         30.8766   21.0876    6.5605 C.3       2 GLC5        0.0000 
     32 CA         32.1370   22.5970    6.9270 C.3       4 GLP5        0.0000 
@<TRIPOS>BOND
@<TRIPOS>SUBSTRUCTURE
     1 SEC2       10 GROUP        1 X    SEC  0     ROOT SEC X 2
     2 GLC5        1 GROUP        1 X    GLC  0     **** GLC X 6
     3 SEP2       12 GROUP        1 Y    SEP  0     ROOT SEP Y 9
     4 GLP5        3 GROUP        1 Y    GLP  0     **** GLP Y 13
     5 SEL2       11 GROUP        1 Z    SEL  0     ROOT SEL Z 16
     6 GLL5        2 GROUP        1 Z    GLL  0     **** GLL Z 20
@<TRIPOS>SET

