#    Name: 1u4o_NDD_1_ligand
#    Modification time : Tue Mar 25 06:09:03 2014

@<TRIPOS>MOLECULE
1u4o_NDD_1_ligand
   22    23     1     0     0
SMALL
NO_CHARGES


@<TRIPOS>ATOM
      1 C1         31.5090   18.5130    5.9700 C.ar      1 NDD401      0.0000 
      2 C2         32.0390   17.6000    5.0310 C.ar      1 NDD401      0.0000 
      3 C3         31.3080   17.2020    3.9080 C.ar      1 NDD401      0.0000 
      4 C4         30.0170   17.6880    3.7200 C.ar      1 NDD401      0.0000 
      5 C4A        29.4580   18.5830    4.6320 C.ar      1 NDD401      0.0000 
      6 C5         28.1690   19.0820    4.4510 C.ar      1 NDD401      0.0000 
      7 C6         27.6170   19.9450    5.3670 C.ar      1 NDD401      0.0000 
      8 C7         28.3500   20.3670    6.4850 C.ar      1 NDD401      0.0000 
      9 C8         29.6450   19.9160    6.6930 C.ar      1 NDD401      0.0000 
     10 C8A        30.2350   19.0150    5.7990 C.ar      1 NDD401      0.0000 
     11 C2'        33.4300   17.0800    5.2120 C.2       1 NDD401      0.0000 
     12 O1'        33.8060   16.0420    4.6550 O.co2     1 NDD401      0.0000 
     13 O2'        34.2300   17.7420    6.0010 O.co2     1 NDD401      0.0000 
     14 C6'        26.2280   20.4170    5.1670 C.2       1 NDD401      0.0000 
     15 O3'        25.6310   20.3060    4.0990 O.co2     1 NDD401      0.0000 
     16 O4'        25.6370   20.9190    6.2440 O.co2     1 NDD401      0.0000 
     17 H          32.0824   18.7934    6.7733 H         1 NDD401      0.0000 
     18 H          31.7218   16.5567    3.2291 H         1 NDD401      0.0000 
     19 H          29.4693   17.3848    2.9011 H         1 NDD401      0.0000 
     20 H          27.6296   18.7945    3.6158 H         1 NDD401      0.0000 
     21 H          27.9160   21.0196    7.1559 H         1 NDD401      0.0000 
     22 H          30.1814   20.2433    7.5100 H         1 NDD401      0.0000 
@<TRIPOS>BOND
     1    2    1 ar   
     2   10    1 ar   
     3   17    1 1    
     4    3    2 ar   
     5   11    2 1    
     6    4    3 ar   
     7   18    3 1    
     8    5    4 ar   
     9   19    4 1    
    10    6    5 ar   
    11   10    5 ar   
    12    7    6 ar   
    13   20    6 1    
    14    8    7 ar   
    15   14    7 1    
    16    9    8 ar   
    17   21    8 1    
    18   10    9 ar   
    19   22    9 1    
    20   12   11 ar   
    21   13   11 ar   
    22   15   14 ar   
    23   16   14 ar   
@<TRIPOS>SUBSTRUCTURE
     1 NDD401      1 GROUP   
@<TRIPOS>SET

