#    Name: 1yfj_SAH_6_INTS_M
#    Modification time : Mon Apr  7 15:45:52 2014

@<TRIPOS>MOLECULE
1yfj_SAH_6_INTS_M
   63     0     9     0     0
SMALL
NO_CHARGES


@<TRIPOS>ATOM
      1 O         123.1375  164.1875   -4.8845 O.2       1 ALC1        0.0000 
      2 O         122.4740  165.4710   -5.5780 O.2       7 ALL1        0.0000 
      3 O         123.8010  162.9040   -4.1910 O.2       4 ALP1        0.0000 
      4 O         123.5390  166.3170   -5.1490 O.2       1 ALC1        0.0000 
      5 O         124.6040  167.1630   -4.7200 O.2       4 ALP1        0.0000 
      6 CA        121.4245  163.7425   -5.2170 C.3       3 GLC5        0.0000 
      7 CA        121.6070  165.2150   -6.8130 C.3       9 GLL5        0.0000 
      8 CA        121.2420  162.2700   -3.6210 C.3       6 GLP5        0.0000 
      9 CA        123.2885  166.5095   -6.9075 C.3       3 GLC5        0.0000 
     10 CA        124.9700  167.8040   -7.0020 C.3       6 GLP5        0.0000 
     11 CA        123.8785  166.0315  -10.1475 C.3       3 GLC5        0.0000 
     12 CA        123.4580  164.6810   -8.6080 C.3       9 GLL5        0.0000 
     13 CA        124.2990  167.3820  -11.6870 C.3       6 GLP5        0.0000 
     14 CA        124.2140  166.2425   -7.8050 C.3       3 GLC5        0.0000 
     15 CA        122.8400  161.5565   -9.6155 C.3       3 GLC5        0.0000 
     16 CA        124.0130  163.0960   -9.3670 C.3       9 GLL5        0.0000 
     17 CA        121.6670  160.0170   -9.8640 C.3       6 GLP5        0.0000 
     18 CA        121.9180  163.2615  -10.1180 C.3       3 GLC5        0.0000 
     19 CA        119.8230  163.4270  -10.8690 C.3       6 GLP5        0.0000 
     20 N         120.6415  164.3875   -3.6855 N.am      2 SEC2        0.0000 
     21 N         120.0230  164.4750   -5.0740 N.am      8 SEL2        0.0000 
     22 N         121.2600  164.3000   -2.2970 N.am      5 SEP2        0.0000 
     23 N         117.7900  164.6045   -6.4985 N.am      2 SEC2        0.0000 
     24 N         119.3470  164.3550   -7.2050 N.am      8 SEL2        0.0000 
     25 N         116.2330  164.8540   -5.7920 N.am      5 SEP2        0.0000 
     26 CA        122.6105  161.2820  -11.2355 C.3       3 GLC5        0.0000 
     27 CA        123.5540  162.5470  -12.6070 C.3       9 GLL5        0.0000 
     28 CA        121.6885  162.9870  -11.7380 C.3       3 GLC5        0.0000 
     29 O         121.7425  161.1380  -12.2630 O.2       1 ALC1        0.0000 
     30 O         122.1710  162.5800  -12.3080 O.2       7 ALL1        0.0000 
     31 O         121.3140  159.6960  -12.2180 O.2       4 ALP1        0.0000 
     32 CA        124.9745  160.9980  -13.9270 C.3       3 GLC5        0.0000 
     33 CA        123.8860  162.6700  -14.1460 C.3       9 GLL5        0.0000 
     34 CA        126.0630  159.3260  -13.7080 C.3       6 GLP5        0.0000 
     35 CA        125.3690  165.6765  -13.7665 C.3       3 GLC5        0.0000 
     36 CA        124.4600  164.0770  -14.2660 C.3       9 GLL5        0.0000 
     37 CA        126.2780  167.2760  -13.2670 C.3       6 GLP5        0.0000 
     38 CA        126.9530  168.3110  -18.3435 C.3       3 GLC5        0.0000 
     39 CA        126.4270  166.5980  -17.8420 C.3       9 GLL5        0.0000 
     40 CA        127.4790  170.0240  -18.8450 C.3       6 GLP5        0.0000 
     41 CA        122.8875  166.6675  -16.3785 C.3       3 GLC5        0.0000 
     42 CA        124.6760  167.6900  -16.5860 C.3       9 GLL5        0.0000 
     43 CA        121.0990  165.6450  -16.1710 C.3       6 GLP5        0.0000 
     44 CA        124.5075  166.0695  -18.0700 C.3       3 GLC5        0.0000 
     45 CA        124.3390  164.4490  -19.5540 C.3       6 GLP5        0.0000 
     46 CA        126.0775  168.8570  -17.7155 C.3       3 GLC5        0.0000 
     47 N         123.4970  165.8985  -16.8990 N.am      2 SEC2        0.0000 
     48 N         124.4570  166.6280  -15.7420 N.am      8 SEL2        0.0000 
     49 N         122.5370  165.1690  -18.0560 N.am      5 SEP2        0.0000 
     50 CA        123.1825  165.5980  -16.0830 C.3       3 GLC5        0.0000 
     51 CA        125.2660  165.5510  -15.9950 C.3       9 GLL5        0.0000 
     52 CA        121.3113  163.9733   -9.5665 C.3       3 GLC5        0.0000 
     53 CA        125.4870  162.0290   -9.8270 C.3       3 GLC5        0.0000 
     54 CA        126.4320  160.7260   -9.6320 C.3       6 GLP5        0.0000 
     55 CA        124.4770  165.5205  -11.5182 C.3       3 GLC5        0.0000 
     56 CA        125.0710  163.5680  -10.6770 C.3       9 GLL5        0.0000 
     57 CA        124.5572  161.3352  -11.8202 C.3       3 GLC5        0.0000 
     58 CA        124.2390  163.7500  -12.0220 C.3       9 GLL5        0.0000 
     59 CA        125.2180  159.5220  -11.3260 C.3       6 GLP5        0.0000 
     60 CA        122.3260  163.9748  -14.7465 C.3       3 GLC5        0.0000 
     61 CA        120.4790  164.5760  -15.2870 C.3       6 GLP5        0.0000 
     62 CA        125.0678  165.1196  -18.1281 C.3       3 GLC5        0.0000 
     63 CA        126.2270  165.4610  -16.9770 C.3       9 GLL5        0.0000 
@<TRIPOS>BOND
@<TRIPOS>SUBSTRUCTURE
     1 ALC1        1 GROUP        1 X    ALC  0     ROOT ALC X 1
     2 SEC2       20 GROUP        1 X    SEC  0     **** SEC X 2
     3 GLC5        6 GROUP        1 X    GLC  0     **** GLC X 6
     4 ALP1        3 GROUP        1 Y    ALP  0     ROOT ALP Y 8
     5 SEP2       22 GROUP        1 Y    SEP  0     **** SEP Y 9
     6 GLP5        8 GROUP        1 Y    GLP  0     **** GLP Y 13
     7 ALL1        2 GROUP        1 Z    ALL  0     ROOT ALL Z 15
     8 SEL2       21 GROUP        1 Z    SEL  0     **** SEL Z 16
     9 GLL5        7 GROUP        1 Z    GLL  0     **** GLL Z 20
@<TRIPOS>SET

