#    Name: 1yfj_SAH_6_ligand
#    Modification time : Mon Apr  7 15:45:52 2014

@<TRIPOS>MOLECULE
1yfj_SAH_6_ligand
   46    48     1     0     0
SMALL
NO_CHARGES


@<TRIPOS>ATOM
      1 N         122.4740  165.4710   -5.5780 N.4       1 SAH406      0.0000 
      2 CA        121.6070  165.2150   -6.8130 C.3       1 SAH406      0.0000 
      3 CB        122.1410  164.3580   -7.9200 C.3       1 SAH406      0.0000 
      4 CG        123.4580  164.6810   -8.6080 C.3       1 SAH406      0.0000 
      5 SD        124.0130  163.0960   -9.3670 S.3       1 SAH406      0.0000 
      6 C         120.2150  164.6320   -6.2940 C.2       1 SAH406      0.0000 
      7 O         120.0230  164.4750   -5.0740 O.co2     1 SAH406      0.0000 
      8 OXT       119.3470  164.3550   -7.2050 O.co2     1 SAH406      0.0000 
      9 C5'       125.0710  163.5680  -10.6770 C.3       1 SAH406      0.0000 
     10 C4'       124.2390  163.7500  -12.0220 C.3       1 SAH406      0.0000 
     11 O4'       125.1990  164.0840  -13.0070 O.3       1 SAH406      0.0000 
     12 C3'       123.5540  162.5470  -12.6070 C.3       1 SAH406      0.0000 
     13 O3'       122.1710  162.5800  -12.3080 O.3       1 SAH406      0.0000 
     14 C2'       123.8860  162.6700  -14.1460 C.3       1 SAH406      0.0000 
     15 O2'       122.7450  162.4530  -14.9600 O.3       1 SAH406      0.0000 
     16 C1'       124.4600  164.0770  -14.2660 C.3       1 SAH406      0.0000 
     17 N9        125.2870  164.3070  -15.2990 N.pl3     1 SAH406      0.0000 
     18 C8        126.2750  163.5730  -15.9420 C.2       1 SAH406      0.0000 
     19 N7        126.8620  164.1840  -16.9280 N.2       1 SAH406      0.0000 
     20 C5        126.2270  165.4610  -16.9770 C.ar      1 SAH406      0.0000 
     21 C6        126.4270  166.5980  -17.8420 C.ar      1 SAH406      0.0000 
     22 N6        127.3280  166.6330  -18.8320 N.pl3     1 SAH406      0.0000 
     23 N1        125.6070  167.6760  -17.5790 N.ar      1 SAH406      0.0000 
     24 C2        124.6760  167.6900  -16.5860 C.ar      1 SAH406      0.0000 
     25 N3        124.4570  166.6280  -15.7420 N.ar      1 SAH406      0.0000 
     26 C4        125.2660  165.5510  -15.9950 C.ar      1 SAH406      0.0000 
     27 H         121.3234  166.2135   -7.2298 H         1 SAH406      0.0000 
     28 H         121.3413  164.2769   -8.7296 H         1 SAH406      0.0000 
     29 H         122.2047  163.2829   -7.5436 H         1 SAH406      0.0000 
     30 H         124.2448  164.8903   -7.9583 H         1 SAH406      0.0000 
     31 H         123.3691  165.2953   -9.4445 H         1 SAH406      0.0000 
     32 H         125.7695  162.7779  -10.7631 H         1 SAH406      0.0000 
     33 H         125.5004  164.4837  -10.3658 H         1 SAH406      0.0000 
     34 H         123.5557  164.5529  -11.8917 H         1 SAH406      0.0000 
     35 H         124.0602  161.6755  -12.2534 H         1 SAH406      0.0000 
     36 H         124.6889  161.9745  -14.3266 H         1 SAH406      0.0000 
     37 H         123.6346  164.7535  -14.1488 H         1 SAH406      0.0000 
     38 H         126.4892  162.6342  -15.6317 H         1 SAH406      0.0000 
     39 H         127.8776  165.8069  -18.9562 H         1 SAH406      0.0000 
     40 H         127.3705  167.4821  -19.3584 H         1 SAH406      0.0000 
     41 H         124.0882  168.5607  -16.4529 H         1 SAH406      0.0000 
     42 H         123.3352  165.9203   -5.8155 H         1 SAH406      0.0000 
     43 H         122.0106  166.0579   -4.9141 H         1 SAH406      0.0000 
     44 H         122.7073  164.6212   -5.1054 H         1 SAH406      0.0000 
     45 H         121.8808  161.6231  -12.3201 H         1 SAH406      0.0000 
     46 H         121.9841  162.3566  -14.3184 H         1 SAH406      0.0000 
@<TRIPOS>BOND
     1    2    1 1    
     2   42    1 1    
     3   43    1 1    
     4   44    1 1    
     5    3    2 1    
     6    6    2 1    
     7   27    2 1    
     8    4    3 1    
     9   28    3 1    
    10   29    3 1    
    11    5    4 1    
    12   30    4 1    
    13   31    4 1    
    14    9    5 1    
    15    7    6 ar   
    16    8    6 ar   
    17   10    9 1    
    18   32    9 1    
    19   33    9 1    
    20   11   10 1    
    21   12   10 1    
    22   34   10 1    
    23   16   11 1    
    24   13   12 1    
    25   14   12 1    
    26   35   12 1    
    27   45   13 1    
    28   15   14 1    
    29   16   14 1    
    30   36   14 1    
    31   46   15 1    
    32   17   16 1    
    33   37   16 1    
    34   18   17 1    
    35   26   17 1    
    36   19   18 2    
    37   38   18 1    
    38   20   19 1    
    39   21   20 ar   
    40   26   20 ar   
    41   22   21 1    
    42   23   21 ar   
    43   39   22 1    
    44   40   22 1    
    45   24   23 ar   
    46   25   24 ar   
    47   41   24 1    
    48   26   25 ar   
@<TRIPOS>SUBSTRUCTURE
     1 SAH406      1 GROUP   
@<TRIPOS>SET

