#    Name: 2HPV_2_CAVITY_N1_6.mol2
#    Modification time : Mon Mar 10 17:33:21 2014

@<TRIPOS>MOLECULE
2HPV_2_CAVITY_N1_6.mol2
   96     0     6     0     0
SMALL
NO_CHARGES


@<TRIPOS>ATOM
      1 CA         49.0496   46.1243   28.7425 C.3       5 GLY6        0.0000 
      2 O          50.2853   46.2630   27.9036 O.2       2 ALA2        0.0000 
      3 N          48.3059   45.5831   27.5575 N.2       2 ALA2        0.0000 
      4 CA         49.5416   45.7219   26.7186 C.3       5 GLY6        0.0000 
      5 CA         50.7774   45.8606   25.8798 C.3       5 GLY6        0.0000 
      6 O          48.7980   45.1807   25.5337 O.2       2 ALA2        0.0000 
      7 CA         50.0337   45.3194   24.6948 C.3       5 GLY6        0.0000 
      8 CA         51.2694   45.4582   23.8559 C.3       5 GLY6        0.0000 
      9 CA         52.5051   45.5969   23.0170 C.3       5 GLY6        0.0000 
     10 CZ         50.5257   44.9170   22.6710 C.ar      4 PHE5        0.0000 
     11 N          50.1257   44.2836   32.7053 N.2       2 ALA2        0.0000 
     12 N          51.3614   44.4224   31.8664 N.2       2 ALA2        0.0000 
     13 O          52.5971   44.5611   31.0276 O.2       2 ALA2        0.0000 
     14 DU         49.3820   43.7425   31.5204 H         6 CUB7        0.0000 
     15 DU         50.6177   43.8812   30.6815 H         6 CUB7        0.0000 
     16 DU         51.8534   44.0200   29.8426 H         6 CUB7        0.0000 
     17 OG         53.0892   44.1587   29.0037 O.2       1 SER1        0.0000 
     18 DU         48.6383   43.2013   30.3354 H         6 CUB7        0.0000 
     19 DU         49.8740   43.3401   29.4965 H         6 CUB7        0.0000 
     20 DU         51.1098   43.4788   28.6576 H         6 CUB7        0.0000 
     21 OG         52.3455   43.6176   27.8188 O.2       1 SER1        0.0000 
     22 OG         47.8947   42.6602   29.1505 O.2       1 SER1        0.0000 
     23 DU         49.1304   42.7989   28.3116 H         6 CUB7        0.0000 
     24 DU         50.3661   42.9377   27.4727 H         6 CUB7        0.0000 
     25 OG         51.6018   43.0764   26.6338 O.2       1 SER1        0.0000 
     26 OG         55.3090   43.4926   24.1171 O.2       1 SER1        0.0000 
     27 CZ         48.3867   42.2578   27.1266 C.ar      4 PHE5        0.0000 
     28 CZ         49.6224   42.3965   26.2877 C.ar      4 PHE5        0.0000 
     29 CZ         50.8582   42.5353   25.4488 C.ar      4 PHE5        0.0000 
     30 OG         52.0939   42.6740   24.6100 O.2       1 SER1        0.0000 
     31 OG         53.3296   42.8127   23.7711 O.2       1 SER1        0.0000 
     32 CA         52.1849   45.9532   30.6505 C.3       5 GLY6        0.0000 
     33 O          48.9697   45.1346   31.1434 O.2       2 ALA2        0.0000 
     34 N          50.2055   45.2733   30.3045 N.2       2 ALA2        0.0000 
     35 CA         51.4412   45.4120   29.4656 C.3       5 GLY6        0.0000 
     36 N          48.2261   44.5934   29.9584 N.2       2 ALA2        0.0000 
     37 O          49.4618   44.7322   29.1195 O.2       2 ALA2        0.0000 
     38 OG         50.6975   44.8709   28.2806 O.2       1 SER1        0.0000 
     39 N          47.4824   44.0523   28.7734 N.2       2 ALA2        0.0000 
     40 O          48.7181   44.1910   27.9346 O.2       2 ALA2        0.0000 
     41 DU         49.9539   44.3298   27.0957 H         6 CUB7        0.0000 
     42 OG         51.1896   44.4685   26.2568 O.2       1 SER1        0.0000 
     43 O          46.7387   43.5111   27.5885 O.2       2 ALA2        0.0000 
     44 O          47.9745   43.6499   26.7496 O.2       2 ALA2        0.0000 
     45 CZ         49.2102   43.7886   25.9107 C.ar      4 PHE5        0.0000 
     46 CZ         50.4459   43.9274   25.0718 C.ar      4 PHE5        0.0000 
     47 OG         51.6816   44.0661   24.2329 O.2       1 SER1        0.0000 
     48 OG         52.9174   44.2048   23.3940 O.2       1 SER1        0.0000 
     49 NZ         50.2065   40.9583   32.2744 N.2       3 LYS4        0.0000 
     50 NZ         51.4422   41.0970   31.4355 N.2       3 LYS4        0.0000 
     51 CA         52.6779   41.2358   30.5966 C.3       5 GLY6        0.0000 
     52 OG         49.4628   40.4172   31.0895 O.2       1 SER1        0.0000 
     53 OG         50.6985   40.5559   30.2506 O.2       1 SER1        0.0000 
     54 DU         51.9342   40.6946   29.4117 H         6 CUB7        0.0000 
     55 N          53.1700   40.8334   28.5728 N.2       2 ALA2        0.0000 
     56 N          54.4057   40.9721   27.7339 N.2       2 ALA2        0.0000 
     57 N          55.6414   41.1108   26.8950 N.2       2 ALA2        0.0000 
     58 CA         56.8771   41.2496   26.0561 C.3       5 GLY6        0.0000 
     59 OG         49.9549   40.0148   29.0656 O.2       1 SER1        0.0000 
     60 CZ         51.1906   40.1535   28.2267 C.ar      4 PHE5        0.0000 
     61 N          52.4263   40.2922   27.3878 N.2       2 ALA2        0.0000 
     62 N          53.6620   40.4310   26.5490 N.2       2 ALA2        0.0000 
     63 N          54.8978   40.5697   25.7101 N.2       2 ALA2        0.0000 
     64 N          56.1335   40.7084   24.8712 N.2       2 ALA2        0.0000 
     65 CZ         50.4469   39.6123   27.0418 C.ar      4 PHE5        0.0000 
     66 CA         51.6826   39.7511   26.2029 C.3       5 GLY6        0.0000 
     67 CA         52.9184   39.8898   25.3640 C.3       5 GLY6        0.0000 
     68 NZ         50.5379   42.8915   33.0824 N.2       3 LYS4        0.0000 
     69 CA         51.7736   43.0303   32.2435 C.3       5 GLY6        0.0000 
     70 DU         49.7942   42.3504   31.8974 H         6 CUB7        0.0000 
     71 CA         51.0299   42.4891   31.0585 C.3       5 GLY6        0.0000 
     72 CA         52.2657   42.6279   30.2196 C.3       5 GLY6        0.0000 
     73 O          53.5014   42.7666   29.3807 O.2       2 ALA2        0.0000 
     74 OG         49.0506   41.8093   30.7124 O.2       1 SER1        0.0000 
     75 OG         50.2863   41.9480   29.8736 O.2       1 SER1        0.0000 
     76 DU         51.5220   42.0867   29.0347 H         6 CUB7        0.0000 
     77 OG         52.7577   42.2255   28.1958 O.2       1 SER1        0.0000 
     78 OG         53.9935   42.3642   27.3569 O.2       1 SER1        0.0000 
     79 OG         55.2292   42.5029   26.5180 O.2       1 SER1        0.0000 
     80 CZ         56.4649   42.6417   25.6791 C.ar      4 PHE5        0.0000 
     81 OG         49.5426   41.4068   28.6886 O.2       1 SER1        0.0000 
     82 DU         50.7783   41.5456   27.8497 H         6 CUB7        0.0000 
     83 OG         52.0141   41.6843   27.0108 O.2       1 SER1        0.0000 
     84 OG         53.2498   41.8231   26.1719 O.2       1 SER1        0.0000 
     85 OG         54.4855   41.9618   25.3330 O.2       1 SER1        0.0000 
     86 OG         55.7212   42.1005   24.4942 O.2       1 SER1        0.0000 
     87 OG         48.7989   40.8657   27.5036 O.2       1 SER1        0.0000 
     88 CZ         50.0347   41.0044   26.6648 C.ar      4 PHE5        0.0000 
     89 CA         51.2704   41.1432   25.8259 C.3       5 GLY6        0.0000 
     90 CA         52.5061   41.2819   24.9870 C.3       5 GLY6        0.0000 
     91 DU         53.7418   41.4206   24.1481 H         6 CUB7        0.0000 
     92 NZ         51.8544   39.7050   31.8126 N.2       3 LYS4        0.0000 
     93 OG         49.8750   39.0251   31.4665 O.2       1 SER1        0.0000 
     94 OG         51.1108   39.1638   30.6276 O.2       1 SER1        0.0000 
     95 OG         50.3671   38.6227   29.4426 O.2       1 SER1        0.0000 
     96 CZ         51.6028   38.7614   28.6038 C.ar      4 PHE5        0.0000 
@<TRIPOS>BOND
@<TRIPOS>SUBSTRUCTURE
     1 SER1       17 GROUP   
     2 ALA2        2 GROUP   
     3 LYS4       49 GROUP   
     4 PHE5       10 GROUP   
     5 GLY6        1 GROUP   
     6 CUB7       14 GROUP   
@<TRIPOS>SET

