#    Name: 2hpv_FMN_2_INTS_M
#    Modification time : Tue Mar 25 16:53:55 2014

@<TRIPOS>MOLECULE
2hpv_FMN_2_INTS_M
   68     0     9     0     0
SMALL
NO_CHARGES


@<TRIPOS>ATOM
      1 N          53.4600   43.6105   31.7020 N.am      2 SEC2        0.0000 
      2 N          52.0760   43.8460   30.9060 N.am      8 SEL2        0.0000 
      3 N          54.8440   43.3750   32.4980 N.am      5 SEP2        0.0000 
      4 N          54.8945   42.7310   29.9000 N.am      2 SEC2        0.0000 
      5 N          53.7550   43.6160   29.4290 N.am      8 SEL2        0.0000 
      6 N          56.0340   41.8460   30.3710 N.am      5 SEP2        0.0000 
      7 O          53.1760   44.9455   27.7300 O.2       1 ALC1        0.0000 
      8 O          52.0560   44.9600   28.8160 O.2       7 ALL1        0.0000 
      9 O          54.2960   44.9310   26.6440 O.2       4 ALP1        0.0000 
     10 N          50.4765   47.8225   28.0580 N.am      2 SEC2        0.0000 
     11 N          50.4920   46.5180   28.3540 N.am      8 SEL2        0.0000 
     12 N          50.4610   49.1270   27.7620 N.am      5 SEP2        0.0000 
     13 N          48.7460   47.0845   30.2395 N.am      2 SEC2        0.0000 
     14 N          48.9990   45.7360   30.6220 N.am      8 SEL2        0.0000 
     15 N          48.4930   48.4330   29.8570 N.am      5 SEP2        0.0000 
     16 CA         47.2455   47.6985   33.2280 C.3       3 GLC5        0.0000 
     17 CA         46.5380   45.7450   33.3550 C.3       9 GLL5        0.0000 
     18 CA         47.9530   49.6520   33.1010 C.3       6 GLP5        0.0000 
     19 CA         44.0765   47.7045   33.9910 C.3       3 GLC5        0.0000 
     20 CA         45.2540   46.4850   33.6440 C.3       9 GLL5        0.0000 
     21 CA         42.8990   48.9240   34.3380 C.3       6 GLP5        0.0000 
     22 CA         46.9600   47.2120   34.2805 C.3       3 GLC5        0.0000 
     23 CA         48.6660   47.9390   34.9170 C.3       6 GLP5        0.0000 
     24 CA         45.5835   45.5455   37.4325 C.3       3 GLC5        0.0000 
     25 CA         46.6030   44.8140   35.7430 C.3       9 GLL5        0.0000 
     26 CA         44.5640   46.2770   39.1220 C.3       6 GLP5        0.0000 
     27 CA         47.6345   46.3765   35.3300 C.3       3 GLC5        0.0000 
     28 N          53.6945   44.3255   33.1160 N.am      2 SEC2        0.0000 
     29 N          52.5450   45.2760   33.7340 N.am      8 SEL2        0.0000 
     30 O          51.8430   46.3545   33.3360 O.2       1 ALC1        0.0000 
     31 O          52.5450   45.2760   33.7340 O.2       7 ALL1        0.0000 
     32 O          51.1410   47.4330   32.9380 O.2       4 ALP1        0.0000 
     33 O          52.1080   41.4040   35.1985 O.2       1 ALC1        0.0000 
     34 O          52.0060   42.4280   35.9200 O.2       7 ALL1        0.0000 
     35 O          52.2100   40.3800   34.4770 O.2       4 ALP1        0.0000 
     36 N          54.3665   42.1220   37.3685 N.am      2 SEC2        0.0000 
     37 N          54.6790   43.3860   36.8350 N.am      8 SEL2        0.0000 
     38 N          54.0540   40.8580   37.9020 N.am      5 SEP2        0.0000 
     39 O          55.7250   44.0800   37.2015 O.2       1 ALC1        0.0000 
     40 O          54.6790   43.3860   36.8350 O.2       7 ALL1        0.0000 
     41 O          56.7710   44.7740   37.5680 O.2       4 ALP1        0.0000 
     42 CA         52.2795   46.6740   37.3580 C.3       3 GLC5        0.0000 
     43 CA         52.7290   44.6810   37.3880 C.3       9 GLL5        0.0000 
     44 CA         51.8300   48.6670   37.3280 C.3       6 GLP5        0.0000 
     45 N          51.0875   47.0205   40.4935 N.am      2 SEC2        0.0000 
     46 N          51.4640   45.9180   39.8160 N.am      8 SEL2        0.0000 
     47 N          50.7110   48.1230   41.1710 N.am      5 SEP2        0.0000 
     48 N          54.1490   44.5500   41.5770 N.am      2 SEC2        0.0000 
     49 N          53.3240   44.3720   40.4660 N.am      8 SEL2        0.0000 
     50 N          54.9740   44.7280   42.6880 N.am      5 SEP2        0.0000 
     51 N          53.5585   47.1640   41.7685 N.am      2 SEC2        0.0000 
     52 N          53.7010   46.7400   40.5410 N.am      8 SEL2        0.0000 
     53 N          53.4160   47.5880   42.9960 N.am      5 SEP2        0.0000 
     54 N          55.0295   46.8770   41.0680 N.am      2 SEC2        0.0000 
     55 N          56.3580   47.0140   41.5950 N.am      5 SEP2        0.0000 
     56 N          54.3525   48.0200   40.5145 N.am      2 SEC2        0.0000 
     57 N          55.0040   49.3000   40.4880 N.am      5 SEP2        0.0000 
     58 CA         48.3863   47.4060   32.0565 C.3       3 GLC5        0.0000 
     59 CA         48.4110   45.4550   31.8430 C.3       9 GLL5        0.0000 
     60 CA         48.9830   49.0810   32.1200 C.3       6 GLP5        0.0000 
     61 CA         54.6520   44.5772   34.4490 C.3       3 GLC5        0.0000 
     62 CA         52.7580   43.4100   35.2510 C.3       9 GLL5        0.0000 
     63 CA         56.1150   45.3580   33.1380 C.3       6 GLP5        0.0000 
     64 CA         53.3489   42.7654   33.4470 C.3       3 GLC5        0.0000 
     65 CA         54.5880   41.9330   32.3260 C.3       6 GLP5        0.0000 
     66 CA         54.9032   45.3175   37.2757 C.3       3 GLC5        0.0000 
     67 CA         53.6200   44.1830   36.2690 C.3       9 GLL5        0.0000 
     68 CA         56.6320   46.2030   37.7230 C.3       6 GLP5        0.0000 
@<TRIPOS>BOND
@<TRIPOS>SUBSTRUCTURE
     1 ALC1        7 GROUP        1 X    ALC  0     ROOT ALC X 1
     2 SEC2        1 GROUP        1 X    SEC  0     **** SEC X 2
     3 GLC5       16 GROUP        1 X    GLC  0     **** GLC X 6
     4 ALP1        9 GROUP        1 Y    ALP  0     ROOT ALP Y 8
     5 SEP2        3 GROUP        1 Y    SEP  0     **** SEP Y 9
     6 GLP5       18 GROUP        1 Y    GLP  0     **** GLP Y 13
     7 ALL1        8 GROUP        1 Z    ALL  0     ROOT ALL Z 15
     8 SEL2        2 GROUP        1 Z    SEL  0     **** SEL Z 16
     9 GLL5       17 GROUP        1 Z    GLL  0     **** GLL Z 20
@<TRIPOS>SET

