#    Name: 2hpv_FMN_2_ligand
#    Modification time : Tue Mar 25 16:53:55 2014

@<TRIPOS>MOLECULE
2hpv_FMN_2_ligand
   50    52     1     0     0
SMALL
NO_CHARGES


@<TRIPOS>ATOM
      1 N1         52.0760   43.8460   30.9060 N.2       1 FMN1201     0.0000 
      2 C2         52.6700   44.1120   29.7110 C.2       1 FMN1201     0.0000 
      3 O2         53.7550   43.6160   29.4290 O.2       1 FMN1201     0.0000 
      4 N3         52.0560   44.9600   28.8160 N.am      1 FMN1201     0.0000 
      5 C4         50.8110   45.5320   29.0570 C.2       1 FMN1201     0.0000 
      6 O4         50.4920   46.5180   28.3540 O.2       1 FMN1201     0.0000 
      7 C4A        50.2180   45.2470   30.2910 C.2       1 FMN1201     0.0000 
      8 N5         48.9990   45.7360   30.6220 N.2       1 FMN1201     0.0000 
      9 C5A        48.4110   45.4550   31.8430 C.ar      1 FMN1201     0.0000 
     10 C6         47.1680   46.0070   32.1430 C.ar      1 FMN1201     0.0000 
     11 C7         46.5380   45.7450   33.3550 C.ar      1 FMN1201     0.0000 
     12 C7M        45.2540   46.4850   33.6440 C.3       1 FMN1201     0.0000 
     13 C8         47.1520   44.8970   34.3190 C.ar      1 FMN1201     0.0000 
     14 C8M        46.6030   44.8140   35.7430 C.3       1 FMN1201     0.0000 
     15 C9         48.3980   44.3330   34.0190 C.ar      1 FMN1201     0.0000 
     16 C9A        49.0500   44.6200   32.7730 C.ar      1 FMN1201     0.0000 
     17 N10        50.2800   44.0730   32.4040 N.pl3     1 FMN1201     0.0000 
     18 C10        50.8500   44.3950   31.1980 C.2       1 FMN1201     0.0000 
     19 C1'        51.1330   43.3020   33.3650 C.3       1 FMN1201     0.0000 
     20 C2'        51.7900   44.2690   34.4050 C.3       1 FMN1201     0.0000 
     21 O2'        52.5450   45.2760   33.7340 O.3       1 FMN1201     0.0000 
     22 C3'        52.7580   43.4100   35.2510 C.3       1 FMN1201     0.0000 
     23 O3'        52.0060   42.4280   35.9200 O.3       1 FMN1201     0.0000 
     24 C4'        53.6200   44.1830   36.2690 C.3       1 FMN1201     0.0000 
     25 O4'        54.6790   43.3860   36.8350 O.3       1 FMN1201     0.0000 
     26 C5'        52.7290   44.6810   37.3880 C.3       1 FMN1201     0.0000 
     27 O5'        53.4440   45.5540   38.2180 O.3       1 FMN1201     0.0000 
     28 P          52.9750   45.6580   39.7640 P.3       1 FMN1201     0.0000 
     29 O1P        51.4640   45.9180   39.8160 O.co2     1 FMN1201     0.0000 
     30 O2P        53.3240   44.3720   40.4660 O.co2     1 FMN1201     0.0000 
     31 O3P        53.7010   46.7400   40.5410 O.co2     1 FMN1201     0.0000 
     32 H          52.5421   45.1873   27.9146 H         1 FMN1201     0.0000 
     33 H          46.7053   46.6234   31.4508 H         1 FMN1201     0.0000 
     34 H          48.8611   43.7079   34.6848 H         1 FMN1201     0.0000 
     35 H          51.9300   42.7848   32.8387 H         1 FMN1201     0.0000 
     36 H          50.5349   42.5787   33.9116 H         1 FMN1201     0.0000 
     37 H          51.0370   44.6468   35.0333 H         1 FMN1201     0.0000 
     38 H          53.4501   42.9198   34.5425 H         1 FMN1201     0.0000 
     39 H          54.0231   45.0576   35.7619 H         1 FMN1201     0.0000 
     40 H          52.3558   43.7995   37.9342 H         1 FMN1201     0.0000 
     41 H          51.8548   45.1681   36.9262 H         1 FMN1201     0.0000 
     42 H          45.3902   47.4756   33.6527 H         1 FMN1201     0.0000 
     43 H          44.5516   46.2917   32.9589 H         1 FMN1201     0.0000 
     44 H          44.8727   46.2338   34.5337 H         1 FMN1201     0.0000 
     45 H          47.1319   44.1813   36.3087 H         1 FMN1201     0.0000 
     46 H          46.6223   45.7028   36.2009 H         1 FMN1201     0.0000 
     47 H          45.6546   44.4974   35.7575 H         1 FMN1201     0.0000 
     48 H          51.8768   45.9766   33.4837 H         1 FMN1201     0.0000 
     49 H          51.6867   41.8117   35.2002 H         1 FMN1201     0.0000 
     50 H          55.3600   44.0469   37.1500 H         1 FMN1201     0.0000 
@<TRIPOS>BOND
     1    2    1 1    
     2   18    1 2    
     3    3    2 2    
     4    4    2 am   
     5    5    4 am   
     6   32    4 1    
     7    6    5 2    
     8    7    5 1    
     9    8    7 2    
    10   18    7 1    
    11    9    8 1    
    12   10    9 ar   
    13   16    9 ar   
    14   11   10 ar   
    15   33   10 1    
    16   12   11 1    
    17   13   11 ar   
    18   42   12 1    
    19   43   12 1    
    20   44   12 1    
    21   14   13 1    
    22   15   13 ar   
    23   45   14 1    
    24   46   14 1    
    25   47   14 1    
    26   16   15 ar   
    27   34   15 1    
    28   17   16 1    
    29   18   17 1    
    30   19   17 1    
    31   20   19 1    
    32   35   19 1    
    33   36   19 1    
    34   21   20 1    
    35   22   20 1    
    36   37   20 1    
    37   48   21 1    
    38   23   22 1    
    39   24   22 1    
    40   38   22 1    
    41   49   23 1    
    42   25   24 1    
    43   26   24 1    
    44   39   24 1    
    45   50   25 1    
    46   27   26 1    
    47   40   26 1    
    48   41   26 1    
    49   28   27 1    
    50   29   28 ar   
    51   30   28 ar   
    52   31   28 ar   
@<TRIPOS>SUBSTRUCTURE
     1 FMN1201     1 GROUP   
@<TRIPOS>SET

