#    Name: 4h1v_GNP_1_INTS_M
#    Modification time : Tue Mar 25 00:07:27 2014

@<TRIPOS>MOLECULE
4h1v_GNP_1_INTS_M
   58     0     9     0     0
SMALL
NO_CHARGES


@<TRIPOS>ATOM
      1 N         -10.9505   28.4410  -24.6930 N.am      2 SEC2        0.0000 
      2 N         -10.8300   27.3020  -25.4240 N.am      8 SEL2        0.0000 
      3 N         -11.0710   29.5800  -23.9620 N.am      5 SEP2        0.0000 
      4 N          -8.5485   28.0265  -22.2160 N.am      2 SEC2        0.0000 
      5 N          -8.8810   27.3350  -23.7760 N.am      8 SEL2        0.0000 
      6 N          -8.2160   28.7180  -20.6560 N.am      5 SEP2        0.0000 
      7 N          -9.3860   25.3355  -20.0810 N.am      2 SEC2        0.0000 
      8 N          -9.5530   26.2440  -21.5300 N.am      8 SEL2        0.0000 
      9 N          -9.2190   24.4270  -18.6320 N.am      5 SEP2        0.0000 
     10 N         -11.7225   24.1805  -20.4345 N.am      2 SEC2        0.0000 
     11 N         -11.9020   25.3380  -21.7300 N.am      8 SEL2        0.0000 
     12 N         -11.5430   23.0230  -19.1390 N.am      5 SEP2        0.0000 
     13 N         -11.2775   22.8850  -21.6675 N.am      2 SEC2        0.0000 
     14 N          -9.9800   23.9070  -21.9100 N.am      8 SEL2        0.0000 
     15 N         -12.5750   21.8630  -21.4250 N.am      5 SEP2        0.0000 
     16 N          -9.6280   20.9285  -21.7800 N.am      2 SEC2        0.0000 
     17 N          -8.3760   22.1070  -21.9380 N.am      8 SEL2        0.0000 
     18 N         -10.8800   19.7500  -21.6220 N.am      5 SEP2        0.0000 
     19 N          -8.1915   20.8875  -21.7950 N.am      2 SEC2        0.0000 
     20 N          -8.0070   19.6680  -21.6520 N.am      5 SEP2        0.0000 
     21 CA         -6.8245   26.0205  -20.6020 C.3       3 GLC5        0.0000 
     22 CA         -6.5570   24.0000  -21.2020 C.3       9 GLL5        0.0000 
     23 CA         -7.0920   28.0410  -20.0020 C.3       6 GLP5        0.0000 
     24 CA         -7.8415   23.5035  -20.0590 C.3       3 GLC5        0.0000 
     25 CA         -9.1260   23.0070  -18.9160 C.3       6 GLP5        0.0000 
     26 N          -4.1805   24.2745  -19.6350 N.am      2 SEC2        0.0000 
     27 N          -4.3070   23.2080  -20.8800 N.am      8 SEL2        0.0000 
     28 N          -4.0540   25.3410  -18.3900 N.am      5 SEP2        0.0000 
     29 O          -5.0095   19.2350  -23.0195 O.2       1 ALC1        0.0000 
     30 O          -4.0530   20.5470  -23.0370 O.2       7 ALL1        0.0000 
     31 O          -5.9660   17.9230  -23.0020 O.2       4 ALP1        0.0000 
     32 CA         -4.3640   22.9610  -19.3420 C.3       3 GLC5        0.0000 
     33 CA         -4.1890   21.8020  -20.9920 C.3       9 GLL5        0.0000 
     34 CA         -4.5390   24.1200  -17.6920 C.3       6 GLP5        0.0000 
     35 CA         -3.0610   19.9070  -21.2880 C.3       3 GLC5        0.0000 
     36 CA         -1.9330   18.0120  -21.5840 C.3       6 GLP5        0.0000 
     37 CA         -4.7155   21.4630  -16.7190 C.3       3 GLC5        0.0000 
     38 CA         -4.9520   20.1430  -17.8630 C.3       9 GLL5        0.0000 
     39 CA         -4.4790   22.7830  -15.5750 C.3       6 GLP5        0.0000 
     40 CA         -6.0635   18.5270  -17.9875 C.3       3 GLC5        0.0000 
     41 CA         -7.1750   16.9110  -18.1120 C.3       6 GLP5        0.0000 
     42 N          -5.3355   19.9610  -14.6295 N.am      2 SEC2        0.0000 
     43 N          -5.2130   19.0120  -15.7740 N.am      8 SEL2        0.0000 
     44 N          -5.4580   20.9100  -13.4850 N.am      5 SEP2        0.0000 
     45 N          -5.5990   17.6670  -15.9100 N.am      2 SEC2        0.0000 
     46 N          -5.9850   16.3220  -16.0460 N.am      5 SEP2        0.0000 
     47 O          -2.2765   19.0835  -15.4010 O.2       1 ALC1        0.0000 
     48 O          -3.1380   19.2980  -16.6820 O.2       7 ALL1        0.0000 
     49 O          -1.4150   18.8690  -14.1200 O.2       4 ALP1        0.0000 
     50 O          -0.3745   18.7780  -16.3945 O.2       1 ALC1        0.0000 
     51 O          -0.9750   19.5070  -17.4650 O.2       7 ALL1        0.0000 
     52 O           0.2260   18.0490  -15.3240 O.2       4 ALP1        0.0000 
     53 O          -1.1950   19.1880  -15.7925 O.2       1 ALC1        0.0000 
     54 CA         -4.2775   22.3385  -18.2385 C.3       3 GLC5        0.0000 
     55 CA         -4.0160   20.5570  -18.7850 C.3       9 GLL5        0.0000 
     56 CA         -2.9745   19.2845  -20.1845 C.3       3 GLC5        0.0000 
     57 CA         -5.2153   23.9898  -19.6150 C.3       3 GLC5        0.0000 
     58 CA         -5.2260   23.7190  -21.8740 C.3       9 GLL5        0.0000 
@<TRIPOS>BOND
@<TRIPOS>SUBSTRUCTURE
     1 ALC1       29 GROUP        1 X    ALC  0     ROOT ALC X 1
     2 SEC2        1 GROUP        1 X    SEC  0     **** SEC X 2
     3 GLC5       21 GROUP        1 X    GLC  0     **** GLC X 6
     4 ALP1       31 GROUP        1 Y    ALP  0     ROOT ALP Y 8
     5 SEP2        3 GROUP        1 Y    SEP  0     **** SEP Y 9
     6 GLP5       23 GROUP        1 Y    GLP  0     **** GLP Y 13
     7 ALL1       30 GROUP        1 Z    ALL  0     ROOT ALL Z 15
     8 SEL2        2 GROUP        1 Z    SEL  0     **** SEL Z 16
     9 GLL5       22 GROUP        1 Z    GLL  0     **** GLL Z 20
@<TRIPOS>SET

