#    Name: 4h1v_GNP_1_ligand
#    Modification time : Tue Mar 25 00:07:27 2014

@<TRIPOS>MOLECULE
4h1v_GNP_1_ligand
   44    46     1     0     0
SMALL
NO_CHARGES


@<TRIPOS>ATOM
      1 PG         -9.7920   26.5170  -24.6600 P.3       1 GNP801      0.0000 
      2 O1G       -10.8300   27.3020  -25.4240 O.co2     1 GNP801      0.0000 
      3 O2G        -8.8810   27.3350  -23.7760 O.co2     1 GNP801      0.0000 
      4 O3G        -9.0980   25.7050  -25.7280 O.co2     1 GNP801      0.0000 
      5 N3B       -10.5590   25.4520  -23.7660 N.4       1 GNP801      0.0000 
      6 PB        -10.4940   25.3090  -22.1860 P.3       1 GNP801      0.0000 
      7 O1B        -9.5530   26.2440  -21.5300 O.co2     1 GNP801      0.0000 
      8 O2B       -11.9020   25.3380  -21.7300 O.co2     1 GNP801      0.0000 
      9 O3A        -9.9800   23.9070  -21.9100 O.3       1 GNP801      0.0000 
     10 PA         -8.6920   23.4160  -22.5510 P.3       1 GNP801      0.0000 
     11 O1A        -8.3760   22.1070  -21.9380 O.co2     1 GNP801      0.0000 
     12 O2A        -8.8010   23.4700  -24.0250 O.co2     1 GNP801      0.0000 
     13 O5'        -7.5430   24.4170  -22.1350 O.3       1 GNP801      0.0000 
     14 C5'        -6.5570   24.0000  -21.2020 C.3       1 GNP801      0.0000 
     15 C4'        -5.2260   23.7190  -21.8740 C.3       1 GNP801      0.0000 
     16 O4'        -4.3070   23.2080  -20.8800 O.3       1 GNP801      0.0000 
     17 C3'        -5.2510   22.6710  -22.9790 C.3       1 GNP801      0.0000 
     18 O3'        -4.2810   22.9850  -23.9720 O.3       1 GNP801      0.0000 
     19 C2'        -4.9120   21.3630  -22.2640 C.3       1 GNP801      0.0000 
     20 O2'        -4.0530   20.5470  -23.0370 O.3       1 GNP801      0.0000 
     21 C1'        -4.1890   21.8020  -20.9920 C.3       1 GNP801      0.0000 
     22 N9         -4.7290   21.1860  -19.7820 N.pl3     1 GNP801      0.0000 
     23 C8         -6.0480   21.1140  -19.4030 C.2       1 GNP801      0.0000 
     24 N7         -6.2320   20.5010  -18.2670 N.2       1 GNP801      0.0000 
     25 C5         -4.9520   20.1430  -17.8630 C.2       1 GNP801      0.0000 
     26 C6         -4.5220   19.4550  -16.7030 C.2       1 GNP801      0.0000 
     27 O6         -5.2130   19.0120  -15.7740 O.2       1 GNP801      0.0000 
     28 N1         -3.1380   19.2980  -16.6820 N.am      1 GNP801      0.0000 
     29 C2         -2.2800   19.7500  -17.6580 C.2       1 GNP801      0.0000 
     30 N2         -0.9750   19.5070  -17.4650 N.pl3     1 GNP801      0.0000 
     31 N3         -2.6710   20.3960  -18.7490 N.2       1 GNP801      0.0000 
     32 C4         -4.0160   20.5570  -18.7850 C.2       1 GNP801      0.0000 
     33 H          -6.8649   23.0797  -20.6693 H         1 GNP801      0.0000 
     34 H          -6.3843   24.7674  -20.4230 H         1 GNP801      0.0000 
     35 H          -4.8259   24.6374  -22.2817 H         1 GNP801      0.0000 
     36 H          -6.2400   22.6035  -23.3522 H         1 GNP801      0.0000 
     37 H          -5.8171   20.8893  -21.9794 H         1 GNP801      0.0000 
     38 H          -3.1391   21.5291  -21.1042 H         1 GNP801      0.0000 
     39 H          -6.7742   21.5077  -19.9728 H         1 GNP801      0.0000 
     40 H          -2.7195   18.7894  -15.8454 H         1 GNP801      0.0000 
     41 H          -0.7328   19.0642  -16.6017 H         1 GNP801      0.0000 
     42 H          -0.3610   19.7904  -18.2017 H         1 GNP801      0.0000 
     43 H          -3.7727   22.1357  -24.1149 H         1 GNP801      0.0000 
     44 H          -4.5239   19.6675  -23.1053 H         1 GNP801      0.0000 
@<TRIPOS>BOND
     1    2    1 ar   
     2    3    1 ar   
     3    4    1 ar   
     4    5    1 1    
     5    6    5 1    
     6    7    6 ar   
     7    8    6 ar   
     8    9    6 1    
     9   10    9 1    
    10   11   10 ar   
    11   12   10 ar   
    12   13   10 1    
    13   14   13 1    
    14   15   14 1    
    15   33   14 1    
    16   34   14 1    
    17   16   15 1    
    18   17   15 1    
    19   35   15 1    
    20   21   16 1    
    21   18   17 1    
    22   19   17 1    
    23   36   17 1    
    24   43   18 1    
    25   20   19 1    
    26   21   19 1    
    27   37   19 1    
    28   44   20 1    
    29   22   21 1    
    30   38   21 1    
    31   23   22 1    
    32   32   22 1    
    33   24   23 2    
    34   39   23 1    
    35   25   24 1    
    36   26   25 1    
    37   32   25 2    
    38   27   26 2    
    39   28   26 am   
    40   29   28 1    
    41   40   28 1    
    42   30   29 1    
    43   31   29 2    
    44   41   30 1    
    45   42   30 1    
    46   32   31 1    
@<TRIPOS>SUBSTRUCTURE
     1 GNP801      1 GROUP   
@<TRIPOS>SET

