#    Name: 2y8e_GNP_2_INTS_M
#    Modification time : Tue Mar 25 07:57:25 2014

@<TRIPOS>MOLECULE
2y8e_GNP_2_INTS_M
   75     0    15     0     0
SMALL
NO_CHARGES


@<TRIPOS>ATOM
      1 Zn        -51.0510  -10.8285   18.1630 Zn        4 ZIC7        0.0000 
      2 Zn        -51.4880  -11.4780   18.7800 Zn       14 ZIL7        0.0000 
      3 Zn        -50.6140  -10.1790   17.5460 Zn        9 ZIP7        0.0000 
      4 N         -50.2180  -12.2040   19.1630 N.am      2 SEC2        0.0000 
      5 N         -51.4880  -11.4780   18.7800 N.am     12 SEL2        0.0000 
      6 N         -48.9480  -12.9300   19.5460 N.am      7 SEP2        0.0000 
      7 NZ        -54.6545  -10.5715   19.2340 N.4       3 LYC4        0.0000 
      8 NZ        -53.8640  -11.6200   19.5230 N.4      13 LYL4        0.0000 
      9 NZ        -55.4450   -9.5230   18.9450 N.4       8 LYP4        0.0000 
     10 N         -54.6545  -10.5715   19.2340 N.am      2 SEC2        0.0000 
     11 N         -53.8640  -11.6200   19.5230 N.am     12 SEL2        0.0000 
     12 N         -55.4450   -9.5230   18.9450 N.am      7 SEP2        0.0000 
     13 N         -54.0025  -11.2740   20.9105 N.am      2 SEC2        0.0000 
     14 N         -54.1410  -10.9280   22.2980 N.am      7 SEP2        0.0000 
     15 N         -52.7805  -14.8490   18.7105 N.am      2 SEC2        0.0000 
     16 N         -52.5130  -13.7200   19.1060 N.am     12 SEL2        0.0000 
     17 N         -53.0480  -15.9780   18.3150 N.am      7 SEP2        0.0000 
     18 NZ        -55.0685   -9.9375   17.6260 N.4       3 LYC4        0.0000 
     19 NZ        -54.6920  -10.3520   16.3070 N.4      13 LYL4        0.0000 
     20 N         -55.3680  -10.3205   14.9770 N.am      2 SEC2        0.0000 
     21 N         -54.6920  -10.3520   16.3070 N.am     12 SEL2        0.0000 
     22 N         -56.0440  -10.2890   13.6470 N.am      7 SEP2        0.0000 
     23 N         -54.6195   -9.2045   15.3930 N.am      2 SEC2        0.0000 
     24 N         -54.5470   -8.0570   14.4790 N.am      7 SEP2        0.0000 
     25 N         -55.0685   -9.9375   17.6260 N.am      2 SEC2        0.0000 
     26 Zn        -51.3970  -10.1820   16.8890 Zn        4 ZIC7        0.0000 
     27 Zn        -52.1800  -10.1850   16.2320 Zn       14 ZIL7        0.0000 
     28 N         -51.9185   -8.9240   15.4765 N.am      2 SEC2        0.0000 
     29 N         -52.1800  -10.1850   16.2320 N.am     12 SEL2        0.0000 
     30 N         -51.6570   -7.6630   14.7210 N.am      7 SEP2        0.0000 
     31 N         -54.7415  -10.9965   14.1760 N.am      2 SEC2        0.0000 
     32 N         -53.4390  -11.7040   14.7050 N.am     12 SEL2        0.0000 
     33 N         -51.4195   -9.4315   12.5270 N.am      2 SEC2        0.0000 
     34 N         -51.9320  -10.7030   12.9660 N.am     12 SEL2        0.0000 
     35 N         -50.9070   -8.1600   12.0880 N.am      7 SEP2        0.0000 
     36 N         -51.5915  -10.6115   11.6760 N.am      2 SEC2        0.0000 
     37 N         -51.2510  -10.5200   10.3860 N.am      7 SEP2        0.0000 
     38 CA        -54.7640  -14.1230   14.3965 C.3       5 GLC5        0.0000 
     39 CA        -53.5650  -14.1090   12.9850 C.3      15 GLL5        0.0000 
     40 CA        -55.9630  -14.1370   15.8080 C.3      10 GLP5        0.0000 
     41 CA        -51.6590  -16.6045   12.2150 C.3       5 GLC5        0.0000 
     42 CA        -52.4250  -15.2870   11.0180 C.3      15 GLL5        0.0000 
     43 CA        -50.8930  -17.9220   13.4120 C.3      10 GLP5        0.0000 
     44 O         -50.6170  -14.3720    8.3210 O.2       1 ALC1        0.0000 
     45 O         -51.9340  -14.6810    8.6970 O.2      11 ALL1        0.0000 
     46 O         -49.3000  -14.0630    7.9450 O.2       6 ALP1        0.0000 
     47 CA        -56.0880  -13.5610   10.0715 C.3       5 GLC5        0.0000 
     48 CA        -54.0690  -14.1920    9.6950 C.3      15 GLL5        0.0000 
     49 CA        -58.1070  -12.9300   10.4480 C.3      10 GLP5        0.0000 
     50 N         -56.1155   -9.6775    9.4900 N.am      2 SEC2        0.0000 
     51 N         -54.9400  -10.7060    9.0600 N.am     12 SEL2        0.0000 
     52 N         -57.2910   -8.6490    9.9200 N.am      7 SEP2        0.0000 
     53 CA        -57.3700  -11.4140    8.3795 C.3       5 GLC5        0.0000 
     54 CA        -55.5220  -11.3830    8.0000 C.3      15 GLL5        0.0000 
     55 CA        -59.2180  -11.4450    8.7590 C.3      10 GLP5        0.0000 
     56 CA        -54.6715   -9.4195    7.7770 C.3       5 GLC5        0.0000 
     57 CA        -53.8210   -7.4560    7.5540 C.3      10 GLP5        0.0000 
     58 N         -55.3840   -9.2270    5.6025 N.am      2 SEC2        0.0000 
     59 N         -56.5430   -9.7260    6.5700 N.am     12 SEL2        0.0000 
     60 N         -54.2250   -8.7280    4.6350 N.am      7 SEP2        0.0000 
     61 O         -57.4745  -11.4435    5.0130 O.2       1 ALC1        0.0000 
     62 O         -56.6800  -11.9320    6.0440 O.2      11 ALL1        0.0000 
     63 O         -58.2690  -10.9550    3.9820 O.2       6 ALP1        0.0000 
     64 O         -57.2805  -12.4255    4.5395 O.2       1 ALC1        0.0000 
     65 O         -57.8810  -12.9190    3.0350 O.2       6 ALP1        0.0000 
     66 O         -57.3870  -13.5265    4.1710 O.2       1 ALC1        0.0000 
     67 O         -56.8930  -14.1340    5.3070 O.2      11 ALL1        0.0000 
     68 CA        -56.6945  -12.8360    9.2630 C.3       5 GLC5        0.0000 
     69 CA        -55.2820  -12.7420    8.0780 C.3      15 GLL5        0.0000 
     70 CA        -52.4887  -15.3257   13.7432 C.3       5 GLC5        0.0000 
     71 CA        -53.6920  -15.0620   11.8220 C.3      15 GLL5        0.0000 
     72 CA        -51.3490  -16.0660   15.0830 C.3      10 GLP5        0.0000 
     73 CA        -52.7905  -13.4660    7.9090 C.3       5 GLC5        0.0000 
     74 CA        -52.5530  -14.2660    9.8950 C.3      15 GLL5        0.0000 
     75 CA        -52.2700  -12.7030    6.0230 C.3      10 GLP5        0.0000 
@<TRIPOS>BOND
@<TRIPOS>SUBSTRUCTURE
     1 ALC1       44 GROUP        1 X    ALC  0     ROOT ALC X 1
     2 SEC2        4 GROUP        1 X    SEC  0     **** SEC X 2
     3 LYC4        7 GROUP        1 X    LYC  0     **** LYC X 4
     4 ZIC7        1 GROUP        1 X    ZIC  0     **** ZIC X 5
     5 GLC5       38 GROUP        1 X    GLC  0     **** GLC X 6
     6 ALP1       46 GROUP        1 Y    ALP  0     ROOT ALP Y 8
     7 SEP2        6 GROUP        1 Y    SEP  0     **** SEP Y 9
     8 LYP4        9 GROUP        1 Y    LYP  0     **** LYP Y 11
     9 ZIP7        3 GROUP        1 Y    ZIP  0     **** ZIP Y 12
    10 GLP5       40 GROUP        1 Y    GLP  0     **** GLP Y 13
    11 ALL1       45 GROUP        1 Z    ALL  0     ROOT ALL Z 15
    12 SEL2        5 GROUP        1 Z    SEL  0     **** SEL Z 16
    13 LYL4        8 GROUP        1 Z    LYL  0     **** LYL Z 18
    14 ZIL7        2 GROUP        1 Z    ZIL  0     **** ZIL Z 19
    15 GLL5       39 GROUP        1 Z    GLL  0     **** GLL Z 20
@<TRIPOS>SET

