#    Name: 2y8e_GNP_2_ligand
#    Modification time : Tue Mar 25 07:57:25 2014

@<TRIPOS>MOLECULE
2y8e_GNP_2_ligand
   44    46     1     0     0
SMALL
NO_CHARGES


@<TRIPOS>ATOM
      1 PG        -52.7730  -12.2910   18.7570 P.3       1 GNP1176     0.0000 
      2 O1G       -51.4880  -11.4780   18.7800 O.co2     1 GNP1176     0.0000 
      3 O2G       -53.8640  -11.6200   19.5230 O.co2     1 GNP1176     0.0000 
      4 O3G       -52.5130  -13.7200   19.1060 O.co2     1 GNP1176     0.0000 
      5 N3B       -53.2560  -12.3050   17.1620 N.4       1 GNP1176     0.0000 
      6 PB        -53.3950  -11.0370   16.1390 P.3       1 GNP1176     0.0000 
      7 O1B       -54.6920  -10.3520   16.3070 O.co2     1 GNP1176     0.0000 
      8 O2B       -52.1800  -10.1850   16.2320 O.co2     1 GNP1176     0.0000 
      9 O3A       -53.4390  -11.7040   14.7050 O.3       1 GNP1176     0.0000 
     10 PA        -52.2520  -11.9580   13.6770 P.3       1 GNP1176     0.0000 
     11 O1A       -51.9320  -10.7030   12.9660 O.co2     1 GNP1176     0.0000 
     12 O2A       -51.1800  -12.6870   14.3800 O.co2     1 GNP1176     0.0000 
     13 O5'       -52.9480  -12.8870   12.6050 O.3       1 GNP1176     0.0000 
     14 C5'       -53.5650  -14.1090   12.9850 C.3       1 GNP1176     0.0000 
     15 C4'       -53.6920  -15.0620   11.8220 C.3       1 GNP1176     0.0000 
     16 O4'       -54.6730  -14.4700   10.9240 O.3       1 GNP1176     0.0000 
     17 C3'       -52.4250  -15.2870   11.0180 C.3       1 GNP1176     0.0000 
     18 O3'       -52.4530  -16.5970   10.4870 O.3       1 GNP1176     0.0000 
     19 C2'       -52.5530  -14.2660    9.8950 C.3       1 GNP1176     0.0000 
     20 O2'       -51.9340  -14.6810    8.6970 O.3       1 GNP1176     0.0000 
     21 C1'       -54.0690  -14.1920    9.6950 C.3       1 GNP1176     0.0000 
     22 N9        -54.5580  -12.9180    9.2090 N.pl3     1 GNP1176     0.0000 
     23 C8        -54.3480  -11.6560    9.7430 C.2       1 GNP1176     0.0000 
     24 N7        -54.9400  -10.7060    9.0600 N.2       1 GNP1176     0.0000 
     25 C5        -55.5220  -11.3830    8.0000 C.2       1 GNP1176     0.0000 
     26 C6        -56.2380  -10.8910    6.8620 C.2       1 GNP1176     0.0000 
     27 O6        -56.5430   -9.7260    6.5700 O.2       1 GNP1176     0.0000 
     28 N1        -56.6800  -11.9320    6.0440 N.am      1 GNP1176     0.0000 
     29 C2        -56.4090  -13.2700    6.2280 C.2       1 GNP1176     0.0000 
     30 N2        -56.8930  -14.1340    5.3070 N.pl3     1 GNP1176     0.0000 
     31 N3        -55.6940  -13.7340    7.2550 N.2       1 GNP1176     0.0000 
     32 C4        -55.2820  -12.7420    8.0780 C.2       1 GNP1176     0.0000 
     33 H         -54.5795  -13.9384   13.3966 H         1 GNP1176     0.0000 
     34 H         -52.9904  -14.6208   13.7823 H         1 GNP1176     0.0000 
     35 H         -54.0678  -16.0074   12.1729 H         1 GNP1176     0.0000 
     36 H         -51.5988  -15.0607   11.6032 H         1 GNP1176     0.0000 
     37 H         -52.2332  -13.3242   10.2570 H         1 GNP1176     0.0000 
     38 H         -54.3307  -14.9843    8.9764 H         1 GNP1176     0.0000 
     39 H         -53.7976  -11.5258   10.5629 H         1 GNP1176     0.0000 
     40 H         -57.2817  -11.6595    5.2020 H         1 GNP1176     0.0000 
     41 H         -56.7304  -15.1044    5.4858 H         1 GNP1176     0.0000 
     42 H         -57.3705  -13.7258    4.5289 H         1 GNP1176     0.0000 
     43 H         -52.3737  -16.4768    9.4974 H         1 GNP1176     0.0000 
     44 H         -51.0115  -14.2971    8.7360 H         1 GNP1176     0.0000 
@<TRIPOS>BOND
     1    2    1 ar   
     2    3    1 ar   
     3    4    1 ar   
     4    5    1 1    
     5    6    5 1    
     6    7    6 ar   
     7    8    6 ar   
     8    9    6 1    
     9   10    9 1    
    10   11   10 ar   
    11   12   10 ar   
    12   13   10 1    
    13   14   13 1    
    14   15   14 1    
    15   33   14 1    
    16   34   14 1    
    17   16   15 1    
    18   17   15 1    
    19   35   15 1    
    20   21   16 1    
    21   18   17 1    
    22   19   17 1    
    23   36   17 1    
    24   43   18 1    
    25   20   19 1    
    26   21   19 1    
    27   37   19 1    
    28   44   20 1    
    29   22   21 1    
    30   38   21 1    
    31   23   22 1    
    32   32   22 1    
    33   24   23 2    
    34   39   23 1    
    35   25   24 1    
    36   26   25 1    
    37   32   25 2    
    38   27   26 2    
    39   28   26 am   
    40   29   28 1    
    41   40   28 1    
    42   30   29 1    
    43   31   29 2    
    44   41   30 1    
    45   42   30 1    
    46   32   31 1    
@<TRIPOS>SUBSTRUCTURE
     1 GNP1176     1 GROUP   
@<TRIPOS>SET

