#    Name: 4dgg_I76_2_INTS_M
#    Modification time : Tue Mar 25 09:41:49 2014

@<TRIPOS>MOLECULE
4dgg_I76_2_INTS_M
   85     0     9     0     0
SMALL
NO_CHARGES


@<TRIPOS>ATOM
      1 CA         -3.1305  -73.5695  -30.6855 C.3       3 GLC5        0.0000 
      2 CA         -4.5310  -72.6670  -29.6290 C.3       9 GLL5        0.0000 
      3 CA         -1.7300  -74.4720  -31.7420 C.3       6 GLP5        0.0000 
      4 CA         -5.0220  -74.7080  -30.0245 C.3       3 GLC5        0.0000 
      5 CA         -5.5130  -76.7490  -30.4200 C.3       6 GLP5        0.0000 
      6 CA         -4.8165  -72.3460  -31.5380 C.3       3 GLC5        0.0000 
      7 CA         -5.1020  -72.0250  -33.4470 C.3       6 GLP5        0.0000 
      8 CA         -2.7200  -70.1140  -26.9720 C.3       3 GLC5        0.0000 
      9 CA         -4.4930  -70.9620  -27.7470 C.3       9 GLL5        0.0000 
     10 CA         -0.9470  -69.2660  -26.1970 C.3       6 GLP5        0.0000 
     11 CA         -4.8255  -70.2250  -25.7775 C.3       3 GLC5        0.0000 
     12 CA         -5.1580  -69.4880  -23.8080 C.3       6 GLP5        0.0000 
     13 CA         -4.7410  -68.9700  -27.6170 C.3       3 GLC5        0.0000 
     14 CA         -4.9890  -66.9780  -27.4870 C.3       6 GLP5        0.0000 
     15 CA         -4.1205  -68.2120  -29.0355 C.3       3 GLC5        0.0000 
     16 CA         -3.2520  -69.4460  -30.5840 C.3       9 GLL5        0.0000 
     17 CA         -0.8650  -70.4760  -31.9215 C.3       3 GLC5        0.0000 
     18 CA         -1.2280  -68.4380  -31.1210 C.3       9 GLL5        0.0000 
     19 CA         -0.5020  -72.5140  -32.7220 C.3       6 GLP5        0.0000 
     20 CA         -0.3395  -66.7475  -30.7170 C.3       3 GLC5        0.0000 
     21 CA          0.5490  -65.0570  -30.3130 C.3       6 GLP5        0.0000 
     22 N          -0.8080  -66.4945  -31.7865 N.am      2 SEC2        0.0000 
     23 N          -1.8390  -67.5480  -31.8900 N.am      8 SEL2        0.0000 
     24 N           0.2230  -65.4410  -31.6830 N.am      5 SEP2        0.0000 
     25 CA         -1.9510  -66.2010  -30.7855 C.3       3 GLC5        0.0000 
     26 CA         -3.1710  -67.5730  -32.0430 C.3       9 GLL5        0.0000 
     27 CA         -0.7310  -64.8290  -29.5280 C.3       6 GLP5        0.0000 
     28 O          -3.0165  -65.5175  -33.6065 O.2       1 ALC1        0.0000 
     29 O          -3.7440  -66.6760  -32.8210 O.2       7 ALL1        0.0000 
     30 O          -2.2890  -64.3590  -34.3920 O.2       4 ALP1        0.0000 
     31 CA         -4.7720  -68.0325  -34.2465 C.3       3 GLC5        0.0000 
     32 CA         -6.7120  -68.1390  -33.1370 C.3       9 GLL5        0.0000 
     33 CA         -2.8320  -67.9260  -35.3560 C.3       6 GLP5        0.0000 
     34 CA         -8.6650  -65.7865  -29.9790 C.3       3 GLC5        0.0000 
     35 CA         -8.6850  -67.6090  -31.2000 C.3       9 GLL5        0.0000 
     36 CA         -8.6450  -63.9640  -28.7580 C.3       6 GLP5        0.0000 
     37 CA        -11.4675  -65.8945  -31.4205 C.3       3 GLC5        0.0000 
     38 CA        -10.1960  -66.8730  -32.8650 C.3       9 GLL5        0.0000 
     39 CA        -12.7390  -64.9160  -29.9760 C.3       6 GLP5        0.0000 
     40 CA         -9.9175  -66.1910  -36.9890 C.3       3 GLC5        0.0000 
     41 CA         -9.4890  -66.8900  -35.1800 C.3       9 GLL5        0.0000 
     42 CA        -10.3460  -65.4920  -38.7980 C.3       6 GLP5        0.0000 
     43 CA        -10.3335  -64.4655  -34.1150 C.3       3 GLC5        0.0000 
     44 CA        -10.4600  -66.6240  -34.2100 C.3       9 GLL5        0.0000 
     45 CA        -10.2070  -62.3070  -34.0200 C.3       6 GLP5        0.0000 
     46 CA        -12.4685  -67.5420  -34.1010 C.3       3 GLC5        0.0000 
     47 CA        -14.4770  -68.4600  -33.9920 C.3       6 GLP5        0.0000 
     48 CA        -15.9060  -66.2380  -35.5445 C.3       3 GLC5        0.0000 
     49 CA        -15.0470  -64.3930  -36.1420 C.3       9 GLL5        0.0000 
     50 CA        -16.7650  -68.0830  -34.9470 C.3       6 GLP5        0.0000 
     51 CA        -16.2800  -63.2855  -38.6180 C.3       3 GLC5        0.0000 
     52 CA        -15.4000  -64.6710  -37.8130 C.3       9 GLL5        0.0000 
     53 CA        -17.1600  -61.9000  -39.4230 C.3       6 GLP5        0.0000 
     54 CA        -14.4635  -62.0525  -35.8950 C.3       3 GLC5        0.0000 
     55 CA        -15.8820  -63.5910  -35.3620 C.3       9 GLL5        0.0000 
     56 CA        -13.0450  -60.5140  -36.4280 C.3       6 GLP5        0.0000 
     57 CA         -4.3447  -70.5093  -32.2150 C.3       3 GLC5        0.0000 
     58 CA         -3.9230  -68.5410  -31.3820 C.3       9 GLL5        0.0000 
     59 CA         -3.1895  -67.9915  -33.5343 C.3       3 GLC5        0.0000 
     60 CA         -4.3405  -66.7990  -30.6172 C.3       3 GLC5        0.0000 
     61 CA         -5.1340  -65.5410  -29.5220 C.3       6 GLP5        0.0000 
     62 CA         -5.8410  -70.1407  -32.9543 C.3       3 GLC5        0.0000 
     63 CA         -6.4480  -68.3740  -31.7860 C.3       9 GLL5        0.0000 
     64 CA         -8.2592  -69.1593  -34.7075 C.3       3 GLC5        0.0000 
     65 CA         -9.1810  -70.4310  -36.0970 C.3       6 GLP5        0.0000 
     66 CA         -6.4744  -66.7336  -30.3890 C.3       3 GLC5        0.0000 
     67 CA         -9.0228  -68.7870  -35.5528 C.3       3 GLC5        0.0000 
     68 CA         -8.0553  -65.7340  -35.8357 C.3       3 GLC5        0.0000 
     69 CA         -8.2400  -67.3960  -34.8370 C.3       9 GLL5        0.0000 
     70 CA         -7.2460  -64.3250  -36.6630 C.3       6 GLP5        0.0000 
     71 CA        -10.3789  -68.7456  -33.7615 C.3       3 GLC5        0.0000 
     72 CA        -10.7420  -70.6180  -34.0690 C.3       6 GLP5        0.0000 
     73 CA        -12.9313  -63.5913  -35.6200 C.3       3 GLC5        0.0000 
     74 CA        -13.9180  -64.9820  -35.5840 C.3       9 GLL5        0.0000 
     75 CA        -11.3800  -62.4950  -35.3770 C.3       6 GLP5        0.0000 
     76 CA        -13.9767  -66.7454  -34.3865 C.3       3 GLC5        0.0000 
     77 CA        -15.4458  -62.5155  -32.2602 C.3       3 GLC5        0.0000 
     78 CA        -14.4430  -63.9740  -33.4640 C.3       9 GLL5        0.0000 
     79 CA        -15.8800  -61.3540  -30.7790 C.3       6 GLP5        0.0000 
     80 CA        -15.6498  -65.4825  -33.1838 C.3       3 GLC5        0.0000 
     81 CA        -15.5800  -63.3800  -34.0190 C.3       9 GLL5        0.0000 
     82 CA        -16.2880  -67.2880  -32.6260 C.3       6 GLP5        0.0000 
     83 CA        -12.5595  -63.5109  -34.5490 C.3       3 GLC5        0.0000 
     84 CA        -13.2390  -64.7214  -31.8485 C.3       3 GLC5        0.0000 
     85 CA        -13.6070  -64.7760  -34.2420 C.3       9 GLL5        0.0000 
@<TRIPOS>BOND
@<TRIPOS>SUBSTRUCTURE
     1 ALC1       28 GROUP        1 X    ALC  0     ROOT ALC X 1
     2 SEC2       22 GROUP        1 X    SEC  0     **** SEC X 2
     3 GLC5        1 GROUP        1 X    GLC  0     **** GLC X 6
     4 ALP1       30 GROUP        1 Y    ALP  0     ROOT ALP Y 8
     5 SEP2       24 GROUP        1 Y    SEP  0     **** SEP Y 9
     6 GLP5        3 GROUP        1 Y    GLP  0     **** GLP Y 13
     7 ALL1       29 GROUP        1 Z    ALL  0     ROOT ALL Z 15
     8 SEL2       23 GROUP        1 Z    SEL  0     **** SEL Z 16
     9 GLL5        2 GROUP        1 Z    GLL  0     **** GLL Z 20
@<TRIPOS>SET

