#    Name: 4dgg_I76_2_ligand
#    Modification time : Tue Mar 25 09:41:49 2014

@<TRIPOS>MOLECULE
4dgg_I76_2_ligand
   54    58     1     0     0
SMALL
NO_CHARGES


@<TRIPOS>ATOM
      1 CAA        -4.5310  -72.6670  -29.6290 C.3       1 I76601      0.0000 
      2 CBE        -3.9210  -71.3590  -29.1200 C.3       1 I76601      0.0000 
      3 CAB        -4.4930  -70.9620  -27.7470 C.3       1 I76601      0.0000 
      4 NBF        -4.1790  -70.2490  -30.0630 N.pl3     1 I76601      0.0000 
      5 NAS        -5.3090  -69.9520  -30.4250 N.2       1 I76601      0.0000 
      6 C4         -3.2520  -69.4460  -30.5840 C.ar      1 I76601      0.0000 
      7 N3         -1.9120  -69.3710  -30.4660 N.ar      1 I76601      0.0000 
      8 C2         -1.2280  -68.4380  -31.1210 C.ar      1 I76601      0.0000 
      9 N1         -1.8390  -67.5480  -31.8900 N.ar      1 I76601      0.0000 
     10 C6         -3.1710  -67.5730  -32.0430 C.ar      1 I76601      0.0000 
     11 NAC        -3.7440  -66.6760  -32.8210 N.pl3     1 I76601      0.0000 
     12 C5         -3.9230  -68.5410  -31.3820 C.ar      1 I76601      0.0000 
     13 CAZ        -5.2670  -68.9120  -31.2470 C.2       1 I76601      0.0000 
     14 CAY        -6.4480  -68.3740  -31.7860 C.ar      1 I76601      0.0000 
     15 CAO        -6.7120  -68.1390  -33.1370 C.ar      1 I76601      0.0000 
     16 CAI        -7.4410  -68.1130  -30.8380 C.ar      1 I76601      0.0000 
     17 CAK        -8.6850  -67.6090  -31.2000 C.ar      1 I76601      0.0000 
     18 CBA        -8.9470  -67.3720  -32.5310 C.ar      1 I76601      0.0000 
     19 CAN       -10.1960  -66.8730  -32.8650 C.ar      1 I76601      0.0000 
     20 CBB        -7.9630  -67.6360  -33.4990 C.ar      1 I76601      0.0000 
     21 CAJ        -8.2400  -67.3960  -34.8370 C.ar      1 I76601      0.0000 
     22 CAH        -9.4890  -66.8900  -35.1800 C.ar      1 I76601      0.0000 
     23 CAW       -10.4600  -66.6240  -34.2100 C.ar      1 I76601      0.0000 
     24 OAT       -11.6630  -66.1480  -34.6290 O.3       1 I76601      0.0000 
     25 CAP       -12.4630  -65.3830  -33.7140 C.3       1 I76601      0.0000 
     26 CAV       -13.6070  -64.7760  -34.2420 C.ar      1 I76601      0.0000 
     27 CAM       -13.9180  -64.9820  -35.5840 C.ar      1 I76601      0.0000 
     28 CAU       -15.0470  -64.3930  -36.1420 C.ar      1 I76601      0.0000 
     29 CLD       -15.4000  -64.6710  -37.8130 Cl        1 I76601      0.0000 
     30 CAF       -15.8820  -63.5910  -35.3620 C.ar      1 I76601      0.0000 
     31 CAE       -15.5800  -63.3800  -34.0190 C.ar      1 I76601      0.0000 
     32 CAG       -14.4430  -63.9740  -33.4640 C.ar      1 I76601      0.0000 
     33 H          -2.8526  -71.4932  -29.0055 H         1 I76601      0.0000 
     34 H          -0.1746  -68.4067  -31.0254 H         1 I76601      0.0000 
     35 H          -4.7420  -66.7124  -32.8736 H         1 I76601      0.0000 
     36 H          -3.1285  -66.0409  -33.2878 H         1 I76601      0.0000 
     37 H          -6.0058  -68.3308  -33.8441 H         1 I76601      0.0000 
     38 H          -7.2409  -68.3020  -29.8352 H         1 I76601      0.0000 
     39 H          -9.3911  -67.4190  -30.4839 H         1 I76601      0.0000 
     40 H         -10.8978  -66.6937  -32.1554 H         1 I76601      0.0000 
     41 H          -7.5424  -67.5864  -35.5560 H         1 I76601      0.0000 
     42 H          -9.7083  -66.7047  -36.1768 H         1 I76601      0.0000 
     43 H         -11.8000  -64.6011  -33.2203 H         1 I76601      0.0000 
     44 H         -12.7458  -66.0495  -32.8362 H         1 I76601      0.0000 
     45 H         -13.3073  -65.5743  -36.1654 H         1 I76601      0.0000 
     46 H         -16.7140  -63.1597  -35.7777 H         1 I76601      0.0000 
     47 H         -16.1866  -62.7928  -33.4388 H         1 I76601      0.0000 
     48 H         -14.2205  -63.8174  -32.4695 H         1 I76601      0.0000 
     49 H          -4.1637  -72.9251  -30.5226 H         1 I76601      0.0000 
     50 H          -4.3496  -73.4283  -29.0065 H         1 I76601      0.0000 
     51 H          -5.5238  -72.5998  -29.7285 H         1 I76601      0.0000 
     52 H          -4.3113  -71.6590  -27.0533 H         1 I76601      0.0000 
     53 H          -4.0976  -70.1063  -27.4133 H         1 I76601      0.0000 
     54 H          -5.4841  -70.8334  -27.7807 H         1 I76601      0.0000 
@<TRIPOS>BOND
     1    2    1 1    
     2   49    1 1    
     3   50    1 1    
     4   51    1 1    
     5    3    2 1    
     6    4    2 1    
     7   33    2 1    
     8   52    3 1    
     9   53    3 1    
    10   54    3 1    
    11    5    4 1    
    12    6    4 1    
    13   13    5 2    
    14    7    6 ar   
    15   12    6 ar   
    16    8    7 ar   
    17    9    8 ar   
    18   34    8 1    
    19   10    9 ar   
    20   11   10 1    
    21   12   10 ar   
    22   35   11 1    
    23   36   11 1    
    24   13   12 1    
    25   14   13 1    
    26   15   14 ar   
    27   16   14 ar   
    28   20   15 ar   
    29   37   15 1    
    30   17   16 ar   
    31   38   16 1    
    32   18   17 ar   
    33   39   17 1    
    34   19   18 ar   
    35   20   18 ar   
    36   23   19 ar   
    37   40   19 1    
    38   21   20 ar   
    39   22   21 ar   
    40   41   21 1    
    41   23   22 ar   
    42   42   22 1    
    43   24   23 1    
    44   25   24 1    
    45   26   25 1    
    46   43   25 1    
    47   44   25 1    
    48   27   26 ar   
    49   32   26 ar   
    50   28   27 ar   
    51   45   27 1    
    52   29   28 1    
    53   30   28 ar   
    54   31   30 ar   
    55   46   30 1    
    56   32   31 ar   
    57   47   31 1    
    58   48   32 1    
@<TRIPOS>SUBSTRUCTURE
     1 I76601      1 GROUP   
@<TRIPOS>SET

