#    Name: 2fon_FAD_1_INTS_M
#    Modification time : Tue Mar 25 13:01:26 2014

@<TRIPOS>MOLECULE
2fon_FAD_1_INTS_M
  106     0    12     0     0
SMALL
NO_CHARGES


@<TRIPOS>ATOM
      1 N         -10.8340   37.8520  -14.6775 N.am      2 SEC2        0.0000 
      2 N         -10.2060   38.0460  -13.6660 N.am     10 SEL2        0.0000 
      3 N         -11.4620   37.6580  -15.6890 N.am      6 SEP2        0.0000 
      4 NZ         -9.6040   40.9035  -11.7345 N.4       3 LYC4        0.0000 
      5 NZ         -9.1330   39.6420  -11.9510 N.4      11 LYL4        0.0000 
      6 NZ         -9.5530   42.2210  -10.3180 N.4       7 LYP4        0.0000 
      7 N          -9.0595   40.3850  -10.8675 N.am      2 SEC2        0.0000 
      8 N          -9.1330   39.6420  -11.9510 N.am     10 SEL2        0.0000 
      9 N          -8.9860   41.1280   -9.7840 N.am      6 SEP2        0.0000 
     10 N          -9.6040   40.9035  -11.7345 N.am      2 SEC2        0.0000 
     11 N         -10.0750   42.1650  -11.5180 N.am      6 SEP2        0.0000 
     12 CA         -5.6985   39.1320  -13.6930 C.3       4 GLC5        0.0000 
     13 CA         -6.7170   38.0110  -12.4340 C.3      12 GLL5        0.0000 
     14 CA         -4.6800   40.2530  -14.9520 C.3       8 GLP5        0.0000 
     15 CA         -7.3280   35.9915  -10.6375 C.3       4 GLC5        0.0000 
     16 CA         -6.1130   36.6150  -12.3750 C.3      12 GLL5        0.0000 
     17 CA         -8.5430   35.3680   -8.9000 C.3       8 GLP5        0.0000 
     18 N          -4.4705   34.2930  -12.4645 N.am      2 SEC2        0.0000 
     19 N          -4.6990   35.2640  -13.6080 N.am     10 SEL2        0.0000 
     20 N          -4.2420   33.3220  -11.3210 N.am      6 SEP2        0.0000 
     21 N          -5.0195   33.6245  -15.0075 N.am      2 SEC2        0.0000 
     22 N          -6.5510   33.9470  -14.7260 N.am     10 SEL2        0.0000 
     23 N          -3.4880   33.3020  -15.2890 N.am      6 SEP2        0.0000 
     24 O          -6.9020   34.0320  -16.2035 O.2       1 ALC1        0.0000 
     25 O          -6.5510   33.9470  -14.7260 O.2       9 ALL1        0.0000 
     26 O          -7.2530   34.1170  -17.6810 O.2       5 ALP1        0.0000 
     27 O          -6.6145   35.0330  -15.8240 O.2       1 ALC1        0.0000 
     28 O          -6.6780   36.1190  -16.9220 O.2       5 ALP1        0.0000 
     29 CA         -7.8715   34.9825  -10.6945 C.3       4 GLC5        0.0000 
     30 CA         -7.2000   34.5970  -12.4890 C.3      12 GLL5        0.0000 
     31 CA         -7.9225   30.1430  -14.3505 C.3       4 GLC5        0.0000 
     32 CA         -8.9990   30.4560  -12.4760 C.3      12 GLL5        0.0000 
     33 CA         -6.8460   29.8300  -16.2250 C.3       8 GLP5        0.0000 
     34 CA         -9.7935   29.1480  -13.5870 C.3       4 GLC5        0.0000 
     35 CA        -10.5880   27.8400  -14.6980 C.3       8 GLP5        0.0000 
     36 CA         -8.4530   29.9335  -10.6640 C.3       4 GLC5        0.0000 
     37 CA         -7.9070   29.4110   -8.8520 C.3       8 GLP5        0.0000 
     38 CA         -7.3240   29.0715  -12.8900 C.3       4 GLC5        0.0000 
     39 CA         -5.6490   27.6870  -13.3040 C.3       8 GLP5        0.0000 
     40 CA         -8.7715   34.1090  -10.6595 C.3       4 GLC5        0.0000 
     41 CA         -9.0000   32.8500  -12.4190 C.3      12 GLL5        0.0000 
     42 N         -13.2225   46.3205  -19.0890 N.am      2 SEC2        0.0000 
     43 N         -12.9320   46.8140  -20.1970 N.am     10 SEL2        0.0000 
     44 N         -13.5130   45.8270  -17.9810 N.am      6 SEP2        0.0000 
     45 N         -16.3220   48.0240  -19.6260 N.am      2 SEC2        0.0000 
     46 N         -15.1910   47.3610  -20.2390 N.am     10 SEL2        0.0000 
     47 N         -17.4530   48.6870  -19.0130 N.am      6 SEP2        0.0000 
     48 N         -15.4950   47.1360  -18.7490 N.am      2 SEC2        0.0000 
     49 N         -15.7990   46.9110  -17.2590 N.am      6 SEP2        0.0000 
     50 O         -14.9985   49.1610  -21.9100 O.2       1 ALC1        0.0000 
     51 O         -13.8230   48.3290  -21.7870 O.2       9 ALL1        0.0000 
     52 O         -16.1740   49.9930  -22.0330 O.2       5 ALP1        0.0000 
     53 N         -11.7310   50.7225  -23.0650 N.am      2 SEC2        0.0000 
     54 N         -12.4440   49.2590  -23.2740 N.am     10 SEL2        0.0000 
     55 N         -11.0180   52.1860  -22.8560 N.am      6 SEP2        0.0000 
     56 CA         -5.3065   48.4260  -20.8380 C.3       4 GLC5        0.0000 
     57 CA         -5.4660   47.3820  -22.5900 C.3      12 GLL5        0.0000 
     58 CA         -5.1470   49.4700  -19.0860 C.3       8 GLP5        0.0000 
     59 CA         -5.4195   48.6380  -24.1115 C.3       4 GLC5        0.0000 
     60 CA         -5.3730   49.8940  -25.6330 C.3       8 GLP5        0.0000 
     61 CA         -3.4780   47.5890  -22.1885 C.3       4 GLC5        0.0000 
     62 CA         -1.4900   47.7960  -21.7870 C.3       8 GLP5        0.0000 
     63 CA         -5.4160   47.4605  -19.6420 C.3       4 GLC5        0.0000 
     64 CA         -5.6850   45.4510  -20.1980 C.3      12 GLL5        0.0000 
     65 CA         -4.7595   44.9610  -21.9555 C.3       4 GLC5        0.0000 
     66 CA         -3.8340   44.4710  -23.7130 C.3       8 GLP5        0.0000 
     67 CA         -5.5355   43.6115  -20.3235 C.3       4 GLC5        0.0000 
     68 CA         -5.3860   41.7720  -20.4490 C.3       8 GLP5        0.0000 
     69 CA         -5.5470   44.5355  -18.3545 C.3       4 GLC5        0.0000 
     70 CA         -5.4090   43.6200  -16.5110 C.3       8 GLP5        0.0000 
     71 CA         -3.7350   46.4360  -20.3855 C.3       4 GLC5        0.0000 
     72 CA         -1.7850   47.4210  -20.5730 C.3       8 GLP5        0.0000 
     73 CA        -11.5835   45.7260  -17.4810 C.3       4 GLC5        0.0000 
     74 CA        -10.8410   45.3670  -19.0280 C.3      12 GLL5        0.0000 
     75 CA        -12.3260   46.0850  -15.9340 C.3       8 GLP5        0.0000 
     76 CA        -10.2725   47.1350  -18.6455 C.3       4 GLC5        0.0000 
     77 CA         -9.7040   48.9030  -18.2630 C.3       8 GLP5        0.0000 
     78 CA         -9.9580   43.4815  -21.4315 C.3       4 GLC5        0.0000 
     79 CA        -10.5490   44.0300  -19.7000 C.3      12 GLL5        0.0000 
     80 CA         -9.3670   42.9330  -23.1630 C.3       8 GLP5        0.0000 
     81 CA        -10.0870   42.1290  -20.8015 C.3       4 GLC5        0.0000 
     82 CA        -10.7520   42.7620  -18.9360 C.3      12 GLL5        0.0000 
     83 CA         -9.4220   41.4960  -22.6670 C.3       8 GLP5        0.0000 
     84 CA        -11.1515   44.3775  -16.7960 C.3       4 GLC5        0.0000 
     85 CA         -9.9770   42.6700  -17.6580 C.3      12 GLL5        0.0000 
     86 O          -7.8105   42.0220  -18.4320 O.2       1 ALC1        0.0000 
     87 O          -8.6340   43.0700  -17.8920 O.2       9 ALL1        0.0000 
     88 O          -6.9870   40.9740  -18.9720 O.2       5 ALP1        0.0000 
     89 N          -6.8790   42.3560  -15.3390 N.am      2 SEC2        0.0000 
     90 N          -8.1940   42.4330  -14.6830 N.am     10 SEL2        0.0000 
     91 N          -5.5640   42.2790  -15.9950 N.am      6 SEP2        0.0000 
     92 N         -11.7750   40.5100  -14.7435 N.am      2 SEC2        0.0000 
     93 N         -10.4530   41.1470  -14.4580 N.am     10 SEL2        0.0000 
     94 N         -13.0970   39.8730  -15.0290 N.am      6 SEP2        0.0000 
     95 N         -10.2640   41.6560  -12.9880 N.am      2 SEC2        0.0000 
     96 CA        -10.3590   32.9877  -14.0539 C.3       4 GLC5        0.0000 
     97 CA        -10.3780   32.8750  -12.3280 C.3      12 GLL5        0.0000 
     98 CA        -10.8570   33.4170  -15.7390 C.3       8 GLP5        0.0000 
     99 CA         -4.9760   45.8427  -22.9780 C.3       4 GLC5        0.0000 
    100 CA         -6.7700   47.0470  -21.8960 C.3      12 GLL5        0.0000 
    101 CA         -9.1769   47.6605  -19.5015 C.3       4 GLC5        0.0000 
    102 CA         -8.1110   45.8830  -20.2240 C.3      12 GLL5        0.0000 
    103 CA         -9.0270   44.5692  -21.8155 C.3       4 GLC5        0.0000 
    104 CA         -9.2630   46.5280  -20.7120 C.3      12 GLL5        0.0000 
    105 CA        -11.4950   42.1073  -16.1230 C.3       4 GLC5        0.0000 
    106 CA        -12.9390   42.2780  -14.8000 C.3       8 GLP5        0.0000 
@<TRIPOS>BOND
@<TRIPOS>SUBSTRUCTURE
     1 ALC1       24 GROUP        1 X    ALC  0     ROOT ALC X 1
     2 SEC2        1 GROUP        1 X    SEC  0     **** SEC X 2
     3 LYC4        4 GROUP        1 X    LYC  0     **** LYC X 4
     4 GLC5       12 GROUP        1 X    GLC  0     **** GLC X 6
     5 ALP1       26 GROUP        1 Y    ALP  0     ROOT ALP Y 8
     6 SEP2        3 GROUP        1 Y    SEP  0     **** SEP Y 9
     7 LYP4        6 GROUP        1 Y    LYP  0     **** LYP Y 11
     8 GLP5       14 GROUP        1 Y    GLP  0     **** GLP Y 13
     9 ALL1       25 GROUP        1 Z    ALL  0     ROOT ALL Z 15
    10 SEL2        2 GROUP        1 Z    SEL  0     **** SEL Z 16
    11 LYL4        5 GROUP        1 Z    LYL  0     **** LYL Z 18
    12 GLL5       13 GROUP        1 Z    GLL  0     **** GLL Z 20
@<TRIPOS>SET

