#    Name: 2fon_FAD_1_ligand
#    Modification time : Tue Mar 25 13:01:27 2014

@<TRIPOS>MOLECULE
2fon_FAD_1_ligand
   84    89     1     0     0
SMALL
NO_CHARGES


@<TRIPOS>ATOM
      1 PA         -9.0020   38.8500  -13.2550 P.3       1 FAD1000     0.0000 
      2 O1A       -10.2060   38.0460  -13.6660 O.co2     1 FAD1000     0.0000 
      3 O2A        -9.1330   39.6420  -11.9510 O.co2     1 FAD1000     0.0000 
      4 O5B        -7.8630   37.7760  -13.2160 O.3       1 FAD1000     0.0000 
      5 C5B        -6.7170   38.0110  -12.4340 C.3       1 FAD1000     0.0000 
      6 C4B        -6.1130   36.6150  -12.3750 C.3       1 FAD1000     0.0000 
      7 O4B        -7.0420   35.7590  -11.7340 O.3       1 FAD1000     0.0000 
      8 C3B        -5.8470   36.0130  -13.7550 C.3       1 FAD1000     0.0000 
      9 O3B        -4.6990   35.2640  -13.6080 O.3       1 FAD1000     0.0000 
     10 C2B        -6.9450   35.0160  -13.9280 C.3       1 FAD1000     0.0000 
     11 O2B        -6.5510   33.9470  -14.7260 O.3       1 FAD1000     0.0000 
     12 C1B        -7.2000   34.5970  -12.4890 C.3       1 FAD1000     0.0000 
     13 N9A        -8.5910   34.1720  -12.4020 N.pl3     1 FAD1000     0.0000 
     14 C8A        -9.6830   34.9860  -12.2990 C.2       1 FAD1000     0.0000 
     15 N7A       -10.7680   34.1730  -12.2680 N.2       1 FAD1000     0.0000 
     16 C5A       -10.3780   32.8750  -12.3280 C.ar      1 FAD1000     0.0000 
     17 C6A       -11.0660   31.6590  -12.3090 C.ar      1 FAD1000     0.0000 
     18 N6A       -12.3930   31.6610  -12.2370 N.pl3     1 FAD1000     0.0000 
     19 N1A       -10.3730   30.4680  -12.3920 N.ar      1 FAD1000     0.0000 
     20 C2A        -8.9990   30.4560  -12.4760 C.ar      1 FAD1000     0.0000 
     21 N3A        -8.3260   31.6530  -12.4760 N.ar      1 FAD1000     0.0000 
     22 C4A        -9.0000   32.8500  -12.4190 C.ar      1 FAD1000     0.0000 
     23 N1        -12.9320   46.8140  -20.1970 N.2       1 FAD1000     0.0000 
     24 C2        -14.0290   47.5090  -20.6980 C.2       1 FAD1000     0.0000 
     25 O2        -15.1910   47.3610  -20.2390 O.2       1 FAD1000     0.0000 
     26 N3        -13.8230   48.3290  -21.7870 N.am      1 FAD1000     0.0000 
     27 C4        -12.5780   48.4800  -22.3290 C.2       1 FAD1000     0.0000 
     28 O4        -12.4440   49.2590  -23.2740 O.2       1 FAD1000     0.0000 
     29 C4X       -11.4930   47.7950  -21.8060 C.2       1 FAD1000     0.0000 
     30 N5        -10.2140   47.9780  -22.3290 N.2       1 FAD1000     0.0000 
     31 C5X        -9.1140   47.3780  -21.8000 C.ar      1 FAD1000     0.0000 
     32 C6         -7.9120   47.6530  -22.3820 C.ar      1 FAD1000     0.0000 
     33 C7         -6.7700   47.0470  -21.8960 C.ar      1 FAD1000     0.0000 
     34 C7M        -5.4660   47.3820  -22.5900 C.3       1 FAD1000     0.0000 
     35 C8         -6.8770   46.1350  -20.7970 C.ar      1 FAD1000     0.0000 
     36 C8M        -5.6850   45.4510  -20.1980 C.3       1 FAD1000     0.0000 
     37 C9         -8.1110   45.8830  -20.2240 C.ar      1 FAD1000     0.0000 
     38 C9A        -9.2630   46.5280  -20.7120 C.ar      1 FAD1000     0.0000 
     39 N10       -10.5680   46.3230  -20.1670 N.pl3     1 FAD1000     0.0000 
     40 C10       -11.6700   46.9600  -20.7280 C.2       1 FAD1000     0.0000 
     41 C1'       -10.8410   45.3670  -19.0280 C.3       1 FAD1000     0.0000 
     42 C2'       -10.5490   44.0300  -19.7000 C.3       1 FAD1000     0.0000 
     43 O2'       -11.3950   43.7930  -20.7610 O.3       1 FAD1000     0.0000 
     44 C3'       -10.7520   42.7620  -18.9360 C.3       1 FAD1000     0.0000 
     45 O3'       -12.1210   42.5140  -18.7080 O.3       1 FAD1000     0.0000 
     46 C4'        -9.9770   42.6700  -17.6580 C.3       1 FAD1000     0.0000 
     47 O4'        -8.6340   43.0700  -17.8920 O.3       1 FAD1000     0.0000 
     48 C5'       -10.1250   41.2030  -17.2340 C.3       1 FAD1000     0.0000 
     49 O5'        -9.0030   40.8850  -16.4660 O.3       1 FAD1000     0.0000 
     50 P          -8.9820   41.1580  -14.9020 P.3       1 FAD1000     0.0000 
     51 O1P        -8.1940   42.4330  -14.6830 O.co2     1 FAD1000     0.0000 
     52 O2P       -10.4530   41.1470  -14.4580 O.co2     1 FAD1000     0.0000 
     53 O3P        -8.3140   39.7810  -14.3810 O.3       1 FAD1000     0.0000 
     54 H          -6.9469   38.3171  -11.4394 H         1 FAD1000     0.0000 
     55 H          -6.0151   38.6583  -12.9075 H         1 FAD1000     0.0000 
     56 H          -5.1893   36.6509  -11.8324 H         1 FAD1000     0.0000 
     57 H          -5.8527   36.7196  -14.4674 H         1 FAD1000     0.0000 
     58 H          -7.8131   35.5338  -14.2682 H         1 FAD1000     0.0000 
     59 H          -6.5383   33.8339  -12.2332 H         1 FAD1000     0.0000 
     60 H          -9.6774   35.9340  -12.2576 H         1 FAD1000     0.0000 
     61 H         -12.8340   30.7637  -12.2180 H         1 FAD1000     0.0000 
     62 H         -12.8308   32.5596  -12.2083 H         1 FAD1000     0.0000 
     63 H          -8.4890   29.5689  -12.5374 H         1 FAD1000     0.0000 
     64 H         -14.6323   48.8388  -22.1988 H         1 FAD1000     0.0000 
     65 H          -7.8478   48.3051  -23.1766 H         1 FAD1000     0.0000 
     66 H          -8.1978   45.2247  -19.4393 H         1 FAD1000     0.0000 
     67 H         -11.8536   45.4115  -18.7486 H         1 FAD1000     0.0000 
     68 H         -10.1588   45.5282  -18.2445 H         1 FAD1000     0.0000 
     69 H          -9.5139   44.0249  -20.0675 H         1 FAD1000     0.0000 
     70 H         -10.3595   41.9292  -19.5978 H         1 FAD1000     0.0000 
     71 H         -10.4764   43.2754  -16.9271 H         1 FAD1000     0.0000 
     72 H         -10.1997   40.6085  -18.1430 H         1 FAD1000     0.0000 
     73 H         -11.0575   41.1183  -16.6787 H         1 FAD1000     0.0000 
     74 H          -4.6922   46.8997  -22.1794 H         1 FAD1000     0.0000 
     75 H          -5.4861   47.1332  -23.5583 H         1 FAD1000     0.0000 
     76 H          -5.2606   48.3595  -22.5427 H         1 FAD1000     0.0000 
     77 H          -5.2019   44.8901  -20.8703 H         1 FAD1000     0.0000 
     78 H          -5.0239   46.1074  -19.8346 H         1 FAD1000     0.0000 
     79 H          -5.9433   44.8472  -19.4439 H         1 FAD1000     0.0000 
     80 H          -4.8718   34.4225  -14.1199 H         1 FAD1000     0.0000 
     81 H          -6.8241   34.2021  -15.6535 H         1 FAD1000     0.0000 
     82 H         -12.0880   43.1665  -20.4043 H         1 FAD1000     0.0000 
     83 H         -12.2310   41.5289  -18.8402 H         1 FAD1000     0.0000 
     84 H          -8.3213   42.4962  -18.6489 H         1 FAD1000     0.0000 
@<TRIPOS>BOND
     1    2    1 ar   
     2    3    1 ar   
     3    4    1 1    
     4   53    1 1    
     5    5    4 1    
     6    6    5 1    
     7   54    5 1    
     8   55    5 1    
     9    7    6 1    
    10    8    6 1    
    11   56    6 1    
    12   12    7 1    
    13    9    8 1    
    14   10    8 1    
    15   57    8 1    
    16   80    9 1    
    17   11   10 1    
    18   12   10 1    
    19   58   10 1    
    20   81   11 1    
    21   13   12 1    
    22   59   12 1    
    23   14   13 1    
    24   22   13 1    
    25   15   14 2    
    26   60   14 1    
    27   16   15 1    
    28   17   16 ar   
    29   22   16 ar   
    30   18   17 1    
    31   19   17 ar   
    32   61   18 1    
    33   62   18 1    
    34   20   19 ar   
    35   21   20 ar   
    36   63   20 1    
    37   22   21 ar   
    38   24   23 1    
    39   40   23 2    
    40   25   24 2    
    41   26   24 am   
    42   27   26 am   
    43   64   26 1    
    44   28   27 2    
    45   29   27 1    
    46   30   29 2    
    47   40   29 1    
    48   31   30 1    
    49   32   31 ar   
    50   38   31 ar   
    51   33   32 ar   
    52   65   32 1    
    53   34   33 1    
    54   35   33 ar   
    55   74   34 1    
    56   75   34 1    
    57   76   34 1    
    58   36   35 1    
    59   37   35 ar   
    60   77   36 1    
    61   78   36 1    
    62   79   36 1    
    63   38   37 ar   
    64   66   37 1    
    65   39   38 1    
    66   40   39 1    
    67   41   39 1    
    68   42   41 1    
    69   67   41 1    
    70   68   41 1    
    71   43   42 1    
    72   44   42 1    
    73   69   42 1    
    74   82   43 1    
    75   45   44 1    
    76   46   44 1    
    77   70   44 1    
    78   83   45 1    
    79   47   46 1    
    80   48   46 1    
    81   71   46 1    
    82   84   47 1    
    83   49   48 1    
    84   72   48 1    
    85   73   48 1    
    86   50   49 1    
    87   51   50 ar   
    88   52   50 ar   
    89   53   50 1    
@<TRIPOS>SUBSTRUCTURE
     1 FAD1000     1 GROUP   
@<TRIPOS>SET

