#    Name: 3zep_1NX_4_INTS_M
#    Modification time : Tue Mar 25 02:51:05 2014

@<TRIPOS>MOLECULE
3zep_1NX_4_INTS_M
   64     0     9     0     0
SMALL
NO_CHARGES


@<TRIPOS>ATOM
      1 CA         22.8995  -46.8770  -11.2765 C.3       3 GLC5        0.0000 
      2 CA         22.2420  -45.2980  -10.3070 C.3       9 GLL5        0.0000 
      3 CA         23.5570  -48.4560  -12.2460 C.3       6 GLP5        0.0000 
      4 CA         23.9855  -45.3080  -11.2795 C.3       3 GLC5        0.0000 
      5 CA         25.7290  -45.3180  -12.2520 C.3       6 GLP5        0.0000 
      6 CA         23.5775  -43.5415  -10.6795 C.3       3 GLC5        0.0000 
      7 CA         24.9130  -41.7850  -11.0520 C.3       6 GLP5        0.0000 
      8 CA         21.8115  -47.0010   -6.1560 C.3       3 GLC5        0.0000 
      9 CA         20.0680  -45.8430   -6.1300 C.3       9 GLL5        0.0000 
     10 CA         23.5550  -48.1590   -6.1820 C.3       6 GLP5        0.0000 
     11 CA         18.5540  -44.6055   -3.4190 C.3       3 GLC5        0.0000 
     12 CA         19.8970  -45.7900   -4.7740 C.3       9 GLL5        0.0000 
     13 CA         17.2110  -43.4210   -2.0640 C.3       6 GLP5        0.0000 
     14 CA         21.5300  -45.2295   -3.8685 C.3       3 GLC5        0.0000 
     15 CA         23.1630  -44.6690   -2.9630 C.3       6 GLP5        0.0000 
     16 O          18.4150  -47.1530   -3.0490 O.2       1 ALC1        0.0000 
     17 O          18.9740  -46.7090   -4.3820 O.2       7 ALL1        0.0000 
     18 O          17.8560  -47.5970   -1.7160 O.2       4 ALP1        0.0000 
     19 CA         17.5685  -48.7280   -3.9495 C.3       3 GLC5        0.0000 
     20 CA         18.4940  -47.4030   -5.4690 C.3       9 GLL5        0.0000 
     21 CA         16.6430  -50.0530   -2.4300 C.3       6 GLP5        0.0000 
     22 N          16.2645  -48.7325   -4.7545 N.am      2 SEC2        0.0000 
     23 N          17.6020  -48.3800   -5.6400 N.am      8 SEL2        0.0000 
     24 N          14.9270  -49.0850   -3.8690 N.am      5 SEP2        0.0000 
     25 CA         15.4715  -48.9030   -5.6685 C.3       3 GLC5        0.0000 
     26 CA         17.3470  -48.8490   -6.8610 C.3       9 GLL5        0.0000 
     27 CA         13.5960  -48.9570   -4.4760 C.3       6 GLP5        0.0000 
     28 CA         17.2180  -46.4190   -8.2540 C.3       3 GLC5        0.0000 
     29 CA         18.0020  -48.3370   -7.9920 C.3       9 GLL5        0.0000 
     30 CA         16.4340  -44.5010   -8.5160 C.3       6 GLP5        0.0000 
     31 O          20.4600  -50.6285  -13.1725 O.2       1 ALC1        0.0000 
     32 O          19.3100  -50.8090  -13.8900 O.2       7 ALL1        0.0000 
     33 O          21.6100  -50.4480  -12.4550 O.2       4 ALP1        0.0000 
     34 CA         17.3310  -45.7345   -9.6145 C.3       3 GLC5        0.0000 
     35 CA         18.2280  -46.9680  -10.7130 C.3       9 GLL5        0.0000 
     36 CA         18.1800  -43.4105   -8.9045 C.3       3 GLC5        0.0000 
     37 CA         19.9260  -42.3200   -9.2930 C.3       9 GLL5        0.0000 
     38 CA         18.8955  -41.6670   -7.7455 C.3       3 GLC5        0.0000 
     39 CA         17.8650  -41.0140   -6.1980 C.3       6 GLP5        0.0000 
     40 CA         22.9300  -41.9170  -10.7260 C.3       3 GLC5        0.0000 
     41 CA         20.9470  -42.0490  -10.4000 C.3       9 GLL5        0.0000 
     42 CA         23.2728  -45.5117   -8.5518 C.3       3 GLC5        0.0000 
     43 CA         21.5690  -44.3470   -9.3180 C.3       9 GLL5        0.0000 
     44 CA         24.6400  -46.2010   -7.2910 C.3       6 GLP5        0.0000 
     45 CA         19.8495  -48.9282   -6.3505 C.3       3 GLC5        0.0000 
     46 CA         19.1540  -46.8900   -6.6030 C.3       9 GLL5        0.0000 
     47 CA         20.8750  -50.7100   -6.6650 C.3       6 GLP5        0.0000 
     48 CA         19.2747  -49.6515   -7.0457 C.3       3 GLC5        0.0000 
     49 CA         17.3682  -45.9505  -14.0785 C.3       3 GLC5        0.0000 
     50 CA         18.6380  -47.4310  -13.0440 C.3       9 GLL5        0.0000 
     51 CA         15.9390  -44.5810  -14.3820 C.3       6 GLP5        0.0000 
     52 CA         17.0265  -45.5477  -11.9810 C.3       3 GLC5        0.0000 
     53 CA         18.5420  -46.5310  -11.9910 C.3       9 GLL5        0.0000 
     54 CA         15.6680  -44.3460  -12.6100 C.3       6 GLP5        0.0000 
     55 CA         16.1995  -48.2593  -10.8687 C.3       3 GLC5        0.0000 
     56 CA         14.2500  -48.6450  -10.8850 C.3       6 GLP5        0.0000 
     57 CA         19.0957  -40.7377  -10.3788 C.3       3 GLC5        0.0000 
     58 CA         17.7550  -39.2910  -10.9110 C.3       6 GLP5        0.0000 
     59 CA         21.1122  -40.6962   -8.9707 C.3       3 GLC5        0.0000 
     60 CA         21.7880  -39.2080   -8.0950 C.3       6 GLP5        0.0000 
     61 CA         20.1106  -47.7848   -4.5720 C.3       3 GLC5        0.0000 
     62 CA         20.8180  -49.0880   -3.4000 C.3       6 GLP5        0.0000 
     63 CA         18.0166  -45.4607   -5.8820 C.3       3 GLC5        0.0000 
     64 CA         16.6300  -44.4400   -6.0200 C.3       6 GLP5        0.0000 
@<TRIPOS>BOND
@<TRIPOS>SUBSTRUCTURE
     1 ALC1       16 GROUP        1 X    ALC  0     ROOT ALC X 1
     2 SEC2       22 GROUP        1 X    SEC  0     **** SEC X 2
     3 GLC5        1 GROUP        1 X    GLC  0     **** GLC X 6
     4 ALP1       18 GROUP        1 Y    ALP  0     ROOT ALP Y 8
     5 SEP2       24 GROUP        1 Y    SEP  0     **** SEP Y 9
     6 GLP5        3 GROUP        1 Y    GLP  0     **** GLP Y 13
     7 ALL1       17 GROUP        1 Z    ALL  0     ROOT ALL Z 15
     8 SEL2       23 GROUP        1 Z    SEL  0     **** SEL Z 16
     9 GLL5        2 GROUP        1 Z    GLL  0     **** GLL Z 20
@<TRIPOS>SET

