#    Name: 3zep_1NX_4_ligand
#    Modification time : Tue Mar 25 02:51:05 2014

@<TRIPOS>MOLECULE
3zep_1NX_4_ligand
   56    60     1     0     0
SMALL
NO_CHARGES


@<TRIPOS>ATOM
      1 C1         22.2420  -45.2980  -10.3070 C.3       1 1NX2100     0.0000 
      2 C2         21.5690  -44.3470   -9.3180 C.3       1 1NX2100     0.0000 
      3 N4         20.7960  -45.1060   -8.3360 N.am      1 1NX2100     0.0000 
      4 C5         20.9500  -45.0240   -6.9850 C.2       1 1NX2100     0.0000 
      5 O6         21.7770  -44.2900   -6.4670 O.2       1 1NX2100     0.0000 
      6 C7         20.0680  -45.8430   -6.1300 C.2       1 1NX2100     0.0000 
      7 C8         19.8970  -45.7900   -4.7740 C.2       1 1NX2100     0.0000 
      8 N9         18.9740  -46.7090   -4.3820 N.pl3     1 1NX2100     0.0000 
      9 C10        18.4940  -47.4030   -5.4690 C.ar      1 1NX2100     0.0000 
     10 N11        17.6020  -48.3800   -5.6400 N.ar      1 1NX2100     0.0000 
     11 C12        17.3470  -48.8490   -6.8610 C.ar      1 1NX2100     0.0000 
     12 C13        18.0020  -48.3370   -7.9920 C.ar      1 1NX2100     0.0000 
     13 N14        18.8950  -47.3700   -7.8140 N.ar      1 1NX2100     0.0000 
     14 C15        19.1540  -46.8900   -6.6030 C.ar      1 1NX2100     0.0000 
     15 O16        17.7050  -48.8570   -9.2260 O.3       1 1NX2100     0.0000 
     16 C17        18.0210  -48.3320  -10.4570 C.ar      1 1NX2100     0.0000 
     17 C18        18.1190  -49.2260  -11.5270 C.ar      1 1NX2100     0.0000 
     18 C19        18.4290  -48.7820  -12.8110 C.ar      1 1NX2100     0.0000 
     19 C20        18.5950  -49.5400  -14.1120 C.3       1 1NX2100     0.0000 
     20 N22        19.3100  -50.8090  -13.8900 N.am      1 1NX2100     0.0000 
     21 C23        18.7030  -52.0240  -13.9150 C.2       1 1NX2100     0.0000 
     22 C24        19.5300  -53.2620  -13.6760 C.3       1 1NX2100     0.0000 
     23 O25        17.5140  -52.1520  -14.1240 O.2       1 1NX2100     0.0000 
     24 C26        19.4270  -48.5910  -15.0030 C.3       1 1NX2100     0.0000 
     25 C27        18.9570  -47.2090  -14.5060 C.3       1 1NX2100     0.0000 
     26 C28        18.6380  -47.4310  -13.0440 C.ar      1 1NX2100     0.0000 
     27 C29        18.5420  -46.5310  -11.9910 C.ar      1 1NX2100     0.0000 
     28 C30        18.2280  -46.9680  -10.7130 C.ar      1 1NX2100     0.0000 
     29 C31        20.5530  -43.4840  -10.0620 C.3       1 1NX2100     0.0000 
     30 C32        19.9260  -42.3200   -9.2930 C.3       1 1NX2100     0.0000 
     31 C33        20.9470  -42.0490  -10.4000 C.3       1 1NX2100     0.0000 
     32 H          22.2813  -43.7278   -8.8586 H         1 1NX2100     0.0000 
     33 H          20.0703  -45.7590   -8.7457 H         1 1NX2100     0.0000 
     34 H          20.3684  -45.1826   -4.1806 H         1 1NX2100     0.0000 
     35 H          18.6879  -46.8609   -3.4658 H         1 1NX2100     0.0000 
     36 H          16.6500  -49.6138   -7.0121 H         1 1NX2100     0.0000 
     37 H          17.9583  -50.2345  -11.3610 H         1 1NX2100     0.0000 
     38 H          17.6506  -49.6767  -14.5609 H         1 1NX2100     0.0000 
     39 H          20.3358  -50.7200  -13.7077 H         1 1NX2100     0.0000 
     40 H          19.1540  -48.7192  -16.0070 H         1 1NX2100     0.0000 
     41 H          20.4470  -48.7152  -14.7954 H         1 1NX2100     0.0000 
     42 H          18.0820  -46.9261  -15.0368 H         1 1NX2100     0.0000 
     43 H          19.7512  -46.5120  -14.6097 H         1 1NX2100     0.0000 
     44 H          18.7065  -45.5246  -12.1624 H         1 1NX2100     0.0000 
     45 H          18.1444  -46.2914   -9.9402 H         1 1NX2100     0.0000 
     46 H          19.9161  -43.7616  -10.7128 H         1 1NX2100     0.0000 
     47 H          20.3784  -42.2494   -8.4670 H         1 1NX2100     0.0000 
     48 H          19.0675  -42.1696   -9.6566 H         1 1NX2100     0.0000 
     49 H          20.4663  -41.7949  -11.1731 H         1 1NX2100     0.0000 
     50 H          21.7773  -41.8747   -9.9835 H         1 1NX2100     0.0000 
     51 H          22.7756  -44.8036  -10.9932 H         1 1NX2100     0.0000 
     52 H          22.8674  -45.9293   -9.8483 H         1 1NX2100     0.0000 
     53 H          21.5736  -45.8545  -10.8006 H         1 1NX2100     0.0000 
     54 H          20.2572  -53.3597  -14.3554 H         1 1NX2100     0.0000 
     55 H          19.9685  -53.2480  -12.7774 H         1 1NX2100     0.0000 
     56 H          18.9754  -54.0930  -13.7186 H         1 1NX2100     0.0000 
@<TRIPOS>BOND
     1    2    1 1    
     2   51    1 1    
     3   52    1 1    
     4   53    1 1    
     5    3    2 1    
     6   29    2 1    
     7   32    2 1    
     8    4    3 am   
     9   33    3 1    
    10    5    4 2    
    11    6    4 1    
    12    7    6 2    
    13   14    6 1    
    14    8    7 1    
    15   34    7 1    
    16    9    8 1    
    17   35    8 1    
    18   10    9 ar   
    19   14    9 ar   
    20   11   10 ar   
    21   12   11 ar   
    22   36   11 1    
    23   13   12 ar   
    24   15   12 1    
    25   14   13 ar   
    26   16   15 1    
    27   17   16 ar   
    28   28   16 ar   
    29   18   17 ar   
    30   37   17 1    
    31   19   18 1    
    32   26   18 ar   
    33   20   19 1    
    34   24   19 1    
    35   38   19 1    
    36   21   20 am   
    37   39   20 1    
    38   22   21 1    
    39   23   21 2    
    40   54   22 1    
    41   55   22 1    
    42   56   22 1    
    43   25   24 1    
    44   40   24 1    
    45   41   24 1    
    46   26   25 1    
    47   42   25 1    
    48   43   25 1    
    49   27   26 ar   
    50   28   27 ar   
    51   44   27 1    
    52   45   28 1    
    53   30   29 1    
    54   31   29 1    
    55   46   29 1    
    56   31   30 1    
    57   47   30 1    
    58   48   30 1    
    59   49   31 1    
    60   50   31 1    
@<TRIPOS>SUBSTRUCTURE
     1 1NX2100     1 GROUP   
@<TRIPOS>SET

