#    Name: 3RM8_1_CAVITY_N1_ALL.mol2
#    Modification time : Mon Mar 10 20:49:40 2014

@<TRIPOS>MOLECULE
3RM8_1_CAVITY_N1_ALL.mol2
   91     0     6     0     0
SMALL
NO_CHARGES


@<TRIPOS>ATOM
      1 NZ         -0.4878   53.9970   65.3883 N.2       3 LYS4        0.0000 
      2 CA         -1.6333   54.2662   66.3186 C.3       5 GLY6        0.0000 
      3 CA         -2.7788   54.5354   67.2489 C.3       5 GLY6        0.0000 
      4 CZ         -0.8070   52.5317   65.4193 C.ar      4 PHE5        0.0000 
      5 CA         -1.9525   52.8009   66.3496 C.3       5 GLY6        0.0000 
      6 CA         -3.0980   53.0700   67.2799 C.3       5 GLY6        0.0000 
      7 CZ         -2.2717   51.3355   66.3806 C.ar      4 PHE5        0.0000 
      8 CA         -3.4172   51.6047   67.3109 C.3       5 GLY6        0.0000 
      9 CZ         -2.5909   49.8702   66.4115 C.ar      4 PHE5        0.0000 
     10 CA         -3.7364   50.1394   67.3418 C.3       5 GLY6        0.0000 
     11 CA         -4.8818   50.4086   68.2721 C.3       5 GLY6        0.0000 
     12 CZ         -2.9101   48.4049   66.4425 C.ar      4 PHE5        0.0000 
     13 DU         -4.0556   48.6741   67.3728 H         6 CUB7        0.0000 
     14 NZ         -5.2010   48.9433   68.3031 N.2       3 LYS4        0.0000 
     15 CZ         -3.2293   46.9396   66.4735 C.ar      4 PHE5        0.0000 
     16 NZ         -4.3748   47.2088   67.4038 N.2       3 LYS4        0.0000 
     17 NZ         -5.5202   47.4780   68.3341 N.2       3 LYS4        0.0000 
     18 CA         -3.5485   45.4743   66.5045 C.3       5 GLY6        0.0000 
     19 DU         -4.6940   45.7435   67.4348 H         6 CUB7        0.0000 
     20 CA         -2.7222   43.7398   65.6052 C.3       5 GLY6        0.0000 
     21 NZ         -3.8677   44.0090   66.5355 N.2       3 LYS4        0.0000 
     22 DU         -5.0132   44.2781   67.4658 H         6 CUB7        0.0000 
     23 O           0.7457   55.2880   66.5336 O.2       2 ALA2        0.0000 
     24 CA         -0.3998   55.5572   67.4639 C.3       5 GLY6        0.0000 
     25 O           0.4265   53.8227   66.5646 O.2       2 ALA2        0.0000 
     26 CA         -0.7190   54.0919   67.4949 C.3       5 GLY6        0.0000 
     27 CA         -1.8644   54.3611   68.4252 C.3       5 GLY6        0.0000 
     28 CZ          0.1073   52.3574   66.5956 C.ar      4 PHE5        0.0000 
     29 O          -1.0382   52.6265   67.5259 O.2       2 ALA2        0.0000 
     30 O          -2.1836   52.8957   68.4561 O.2       2 ALA2        0.0000 
     31 CZ         -3.3291   53.1649   69.3864 C.ar      4 PHE5        0.0000 
     32 CZ         -1.3574   51.1612   67.5568 C.ar      4 PHE5        0.0000 
     33 CZ         -2.5028   51.4304   68.4871 C.ar      4 PHE5        0.0000 
     34 CZ         -3.6483   51.6996   69.4174 C.ar      4 PHE5        0.0000 
     35 CZ         -1.6766   49.6959   67.5878 C.ar      4 PHE5        0.0000 
     36 NZ         -2.8220   49.9651   68.5181 N.2       3 LYS4        0.0000 
     37 NZ         -3.9675   50.2343   69.4484 N.2       3 LYS4        0.0000 
     38 CZ         -1.9958   48.2306   67.6188 C.ar      4 PHE5        0.0000 
     39 NZ         -3.1412   48.4998   68.5491 N.2       3 LYS4        0.0000 
     40 CZ         -2.3149   46.7653   67.6498 C.ar      4 PHE5        0.0000 
     41 NZ         -3.4604   47.0345   68.5801 N.2       3 LYS4        0.0000 
     42 NZ         -1.4887   45.0308   66.7505 N.2       3 LYS4        0.0000 
     43 NZ         -2.6341   45.3000   67.6808 N.2       3 LYS4        0.0000 
     44 NZ         -3.7796   45.5692   68.6110 N.2       3 LYS4        0.0000 
     45 NZ         -4.9251   45.8384   69.5413 N.2       3 LYS4        0.0000 
     46 NZ         -2.9533   43.8346   67.7117 N.2       3 LYS4        0.0000 
     47 O          -1.2693   52.7214   69.6324 O.2       2 ALA2        0.0000 
     48 O          -1.5885   51.2561   69.6634 O.2       2 ALA2        0.0000 
     49 CZ         -0.7622   49.5216   68.7641 C.ar      4 PHE5        0.0000 
     50 OG         -1.9077   49.7908   69.6944 O.2       1 SER1        0.0000 
     51 CZ         -1.0814   48.0563   68.7951 C.ar      4 PHE5        0.0000 
     52 NZ         -2.2269   48.3255   69.7254 N.2       3 LYS4        0.0000 
     53 CZ         -1.4006   46.5910   68.8260 C.ar      4 PHE5        0.0000 
     54 NZ         -1.7198   45.1257   68.8570 N.2       3 LYS4        0.0000 
     55 NZ         -2.8653   45.3949   69.7873 N.2       3 LYS4        0.0000 
     56 OG         -3.1845   43.9295   69.8183 O.2       1 SER1        0.0000 
     57 CA         -2.8668   52.9752   65.1733 C.3       5 GLY6        0.0000 
     58 CZ         -2.0406   51.2406   64.2740 C.ar      4 PHE5        0.0000 
     59 CA         -3.1860   51.5098   65.2043 C.3       5 GLY6        0.0000 
     60 CZ         -2.3597   49.7753   64.3050 C.ar      4 PHE5        0.0000 
     61 CA         -3.5052   50.0445   65.2353 C.3       5 GLY6        0.0000 
     62 CA         -4.9699   48.8484   66.1965 C.3       5 GLY6        0.0000 
     63 CA         -6.1154   49.1176   67.1268 C.3       5 GLY6        0.0000 
     64 DU         -6.4346   47.6523   67.1578 H         6 CUB7        0.0000 
     65 CA         -3.3173   45.3794   64.3979 C.3       5 GLY6        0.0000 
     66 DU         -6.7538   46.1870   67.1888 H         6 CUB7        0.0000 
     67 CA         -3.6365   43.9141   64.4289 C.3       5 GLY6        0.0000 
     68 O          -1.3141   55.7315   66.2876 O.2       2 ALA2        0.0000 
     69 CA         -2.4596   56.0007   67.2179 C.3       5 GLY6        0.0000 
     70 NZ         -4.1004   51.6841   64.0280 N.2       3 LYS4        0.0000 
     71 CA         -4.4196   50.2188   64.0590 C.3       5 GLY6        0.0000 
     72 CZ          1.2976   49.0781   69.0101 C.ar      4 PHE5        0.0000 
     73 CZ          0.1521   49.3473   69.9404 C.ar      4 PHE5        0.0000 
     74 OG         -0.9934   49.6165   70.8706 O.2       1 SER1        0.0000 
     75 CZ          0.9784   47.6128   69.0411 C.ar      4 PHE5        0.0000 
     76 CZ         -0.1671   47.8820   69.9713 C.ar      4 PHE5        0.0000 
     77 NZ         -1.3126   48.1512   70.9016 N.2       3 LYS4        0.0000 
     78 NZ          0.6592   46.1475   69.0720 N.2       3 LYS4        0.0000 
     79 CA         -0.4863   46.4167   70.0023 C.3       5 GLY6        0.0000 
     80 NZ         -1.6318   46.6859   70.9326 N.2       3 LYS4        0.0000 
     81 CA         -1.9509   45.2205   70.9636 C.3       5 GLY6        0.0000 
     82 CZ          1.0665   49.1730   71.1166 C.ar      4 PHE5        0.0000 
     83 CZ          3.0382   47.1693   69.2870 C.ar      4 PHE5        0.0000 
     84 CZ          1.8927   47.4385   70.2173 C.ar      4 PHE5        0.0000 
     85 OG          0.7473   47.7077   71.1476 O.2       1 SER1        0.0000 
     86 NZ          2.7190   45.7040   69.3180 N.2       3 LYS4        0.0000 
     87 CA          1.5735   45.9732   70.2483 C.3       5 GLY6        0.0000 
     88 CZ          3.9525   46.9950   70.4633 C.ar      4 PHE5        0.0000 
     89 CZ          2.8071   47.2642   71.3936 C.ar      4 PHE5        0.0000 
     90 NZ          3.6333   45.5297   70.4943 N.2       3 LYS4        0.0000 
     91 CA          2.4879   45.7989   71.4246 C.3       5 GLY6        0.0000 
@<TRIPOS>BOND
@<TRIPOS>SUBSTRUCTURE
     1 SER1       50 GROUP   
     2 ALA2       23 GROUP   
     3 LYS4        1 GROUP   
     4 PHE5        4 GROUP   
     5 GLY6        2 GROUP   
     6 CUB7       13 GROUP   
@<TRIPOS>SET

