#    Name: 3rm8_RM8_1_INTS_M
#    Modification time : Mon Apr  7 20:27:30 2014

@<TRIPOS>MOLECULE
3rm8_RM8_1_INTS_M
   62     0    12     0     0
SMALL
NO_CHARGES


@<TRIPOS>ATOM
      1 CA         -1.6850   48.5265   64.8945 C.3       4 GLC5        0.0000 
      2 CA         -3.3040   48.6830   65.6950 C.3      12 GLL5        0.0000 
      3 CA         -0.0660   48.3700   64.0940 C.3       8 GLP5        0.0000 
      4 O          -2.7950   50.9415   64.0245 O.2       1 ALC1        0.0000 
      5 O          -2.4920   51.0310   65.4590 O.2       9 ALL1        0.0000 
      6 O          -3.0980   50.8520   62.5900 O.2       5 ALP1        0.0000 
      7 OD1        -3.8915   49.1370   70.4675 O.co2     3 ASC3        0.0000 
      8 OD1        -2.3150   48.9360   69.5230 O.co2    11 ASL3        0.0000 
      9 OD1        -5.4680   49.3380   71.4120 O.co2     7 ASP3        0.0000 
     10 OD1        -3.1905   48.2955   70.4030 O.co2     3 ASC3        0.0000 
     11 OD1        -4.0660   47.6550   71.2830 O.co2     7 ASP3        0.0000 
     12 O          -3.1905   48.2955   70.4030 O.2       1 ALC1        0.0000 
     13 O          -2.3150   48.9360   69.5230 O.2       9 ALL1        0.0000 
     14 O          -4.0660   47.6550   71.2830 O.2       5 ALP1        0.0000 
     15 N           1.6025   47.8710   73.1185 N.am      2 SEC2        0.0000 
     16 N           1.9340   47.4580   71.8350 N.am     10 SEL2        0.0000 
     17 N           1.2710   48.2840   74.4020 N.am      6 SEP2        0.0000 
     18 CA         -2.6600   55.1850   69.9115 C.3       4 GLC5        0.0000 
     19 CA         -1.8400   54.1080   68.1380 C.3      12 GLL5        0.0000 
     20 CA         -3.4800   56.2620   71.6850 C.3       8 GLP5        0.0000 
     21 CA         -3.4255   50.8630   70.5210 C.3       4 GLC5        0.0000 
     22 CA         -3.3840   49.7300   68.7880 C.3      12 GLL5        0.0000 
     23 CA         -3.4670   51.9960   72.2540 C.3       8 GLP5        0.0000 
     24 CA         -0.0330   49.0590   68.3230 C.3       4 GLC5        0.0000 
     25 CA         -1.2040   49.8140   70.0760 C.3      12 GLL5        0.0000 
     26 CA          1.1380   48.3040   66.5700 C.3       8 GLP5        0.0000 
     27 CA         -2.3355   50.9050   71.1650 C.3       4 GLC5        0.0000 
     28 CA         -0.0840   51.1115   70.5460 C.3       4 GLC5        0.0000 
     29 CA          1.0360   52.4090   71.0160 C.3       8 GLP5        0.0000 
     30 CA         -0.6725   48.4040   72.5405 C.3       4 GLC5        0.0000 
     31 CA         -0.2740   48.9730   70.9410 C.3      12 GLL5        0.0000 
     32 CA         -1.0710   47.8350   74.1400 C.3       8 GLP5        0.0000 
     33 CA          0.8020   50.3360   71.3830 C.3       4 GLC5        0.0000 
     34 CA          1.8780   51.6990   71.8250 C.3       8 GLP5        0.0000 
     35 CA         -0.3530   45.4690   70.6245 C.3       4 GLC5        0.0000 
     36 CA         -0.8460   46.9220   69.6110 C.3      12 GLL5        0.0000 
     37 CA          0.1400   44.0160   71.6380 C.3       8 GLP5        0.0000 
     38 CA          4.8805   44.4845   69.5470 C.3       4 GLC5        0.0000 
     39 CA          3.4080   45.9100   70.0750 C.3      12 GLL5        0.0000 
     40 CA          6.3530   43.0590   69.0190 C.3       8 GLP5        0.0000 
     41 CA         -0.6445   55.2152   68.7903 C.3       4 GLC5        0.0000 
     42 CA          0.4130   56.1810   70.1120 C.3       8 GLP5        0.0000 
     43 CA         -2.5453   54.7005   64.8553 C.3       4 GLC5        0.0000 
     44 CA         -1.5640   54.3910   66.7990 C.3      12 GLL5        0.0000 
     45 CA         -3.4350   55.4970   63.4070 C.3       8 GLP5        0.0000 
     46 CA         -3.5801   54.5985   67.7149 C.3       4 GLC5        0.0000 
     47 CA         -5.3400   55.2640   67.8660 C.3       8 GLP5        0.0000 
     48 CA         -3.9635   52.5632   66.4090 C.3       4 GLC5        0.0000 
     49 CA         -1.7470   53.4170   65.8080 C.3      12 GLL5        0.0000 
     50 CA         -5.8720   52.4190   66.4790 C.3       8 GLP5        0.0000 
     51 CA         -4.5204   51.2039   67.1654 C.3       4 GLC5        0.0000 
     52 CA         -2.9630   50.4830   67.5680 C.3      12 GLL5        0.0000 
     53 CA         -0.3410   47.2245   67.6120 C.3       4 GLC5        0.0000 
     54 CA         -1.7960   47.7420   68.7430 C.3      12 GLL5        0.0000 
     55 CA          0.6390   47.1170   66.0470 C.3       8 GLP5        0.0000 
     56 CA          0.9738   45.4295   70.8830 C.3       4 GLC5        0.0000 
     57 CA          2.1810   46.4500   69.6790 C.3      12 GLL5        0.0000 
     58 CA          4.2400   44.8762   72.5797 C.3       4 GLC5        0.0000 
     59 CA          3.9020   46.1490   71.3490 C.3      12 GLL5        0.0000 
     60 CA          4.9640   43.2150   73.3900 C.3       8 GLP5        0.0000 
     61 CA          1.7662   45.2469   71.5445 C.3       4 GLC5        0.0000 
     62 CA          3.1300   46.9260   72.1900 C.3      12 GLL5        0.0000 
@<TRIPOS>BOND
@<TRIPOS>SUBSTRUCTURE
     1 ALC1        4 GROUP        1 X    ALC  0     ROOT ALC X 1
     2 SEC2       15 GROUP        1 X    SEC  0     **** SEC X 2
     3 ASC3        7 GROUP        1 X    ASC  0     **** ASC X 3
     4 GLC5        1 GROUP        1 X    GLC  0     **** GLC X 6
     5 ALP1        6 GROUP        1 Y    ALP  0     ROOT ALP Y 8
     6 SEP2       17 GROUP        1 Y    SEP  0     **** SEP Y 9
     7 ASP3        9 GROUP        1 Y    ASP  0     **** ASP Y 10
     8 GLP5        3 GROUP        1 Y    GLP  0     **** GLP Y 13
     9 ALL1        5 GROUP        1 Z    ALL  0     ROOT ALL Z 15
    10 SEL2       16 GROUP        1 Z    SEL  0     **** SEL Z 16
    11 ASL3        8 GROUP        1 Z    ASL  0     **** ASL Z 17
    12 GLL5        2 GROUP        1 Z    GLL  0     **** GLL Z 20
@<TRIPOS>SET

