#    Name: 3rm8_RM8_1_ligand
#    Modification time : Mon Apr  7 20:27:30 2014

@<TRIPOS>MOLECULE
3rm8_RM8_1_ligand
   46    49     1     0     0
SMALL
NO_CHARGES


@<TRIPOS>ATOM
      1 C1         -3.3040   48.6830   65.6950 C.3       1 RM8417      0.0000 
      2 N1         -2.4920   51.0310   65.4590 N.pl3     1 RM8417      0.0000 
      3 C2         -2.9440   50.0120   66.2630 C.2       1 RM8417      0.0000 
      4 N2         -2.3150   48.9360   69.5230 N.4       1 RM8417      0.0000 
      5 C3         -2.9630   50.4830   67.5680 C.2       1 RM8417      0.0000 
      6 N3          0.1920   47.7880   70.1980 N.3       1 RM8417      0.0000 
      7 C4         -2.5040   51.8420   67.5360 C.ar      1 RM8417      0.0000 
      8 N4          1.9340   47.4580   71.8350 N.ar      1 RM8417      0.0000 
      9 C5         -2.3130   52.8420   68.5190 C.ar      1 RM8417      0.0000 
     10 C6         -1.8400   54.1080   68.1380 C.ar      1 RM8417      0.0000 
     11 C7         -1.5640   54.3910   66.7990 C.ar      1 RM8417      0.0000 
     12 C8         -1.7470   53.4170   65.8080 C.ar      1 RM8417      0.0000 
     13 C9         -2.2220   52.1540   66.2040 C.ar      1 RM8417      0.0000 
     14 C10        -3.3840   49.7300   68.7880 C.3       1 RM8417      0.0000 
     15 C11        -1.2040   49.8140   70.0760 C.3       1 RM8417      0.0000 
     16 C12        -0.2740   48.9730   70.9410 C.3       1 RM8417      0.0000 
     17 C13        -0.8460   46.9220   69.6110 C.3       1 RM8417      0.0000 
     18 C14        -1.7960   47.7420   68.7430 C.3       1 RM8417      0.0000 
     19 C15         1.4340   47.2360   70.5770 C.ar      1 RM8417      0.0000 
     20 C16         2.1810   46.4500   69.6790 C.ar      1 RM8417      0.0000 
     21 C17         3.4080   45.9100   70.0750 C.ar      1 RM8417      0.0000 
     22 C18         3.9020   46.1490   71.3490 C.ar      1 RM8417      0.0000 
     23 C19         3.1300   46.9260   72.1900 C.ar      1 RM8417      0.0000 
     24 H          -2.3790   50.9664   64.4970 H         1 RM8417      0.0000 
     25 H          -2.8383   48.4989   70.4409 H         1 RM8417      0.0000 
     26 H          -2.5190   52.6396   69.4964 H         1 RM8417      0.0000 
     27 H          -1.6965   54.8322   68.8556 H         1 RM8417      0.0000 
     28 H          -1.2215   55.3265   66.5337 H         1 RM8417      0.0000 
     29 H          -1.5446   53.6139   64.8387 H         1 RM8417      0.0000 
     30 H          -3.8510   50.4435   69.5173 H         1 RM8417      0.0000 
     31 H          -4.2155   49.0269   68.5172 H         1 RM8417      0.0000 
     32 H          -1.6347   50.6075   70.6769 H         1 RM8417      0.0000 
     33 H          -0.6406   50.2448   69.2555 H         1 RM8417      0.0000 
     34 H           0.5746   49.5934   71.2443 H         1 RM8417      0.0000 
     35 H          -0.8155   48.6716   71.8426 H         1 RM8417      0.0000 
     36 H          -1.4289   46.4340   70.3971 H         1 RM8417      0.0000 
     37 H          -0.3920   46.1452   68.9895 H         1 RM8417      0.0000 
     38 H          -1.2653   48.0875   67.8596 H         1 RM8417      0.0000 
     39 H          -2.6308   47.1168   68.4370 H         1 RM8417      0.0000 
     40 H           1.8212   46.2763   68.7356 H         1 RM8417      0.0000 
     41 H           3.9454   45.3313   69.4129 H         1 RM8417      0.0000 
     42 H           4.7904   45.7689   71.6466 H         1 RM8417      0.0000 
     43 H           3.5021   47.1113   73.1663 H         1 RM8417      0.0000 
     44 H          -2.5256   48.2504   65.2400 H         1 RM8417      0.0000 
     45 H          -3.6191   48.0499   66.4021 H         1 RM8417      0.0000 
     46 H          -4.0365   48.7545   65.0180 H         1 RM8417      0.0000 
@<TRIPOS>BOND
     1    3    1 1    
     2   44    1 1    
     3   45    1 1    
     4   46    1 1    
     5    3    2 1    
     6   13    2 1    
     7   24    2 1    
     8    5    3 2    
     9   14    4 1    
    10   15    4 1    
    11   18    4 1    
    12   25    4 1    
    13    7    5 1    
    14   14    5 1    
    15   16    6 1    
    16   17    6 1    
    17   19    6 1    
    18    9    7 ar   
    19   13    7 ar   
    20   19    8 ar   
    21   23    8 ar   
    22   10    9 ar   
    23   26    9 1    
    24   11   10 ar   
    25   27   10 1    
    26   12   11 ar   
    27   28   11 1    
    28   13   12 ar   
    29   29   12 1    
    30   30   14 1    
    31   31   14 1    
    32   16   15 1    
    33   32   15 1    
    34   33   15 1    
    35   34   16 1    
    36   35   16 1    
    37   18   17 1    
    38   36   17 1    
    39   37   17 1    
    40   38   18 1    
    41   39   18 1    
    42   20   19 ar   
    43   21   20 ar   
    44   40   20 1    
    45   22   21 ar   
    46   41   21 1    
    47   23   22 ar   
    48   42   22 1    
    49   43   23 1    
@<TRIPOS>SUBSTRUCTURE
     1 RM8417      1 GROUP   
@<TRIPOS>SET

