#    Name: 3MHM_1_CAVITY_N1_ALL.mol2
#    Modification time : Tue Mar 11 13:40:23 2014

@<TRIPOS>MOLECULE
3MHM_1_CAVITY_N1_ALL.mol2
  102     0     6     0     0
SMALL
NO_CHARGES


@<TRIPOS>ATOM
      1 CA         -1.3581    9.8410   15.6135 C.3       5 GLY6        0.0000 
      2 CA          0.1072    8.7845   14.5014 C.3       5 GLY6        0.0000 
      3 CA         -0.6204    7.9842   16.3262 C.3       5 GLY6        0.0000 
      4 CA         -0.5157    7.4844   14.9158 C.3       5 GLY6        0.0000 
      5 CZ         -1.8762    8.0411   14.6175 C.ar      4 PHE5        0.0000 
      6 DU         -1.7715    7.5414   13.2071 H         6 CUB7        0.0000 
      7 CZ         -3.1321    8.0981   12.9088 C.ar      4 PHE5        0.0000 
      8 DU         -1.6668    7.0416   11.7967 H         6 CUB7        0.0000 
      9 CZ         -4.3879    8.1551   11.2001 C.ar      4 PHE5        0.0000 
     10 CZ         -5.7484    8.7118   10.9019 C.ar      4 PHE5        0.0000 
     11 CA         -7.1090    9.2686   10.6036 C.3       5 GLY6        0.0000 
     12 DU         -4.2832    7.6553    9.7897 H         6 CUB7        0.0000 
     13 CA         -1.1386    6.1843   15.3303 C.3       5 GLY6        0.0000 
     14 CA         -2.4991    6.7410   15.0320 C.3       5 GLY6        0.0000 
     15 CA         -1.0339    5.6845   13.9199 C.3       5 GLY6        0.0000 
     16 DU         -2.3944    6.2413   13.6216 H         6 CUB7        0.0000 
     17 CZ         -3.7549    6.7980   13.3233 C.ar      4 PHE5        0.0000 
     18 N          -0.9292    5.1847   12.5094 N.2       2 ALA2        0.0000 
     19 DU         -2.2897    5.7415   12.2112 H         6 CUB7        0.0000 
     20 DU         -3.6502    6.2982   11.9129 H         6 CUB7        0.0000 
     21 CZ         -5.0108    6.8550   11.6146 C.ar      4 PHE5        0.0000 
     22 O          -6.3713    7.4117   11.3163 O.2       2 ALA2        0.0000 
     23 CA         -7.7318    7.9685   11.0180 C.3       5 GLY6        0.0000 
     24 DU         -0.8245    4.6850   11.0990 H         6 CUB7        0.0000 
     25 DU         -2.1850    5.2417   10.8008 H         6 CUB7        0.0000 
     26 DU         -3.5455    5.7985   10.5025 H         6 CUB7        0.0000 
     27 O          -4.9061    6.3552   10.2042 O.2       2 ALA2        0.0000 
     28 O          -6.2666    6.9119    9.9059 O.2       2 ALA2        0.0000 
     29 DU         -0.7197    4.1852    9.6886 H         6 CUB7        0.0000 
     30 O          -2.0803    4.7419    9.3903 O.2       2 ALA2        0.0000 
     31 O          -3.4408    5.2987    9.0921 O.2       2 ALA2        0.0000 
     32 O          -4.8014    5.8554    8.7938 O.2       2 ALA2        0.0000 
     33 O          -6.1619    6.4122    8.4955 O.2       2 ALA2        0.0000 
     34 O          -0.6150    3.6854    8.2782 O.2       2 ALA2        0.0000 
     35 O          -1.9756    4.2422    7.9799 O.2       2 ALA2        0.0000 
     36 O          -3.3361    4.7989    7.6816 O.2       2 ALA2        0.0000 
     37 CA         -3.1220    5.4409   15.4464 C.3       5 GLY6        0.0000 
     38 CZ         -4.4825    5.9977   15.1481 C.ar      4 PHE5        0.0000 
     39 OG         -1.6567    4.3844   14.3343 O.2       1 SER1        0.0000 
     40 DU         -3.0173    4.9412   14.0360 H         6 CUB7        0.0000 
     41 CZ         -4.3778    5.4979   13.7377 C.ar      4 PHE5        0.0000 
     42 CZ         -5.7384    6.0547   13.4394 C.ar      4 PHE5        0.0000 
     43 O          -7.0989    6.6114   13.1412 O.2       2 ALA2        0.0000 
     44 OG         -1.5520    3.8846   12.9239 O.2       1 SER1        0.0000 
     45 DU         -2.9126    4.4414   12.6256 H         6 CUB7        0.0000 
     46 O          -4.2731    4.9981   12.3273 O.2       2 ALA2        0.0000 
     47 O          -5.6337    5.5549   12.0290 O.2       2 ALA2        0.0000 
     48 N          -0.0868    2.8281   11.8118 N.2       2 ALA2        0.0000 
     49 OG         -1.4473    3.3849   11.5135 O.2       1 SER1        0.0000 
     50 DU         -2.8079    3.9416   11.2152 H         6 CUB7        0.0000 
     51 O          -4.1684    4.4984   10.9169 O.2       2 ALA2        0.0000 
     52 O          -5.5289    5.0551   10.6186 O.2       2 ALA2        0.0000 
     53 CZ          0.0179    2.3284   10.4014 C.ar      4 PHE5        0.0000 
     54 O          -1.3426    2.8851   10.1031 O.2       2 ALA2        0.0000 
     55 O          -2.7032    3.4418    9.8048 O.2       2 ALA2        0.0000 
     56 O          -4.0637    3.9986    9.5065 O.2       2 ALA2        0.0000 
     57 O          -1.2379    2.3853    8.6927 O.2       2 ALA2        0.0000 
     58 CA         -3.7449    4.1408   15.8609 C.3       5 GLY6        0.0000 
     59 CA         -5.1054    4.6976   15.5626 C.3       5 GLY6        0.0000 
     60 CA         -6.4659    5.2543   15.2643 C.3       5 GLY6        0.0000 
     61 OG         -3.6402    3.6411   14.4505 O.2       1 SER1        0.0000 
     62 O          -5.0007    4.1978   14.1522 O.2       2 ALA2        0.0000 
     63 O          -6.3612    4.7546   13.8539 O.2       2 ALA2        0.0000 
     64 OG         -3.5355    3.1413   13.0401 O.2       1 SER1        0.0000 
     65 O          -4.8960    3.6980   12.7418 O.2       2 ALA2        0.0000 
     66 OG         -2.0702    2.0848   11.9279 O.2       1 SER1        0.0000 
     67 OG         -3.4307    2.6415   11.6296 O.2       1 SER1        0.0000 
     68 O          -4.7913    3.1983   11.3314 O.2       2 ALA2        0.0000 
     69 CZ         -0.6050    1.0283   10.8158 C.ar      4 PHE5        0.0000 
     70 O          -1.9655    1.5850   10.5175 O.2       2 ALA2        0.0000 
     71 O          -3.3260    2.1417   10.2192 O.2       2 ALA2        0.0000 
     72 O          -4.6866    2.6985    9.9209 O.2       2 ALA2        0.0000 
     73 CA         -4.3677    2.8408   16.2753 C.3       5 GLY6        0.0000 
     74 CA         -5.7283    3.3975   15.9770 C.3       5 GLY6        0.0000 
     75 CA         -7.0888    3.9542   15.6788 C.3       5 GLY6        0.0000 
     76 OG         -4.2630    2.3410   14.8649 O.2       1 SER1        0.0000 
     77 O          -5.6236    2.8977   14.5666 O.2       2 ALA2        0.0000 
     78 O          -6.9841    3.4545   14.2683 O.2       2 ALA2        0.0000 
     79 OG         -4.1583    1.8412   13.4545 O.2       1 SER1        0.0000 
     80 O          -5.5189    2.3979   13.1562 O.2       2 ALA2        0.0000 
     81 OG         -2.6931    0.7847   12.3424 O.2       1 SER1        0.0000 
     82 OG         -4.0536    1.3414   12.0441 O.2       1 SER1        0.0000 
     83 O          -5.4142    1.8982   11.7458 O.2       2 ALA2        0.0000 
     84 CZ         -1.2278   -0.2718   11.2303 C.ar      4 PHE5        0.0000 
     85 O          -2.5884    0.2849   10.9320 O.2       2 ALA2        0.0000 
     86 O          -3.9489    0.8416   10.6337 O.2       2 ALA2        0.0000 
     87 N          -5.3095    1.3984   10.3354 N.2       2 ALA2        0.0000 
     88 CA         -2.4837   -0.2149    9.5216 C.3       5 GLY6        0.0000 
     89 CA         -5.0953    2.0404   18.1002 C.3       5 GLY6        0.0000 
     90 CA         -6.4559    2.5972   17.8019 C.3       5 GLY6        0.0000 
     91 O          -4.9906    1.5407   16.6898 O.2       2 ALA2        0.0000 
     92 CA         -6.3512    2.0974   16.3915 C.3       5 GLY6        0.0000 
     93 OG         -3.5254    0.4841   15.5776 O.2       1 SER1        0.0000 
     94 OD1        -4.8859    1.0409   15.2794 O.3       3 ASP3        0.0000 
     95 CA         -3.4207   -0.0156   14.1672 C.3       5 GLY6        0.0000 
     96 N          -4.7812    0.5411   13.8690 N.2       2 ALA2        0.0000 
     97 CA         -3.3160   -0.5154   12.7568 C.3       5 GLY6        0.0000 
     98 N          -4.6765    0.0413   12.4585 N.2       2 ALA2        0.0000 
     99 CA         -1.8507   -1.5719   11.6447 C.3       5 GLY6        0.0000 
    100 CA         -3.2113   -1.0152   11.3464 C.3       5 GLY6        0.0000 
    101 CA         -4.5718   -0.4585   11.0481 C.3       5 GLY6        0.0000 
    102 CA         -3.1065   -1.5150    9.9360 C.3       5 GLY6        0.0000 
@<TRIPOS>BOND
@<TRIPOS>SUBSTRUCTURE
     1 SER1       39 GROUP   
     2 ALA2       18 GROUP   
     3 ASP3       94 GROUP   
     4 PHE5        5 GROUP   
     5 GLY6        1 GROUP   
     6 CUB7        6 GROUP   
@<TRIPOS>SET

