#    Name: 3mhm_J75_1_INTS_M
#    Modification time : Mon Mar 24 23:13:59 2014

@<TRIPOS>MOLECULE
3mhm_J75_1_INTS_M
   51     0    12     0     0
SMALL
NO_CHARGES


@<TRIPOS>ATOM
      1 CA         -7.8185    3.2645   15.3150 C.3       4 GLC5        0.0000 
      2 CA         -5.9770    3.3330   15.6380 C.3      12 GLL5        0.0000 
      3 CA         -9.6600    3.1960   14.9920 C.3       8 GLP5        0.0000 
      4 CA         -7.4070    5.0395   15.3375 C.3       4 GLC5        0.0000 
      5 CA         -5.4020    4.4190   14.9140 C.3      12 GLL5        0.0000 
      6 CA         -9.4120    5.6600   15.7610 C.3       8 GLP5        0.0000 
      7 N          -3.9995    0.5285   18.7055 N.am      2 SEC2        0.0000 
      8 N          -5.3660    0.8300   18.3050 N.am     10 SEL2        0.0000 
      9 N          -2.6330    0.2270   19.1060 N.am      6 SEP2        0.0000 
     10 O          -4.4060   -1.3030   16.8480 O.2       1 ALC1        0.0000 
     11 O          -5.2500   -0.4930   16.0210 O.2       9 ALL1        0.0000 
     12 O          -3.5620   -2.1130   17.6750 O.2       5 ALP1        0.0000 
     13 Zn         -5.9205   -1.0990   15.6870 Zn        3 ZIC7        0.0000 
     14 Zn         -5.2500   -0.4930   16.0210 Zn       11 ZIL7        0.0000 
     15 Zn         -6.5910   -1.7050   15.3530 Zn        7 ZIP7        0.0000 
     16 N          -7.3260    5.4075   12.0750 N.am      2 SEC2        0.0000 
     17 N          -6.8670    6.7860   12.2400 N.am     10 SEL2        0.0000 
     18 N          -7.7850    4.0290   11.9100 N.am      6 SEP2        0.0000 
     19 CA         -5.5610   11.0955   11.8225 C.3       4 GLC5        0.0000 
     20 CA         -5.4700   11.3370    9.6160 C.3      12 GLL5        0.0000 
     21 CA         -5.6520   10.8540   14.0290 C.3       8 GLP5        0.0000 
     22 CA         -4.5625    7.1275   14.4045 C.3       4 GLC5        0.0000 
     23 CA         -3.3440    5.6090   13.8740 C.3      12 GLL5        0.0000 
     24 CA         -5.7810    8.6460   14.9350 C.3       8 GLP5        0.0000 
     25 CA         -2.6695    5.6910   15.8460 C.3       4 GLC5        0.0000 
     26 CA         -1.9950    5.7730   17.8180 C.3       8 GLP5        0.0000 
     27 CA         -3.9065    4.3600   16.5727 C.3       4 GLC5        0.0000 
     28 CA         -4.0140    4.4650   14.6110 C.3      12 GLL5        0.0000 
     29 CA         -4.1810    4.8210   18.3540 C.3       8 GLP5        0.0000 
     30 CA         -1.9413    1.4620   14.9960 C.3       4 GLC5        0.0000 
     31 CA         -3.2500    3.3330   14.9720 C.3      12 GLL5        0.0000 
     32 CA         -0.3570    0.1410   14.6690 C.3       8 GLP5        0.0000 
     33 CA         -4.3325    3.5263   17.0983 C.3       4 GLC5        0.0000 
     34 CA         -3.8010    2.2330   15.6740 C.3      12 GLL5        0.0000 
     35 CA         -4.9352    4.3485   16.8150 C.3       4 GLC5        0.0000 
     36 CA         -7.5325   11.2748   10.6635 C.3       4 GLC5        0.0000 
     37 CA         -9.4510   10.5790   11.3170 C.3       8 GLP5        0.0000 
     38 CA         -6.4177   12.6632   12.3825 C.3       4 GLC5        0.0000 
     39 CA         -5.7580   12.6040   10.4040 C.3      12 GLL5        0.0000 
     40 CA         -7.6020   12.3860   14.0110 C.3       8 GLP5        0.0000 
     41 CA         -6.5925   13.5897   12.9080 C.3       4 GLC5        0.0000 
     42 CA         -4.9420   14.5060   11.7980 C.3      12 GLL5        0.0000 
     43 CA         -7.5185   16.1975   12.6453 C.3       4 GLC5        0.0000 
     44 CA         -6.2240   15.0810   11.8120 C.3      12 GLL5        0.0000 
     45 CA         -8.2850   17.6330   13.8450 C.3       8 GLP5        0.0000 
     46 CA         -4.7299   14.5536   13.3663 C.3       4 GLC5        0.0000 
     47 CA         -3.9350   14.6210   15.1010 C.3       8 GLP5        0.0000 
     48 CA         -8.3042   12.2043   11.0228 C.3       4 GLC5        0.0000 
     49 CA         -7.2800   14.4430   11.0790 C.3      12 GLL5        0.0000 
     50 CA         -7.3798   13.1077   12.3697 C.3       4 GLC5        0.0000 
     51 CA         -7.0350   13.2160   10.3780 C.3      12 GLL5        0.0000 
@<TRIPOS>BOND
@<TRIPOS>SUBSTRUCTURE
     1 ALC1       10 GROUP        1 X    ALC  0     ROOT ALC X 1
     2 SEC2        7 GROUP        1 X    SEC  0     **** SEC X 2
     3 ZIC7       13 GROUP        1 X    ZIC  0     **** ZIC X 5
     4 GLC5        1 GROUP        1 X    GLC  0     **** GLC X 6
     5 ALP1       12 GROUP        1 Y    ALP  0     ROOT ALP Y 8
     6 SEP2        9 GROUP        1 Y    SEP  0     **** SEP Y 9
     7 ZIP7       15 GROUP        1 Y    ZIP  0     **** ZIP Y 12
     8 GLP5        3 GROUP        1 Y    GLP  0     **** GLP Y 13
     9 ALL1       11 GROUP        1 Z    ALL  0     ROOT ALL Z 15
    10 SEL2        8 GROUP        1 Z    SEL  0     **** SEL Z 16
    11 ZIL7       14 GROUP        1 Z    ZIL  0     **** ZIL Z 19
    12 GLL5        2 GROUP        1 Z    GLL  0     **** GLL Z 20
@<TRIPOS>SET

