#    Name: 3mhm_J75_1_ligand
#    Modification time : Mon Mar 24 23:14:00 2014

@<TRIPOS>MOLECULE
3mhm_J75_1_ligand
   46    48     1     0     0
SMALL
NO_CHARGES


@<TRIPOS>ATOM
      1 N1         -3.3430    9.9140   11.1210 N.ar      1 J75264      0.0000 
      2 C2         -2.4220    9.2540   11.8640 C.ar      1 J75264      0.0000 
      3 N3         -2.7350    8.0690   12.4870 N.ar      1 J75264      0.0000 
      4 C4         -3.9790    7.5080   12.3820 C.ar      1 J75264      0.0000 
      5 C5         -4.9710    8.1770   11.5950 C.ar      1 J75264      0.0000 
      6 C6         -4.6130    9.4050   10.9680 C.ar      1 J75264      0.0000 
      7 N7         -4.2960    6.2760   13.0470 N.pl3     1 J75264      0.0000 
      8 C8         -4.0140    4.4650   14.6110 C.ar      1 J75264      0.0000 
      9 C9         -3.2500    3.3330   14.9720 C.ar      1 J75264      0.0000 
     10 C10        -3.8010    2.2330   15.6740 C.ar      1 J75264      0.0000 
     11 C11        -5.1670    2.2300   16.0110 C.ar      1 J75264      0.0000 
     12 C12        -5.9770    3.3330   15.6380 C.ar      1 J75264      0.0000 
     13 C13        -5.4020    4.4190   14.9140 C.ar      1 J75264      0.0000 
     14 S14        -5.8090    0.7640   16.8990 S.o2      1 J75264      0.0000 
     15 O15        -7.3370    0.8270   16.7110 O.2       1 J75264      0.0000 
     16 O16        -5.3660    0.8300   18.3050 O.2       1 J75264      0.0000 
     17 N17        -5.2500   -0.4930   16.0210 N.pl3     1 J75264      0.0000 
     18 N18        -6.3330    7.6820   11.4330 N.pl3     1 J75264      0.0000 
     19 O19        -7.0410    8.1600   10.5750 O.2       1 J75264      0.0000 
     20 O20        -6.8670    6.7860   12.2400 O.2       1 J75264      0.0000 
     21 N21        -5.6140   10.0430   10.1920 N.pl3     1 J75264      0.0000 
     22 C22        -5.4700   11.3370    9.6160 C.3       1 J75264      0.0000 
     23 C23        -5.7580   12.6040   10.4040 C.ar      1 J75264      0.0000 
     24 C24        -4.7090   13.2770   11.1040 C.ar      1 J75264      0.0000 
     25 C25        -4.9420   14.5060   11.7980 C.ar      1 J75264      0.0000 
     26 C26        -6.2240   15.0810   11.8120 C.ar      1 J75264      0.0000 
     27 C27        -7.2800   14.4430   11.0790 C.ar      1 J75264      0.0000 
     28 C28        -7.0350   13.2160   10.3780 C.ar      1 J75264      0.0000 
     29 C29        -3.3440    5.6090   13.8740 C.3       1 J75264      0.0000 
     30 H          -1.4600    9.6430   11.9702 H         1 J75264      0.0000 
     31 H          -5.2292    5.8691   12.9223 H         1 J75264      0.0000 
     32 H          -2.2443    3.3046   14.7132 H         1 J75264      0.0000 
     33 H          -3.2049    1.4464   15.9329 H         1 J75264      0.0000 
     34 H          -6.9622    3.3527   15.8836 H         1 J75264      0.0000 
     35 H          -6.0106    5.1896   14.6033 H         1 J75264      0.0000 
     36 H          -6.5143    9.5333   10.0317 H         1 J75264      0.0000 
     37 H          -6.0962   11.4081    8.6521 H         1 J75264      0.0000 
     38 H          -4.4079   11.4587    9.1878 H         1 J75264      0.0000 
     39 H          -3.7673   12.8697   11.1091 H         1 J75264      0.0000 
     40 H          -4.1651   14.9592   12.2825 H         1 J75264      0.0000 
     41 H          -6.4134   15.9308   12.3263 H         1 J75264      0.0000 
     42 H          -8.2047   14.8625   11.0568 H         1 J75264      0.0000 
     43 H          -7.7996   12.7822    9.8533 H         1 J75264      0.0000 
     44 H          -2.9120    6.2870   14.6216 H         1 J75264      0.0000 
     45 H          -2.5163    5.1938   13.2843 H         1 J75264      0.0000 
     46 H          -4.3650   -0.7194   16.4277 H         1 J75264      0.0000 
@<TRIPOS>BOND
     1    2    1 ar   
     2    6    1 ar   
     3    3    2 ar   
     4   30    2 1    
     5    4    3 ar   
     6    5    4 ar   
     7    7    4 1    
     8    6    5 ar   
     9   18    5 1    
    10   21    6 1    
    11   29    7 1    
    12   31    7 1    
    13    9    8 ar   
    14   13    8 ar   
    15   29    8 1    
    16   10    9 ar   
    17   32    9 1    
    18   11   10 ar   
    19   33   10 1    
    20   12   11 ar   
    21   14   11 1    
    22   13   12 ar   
    23   34   12 1    
    24   35   13 1    
    25   15   14 2    
    26   16   14 2    
    27   17   14 1    
    28   46   17 1    
    29   19   18 2    
    30   20   18 2    
    31   22   21 1    
    32   36   21 1    
    33   23   22 1    
    34   37   22 1    
    35   38   22 1    
    36   24   23 ar   
    37   28   23 ar   
    38   25   24 ar   
    39   39   24 1    
    40   26   25 ar   
    41   40   25 1    
    42   27   26 ar   
    43   41   26 1    
    44   28   27 ar   
    45   42   27 1    
    46   43   28 1    
    47   44   29 1    
    48   45   29 1    
@<TRIPOS>SUBSTRUCTURE
     1 J75264      1 GROUP   
@<TRIPOS>SET

