#    Name: 2rf2_MRX_1_INTS_M
#    Modification time : Mon Mar 24 23:49:57 2014

@<TRIPOS>MOLECULE
2rf2_MRX_1_INTS_M
   61     0     9     0     0
SMALL
NO_CHARGES


@<TRIPOS>ATOM
      1 CA          7.2795    9.1985   19.4625 C.3       3 GLC5        0.0000 
      2 CA          6.6800   10.2160   18.0890 C.3       9 GLL5        0.0000 
      3 CA          7.8790    8.1810   20.8360 C.3       6 GLP5        0.0000 
      4 CA          4.5735    9.9350   17.9335 C.3       3 GLC5        0.0000 
      5 CA          2.4670    9.6540   17.7780 C.3       6 GLP5        0.0000 
      6 CA          7.3675   10.0065   15.9580 C.3       3 GLC5        0.0000 
      7 CA          6.6520   12.0880   15.8560 C.3       9 GLL5        0.0000 
      8 CA          8.0830    7.9250   16.0600 C.3       6 GLP5        0.0000 
      9 CA          7.9830   11.8025   13.4520 C.3       3 GLC5        0.0000 
     10 CA          7.1630   13.0090   14.9290 C.3       9 GLL5        0.0000 
     11 CA          8.8030   10.5960   11.9750 C.3       6 GLP5        0.0000 
     12 CA          9.4600   13.0105   13.2870 C.3       3 GLC5        0.0000 
     13 CA          8.4540   13.5170   15.1070 C.3       9 GLL5        0.0000 
     14 CA         10.4660   12.5040   11.4670 C.3       6 GLP5        0.0000 
     15 O           8.3980   14.6195   13.2665 O.2       1 ALC1        0.0000 
     16 O           9.1950   14.4610   14.3710 O.2       7 ALL1        0.0000 
     17 O           7.6010   14.7780   12.1620 O.2       4 ALP1        0.0000 
     18 CA         10.0845   16.4315   15.7050 C.3       3 GLC5        0.0000 
     19 CA         10.4590   14.6970   14.8560 C.3       9 GLL5        0.0000 
     20 CA          9.7100   18.1660   16.5540 C.3       6 GLP5        0.0000 
     21 CA         10.4625   13.6005   13.1615 C.3       3 GLC5        0.0000 
     22 N           9.4125   16.8160   12.6115 N.am      2 SEC2        0.0000 
     23 N          10.6330   16.2420   13.1600 N.am      8 SEL2        0.0000 
     24 N           8.1920   17.3900   12.0630 N.am      5 SEP2        0.0000 
     25 CA         13.2300   16.2180   19.4265 C.3       3 GLC5        0.0000 
     26 CA         11.5470   16.0860   18.5370 C.3       9 GLL5        0.0000 
     27 CA         14.9130   16.3500   20.3160 C.3       6 GLP5        0.0000 
     28 CA         11.6675   18.5790   19.9350 C.3       3 GLC5        0.0000 
     29 CA         10.9450   16.5560   19.8330 C.3       9 GLL5        0.0000 
     30 CA         12.3900   20.6020   20.0370 C.3       6 GLP5        0.0000 
     31 CA         10.3345   17.5170   21.4025 C.3       3 GLC5        0.0000 
     32 CA          9.7240   18.4780   22.9720 C.3       6 GLP5        0.0000 
     33 CA         11.7595   13.4240   20.9675 C.3       3 GLC5        0.0000 
     34 CA         10.6930   15.2130   20.5450 C.3       9 GLL5        0.0000 
     35 CA         12.8260   11.6350   21.3900 C.3       6 GLP5        0.0000 
     36 CA          9.9165   15.6205   22.3710 C.3       3 GLC5        0.0000 
     37 CA          9.1400   16.0280   24.1970 C.3       6 GLP5        0.0000 
     38 CA          9.1125   15.5770   18.4355 C.3       3 GLC5        0.0000 
     39 CA         10.4640   14.2360   19.3940 C.3       9 GLL5        0.0000 
     40 CA          7.7610   16.9180   17.4770 C.3       6 GLP5        0.0000 
     41 CA         11.0335   12.6180   20.4610 C.3       3 GLC5        0.0000 
     42 CA         11.6030   11.0000   21.5280 C.3       6 GLP5        0.0000 
     43 CA          7.5720    9.4142   16.7847 C.3       3 GLC5        0.0000 
     44 CA          7.4420   11.5910   16.9300 C.3       9 GLL5        0.0000 
     45 CA          6.0215   11.7048   18.9443 C.3       3 GLC5        0.0000 
     46 CA          4.9820   12.5060   20.3790 C.3       6 GLP5        0.0000 
     47 CA          5.7700   10.2152   16.0202 C.3       3 GLC5        0.0000 
     48 CA          4.4790    9.5270   14.5310 C.3       6 GLP5        0.0000 
     49 CA          9.5723   10.7000   16.9050 C.3       3 GLC5        0.0000 
     50 CA          8.7500   12.1020   17.0540 C.3       9 GLL5        0.0000 
     51 CA         10.1250    8.8120   17.2090 C.3       6 GLP5        0.0000 
     52 CA          5.6932   11.0377   14.9618 C.3       3 GLC5        0.0000 
     53 CA         12.1792   13.5770   14.3605 C.3       3 GLC5        0.0000 
     54 CA         10.5760   13.8330   15.9840 C.3       9 GLL5        0.0000 
     55 CA         13.8410   12.8890   13.3010 C.3       6 GLP5        0.0000 
     56 CA          8.7424   15.2411   16.6414 C.3       3 GLC5        0.0000 
     57 CA         10.4780   17.2435   17.8695 C.3       3 GLC5        0.0000 
     58 CA         12.5200   15.9183   20.8295 C.3       3 GLC5        0.0000 
     59 CA         14.2210   15.9520   21.4700 C.3       6 GLP5        0.0000 
     60 CA          8.7877   14.2892   20.4887 C.3       3 GLC5        0.0000 
     61 CA          6.9970   13.8540   21.0080 C.3       6 GLP5        0.0000 
@<TRIPOS>BOND
@<TRIPOS>SUBSTRUCTURE
     1 ALC1       15 GROUP        1 X    ALC  0     ROOT ALC X 1
     2 SEC2       22 GROUP        1 X    SEC  0     **** SEC X 2
     3 GLC5        1 GROUP        1 X    GLC  0     **** GLC X 6
     4 ALP1       17 GROUP        1 Y    ALP  0     ROOT ALP Y 8
     5 SEP2       24 GROUP        1 Y    SEP  0     **** SEP Y 9
     6 GLP5        3 GROUP        1 Y    GLP  0     **** GLP Y 13
     7 ALL1       16 GROUP        1 Z    ALL  0     ROOT ALL Z 15
     8 SEL2       23 GROUP        1 Z    SEL  0     **** SEL Z 16
     9 GLL5        2 GROUP        1 Z    GLL  0     **** GLL Z 20
@<TRIPOS>SET

