#    Name: 2rf2_MRX_1_ligand
#    Modification time : Mon Mar 24 23:49:58 2014

@<TRIPOS>MOLECULE
2rf2_MRX_1_ligand
   33    35     1     0     0
SMALL
NO_CHARGES


@<TRIPOS>ATOM
      1 BR          6.6800   10.2160   18.0890 Br        1 MRX561      0.0000 
      2 C6          7.4420   11.5910   16.9300 C.ar      1 MRX561      0.0000 
      3 C1          8.7500   12.1020   17.0540 C.ar      1 MRX561      0.0000 
      4 C5          6.6520   12.0880   15.8560 C.ar      1 MRX561      0.0000 
      5 C4          7.1630   13.0090   14.9290 C.ar      1 MRX561      0.0000 
      6 C3          8.4540   13.5170   15.1070 C.ar      1 MRX561      0.0000 
      7 N9          9.1950   14.4610   14.3710 N.pl3     1 MRX561      0.0000 
      8 C8         10.4590   14.6970   14.8560 C.2       1 MRX561      0.0000 
      9 C18        11.2090   15.6740   14.1570 C.2       1 MRX561      0.0000 
     10 N20        12.5280   16.1410   14.4480 N.am      1 MRX561      0.0000 
     11 O19        10.6330   16.2420   13.1600 O.2       1 MRX561      0.0000 
     12 C7         10.5760   13.8330   15.9840 C.2       1 MRX561      0.0000 
     13 C2          9.2890   13.0740   16.1480 C.ar      1 MRX561      0.0000 
     14 S10        11.9600   13.6750   17.0640 S.o2      1 MRX561      0.0000 
     15 O16        13.0900   14.4320   16.4800 O.2       1 MRX561      0.0000 
     16 O17        11.8340   12.3280   17.5590 O.2       1 MRX561      0.0000 
     17 N11        11.6390   14.5860   18.5490 N.pl3     1 MRX561      0.0000 
     18 C15        11.5470   16.0860   18.5370 C.3       1 MRX561      0.0000 
     19 C14        10.9450   16.5560   19.8330 C.3       1 MRX561      0.0000 
     20 C13        10.6930   15.2130   20.5450 C.3       1 MRX561      0.0000 
     21 C12        10.4640   14.2360   19.3940 C.3       1 MRX561      0.0000 
     22 H           9.3541   11.7682   17.8276 H         1 MRX561      0.0000 
     23 H           5.6777   11.7569   15.7636 H         1 MRX561      0.0000 
     24 H           6.5966   13.3042   14.1332 H         1 MRX561      0.0000 
     25 H           8.8207   14.9092   13.5712 H         1 MRX561      0.0000 
     26 H          10.9221   16.4073   17.7071 H         1 MRX561      0.0000 
     27 H          12.5406   16.5123   18.4208 H         1 MRX561      0.0000 
     28 H          10.0255   17.0366   19.6640 H         1 MRX561      0.0000 
     29 H          11.6418   17.1160   20.3860 H         1 MRX561      0.0000 
     30 H           9.8198   15.2862   21.1377 H         1 MRX561      0.0000 
     31 H          11.5560   14.9353   21.0901 H         1 MRX561      0.0000 
     32 H          10.5366   13.2535   19.7506 H         1 MRX561      0.0000 
     33 H           9.5670   14.4738   18.9077 H         1 MRX561      0.0000 
@<TRIPOS>BOND
     1    2    1 1    
     2    3    2 ar   
     3    4    2 ar   
     4   13    3 ar   
     5   22    3 1    
     6    5    4 ar   
     7   23    4 1    
     8    6    5 ar   
     9   24    5 1    
    10    7    6 1    
    11   13    6 ar   
    12    8    7 1    
    13   25    7 1    
    14    9    8 1    
    15   12    8 2    
    16   10    9 am   
    17   11    9 2    
    18   13   12 1    
    19   14   12 1    
    20   15   14 2    
    21   16   14 2    
    22   17   14 1    
    23   18   17 1    
    24   21   17 1    
    25   19   18 1    
    26   26   18 1    
    27   27   18 1    
    28   20   19 1    
    29   28   19 1    
    30   29   19 1    
    31   21   20 1    
    32   30   20 1    
    33   31   20 1    
    34   32   21 1    
    35   33   21 1    
@<TRIPOS>SUBSTRUCTURE
     1 MRX561      1 GROUP   
@<TRIPOS>SET

