#    Name: 2vtt_LZD_1_INTS_M
#    Modification time : Tue Mar 25 02:55:28 2014

@<TRIPOS>MOLECULE
2vtt_LZD_1_INTS_M
   65     0    12     0     0
SMALL
NO_CHARGES


@<TRIPOS>ATOM
      1 CA         34.2660    8.1700   64.5305 C.3       4 GLC5        0.0000 
      2 CA         33.0000    9.6610   65.0650 C.3      12 GLL5        0.0000 
      3 CA         35.5320    6.6790   63.9960 C.3       8 GLP5        0.0000 
      4 CA         33.9200   11.3250   64.1050 C.3       4 GLC5        0.0000 
      5 CA         34.8400   12.9890   63.1450 C.3       8 GLP5        0.0000 
      6 CA         31.2940    6.9750   68.0135 C.3       4 GLC5        0.0000 
      7 CA         31.5880    8.0390   66.3690 C.3      12 GLL5        0.0000 
      8 CA         31.0000    5.9110   69.6580 C.3       8 GLP5        0.0000 
      9 CA         32.9950    6.5740   66.7990 C.3       4 GLC5        0.0000 
     10 CA         34.4020    5.1090   67.2290 C.3       8 GLP5        0.0000 
     11 CA         28.8910    8.0620   66.3860 C.3       4 GLC5        0.0000 
     12 CA         30.5880    8.0140   65.2130 C.3      12 GLL5        0.0000 
     13 CA         27.1940    8.1100   67.5590 C.3       8 GLP5        0.0000 
     14 O          30.8475    5.7615   65.7080 O.2       1 ALC1        0.0000 
     15 O          29.8800    6.7330   65.1390 O.2       9 ALL1        0.0000 
     16 O          31.8150    4.7900   66.2770 O.2       5 ALP1        0.0000 
     17 N          29.5105    3.3215   65.8895 N.am      2 SEC2        0.0000 
     18 N          28.4670    4.2590   65.2770 N.am     10 SEL2        0.0000 
     19 N          30.5540    2.3840   66.5020 N.am      6 SEP2        0.0000 
     20 O          27.4005    2.0205   65.4865 O.2       1 ALC1        0.0000 
     21 O          27.6340    3.2320   64.9620 O.2       9 ALL1        0.0000 
     22 O          27.1670    0.8090   66.0110 O.2       5 ALP1        0.0000 
     23 CA         26.7540    1.7895   63.3385 C.3       4 GLC5        0.0000 
     24 CA         26.6710    3.6180   64.0940 C.3      12 GLL5        0.0000 
     25 CA         26.8370   -0.0390   62.5830 C.3       8 GLP5        0.0000 
     26 CA         25.2000    2.3620   64.4830 C.3       4 GLC5        0.0000 
     27 CA         23.7290    1.1060   64.8720 C.3       8 GLP5        0.0000 
     28 CA         27.8265    6.9355   58.5470 C.3       4 GLC5        0.0000 
     29 CA         27.0130    6.8460   60.2850 C.3      12 GLL5        0.0000 
     30 CA         28.6400    7.0250   56.8090 C.3       8 GLP5        0.0000 
     31 CA         28.7115    6.1440   60.7060 C.3       4 GLC5        0.0000 
     32 CA         30.4100    5.4420   61.1270 C.3       8 GLP5        0.0000 
     33 CA         21.8385    4.5950   62.4025 C.3       4 GLC5        0.0000 
     34 CA         22.6500    6.3980   61.9770 C.3      12 GLL5        0.0000 
     35 CA         21.0270    2.7920   62.8280 C.3       8 GLP5        0.0000 
     36 CA         32.1080    8.3435   62.0955 C.3       4 GLC5        0.0000 
     37 CA         31.2950    8.3350   63.8840 C.3      12 GLL5        0.0000 
     38 CA         32.9210    8.3520   60.3070 C.3       8 GLP5        0.0000 
     39 CA         30.8525    6.8885   62.5055 C.3       4 GLC5        0.0000 
     40 OD1        32.5015   10.0215   62.7915 O.co2     3 ASC3        0.0000 
     41 OD1        31.9970    9.6480   63.9620 O.co2    11 ASL3        0.0000 
     42 OD1        33.0060   10.3950   61.6210 O.co2     7 ASP3        0.0000 
     43 CA         26.0050    4.3725   65.4790 C.3       4 GLC5        0.0000 
     44 CA         26.8990    4.9620   63.8100 C.3      12 GLL5        0.0000 
     45 CA         25.2250    4.4550   67.0060 C.3       8 GLP5        0.0000 
     46 CA         27.9070    3.8615   62.8860 C.3       4 GLC5        0.0000 
     47 CA         29.0290    3.4330   61.8200 C.3       8 GLP5        0.0000 
     48 CA         24.3270    6.4578   58.8790 C.3       4 GLC5        0.0000 
     49 CA         25.7210    7.2340   60.2860 C.3      12 GLL5        0.0000 
     50 CA         23.3780    6.0000   57.0360 C.3       8 GLP5        0.0000 
     51 CA         26.3620    7.3575   58.0490 C.3       4 GLC5        0.0000 
     52 CA         25.2990    8.2580   59.4360 C.3      12 GLL5        0.0000 
     53 CA         27.2140    6.9690   56.2370 C.3       8 GLP5        0.0000 
     54 CA         26.4537    5.0564   59.6912 C.3       4 GLC5        0.0000 
     55 CA         26.7630    3.2320   58.8790 C.3       8 GLP5        0.0000 
     56 CA         24.0060    7.2263   58.2378 C.3       4 GLC5        0.0000 
     57 CA         23.1080    8.8923   61.7548 C.3       4 GLC5        0.0000 
     58 CA         23.9690    8.6470   59.4430 C.3      12 GLL5        0.0000 
     59 CA         22.6960    9.4500   63.6390 C.3       8 GLP5        0.0000 
     60 CA         23.3352    6.7562   58.8777 C.3       4 GLC5        0.0000 
     61 CA         23.0710    8.0220   60.2980 C.3      12 GLL5        0.0000 
     62 CA         23.0536    8.0245   62.6011 C.3       4 GLC5        0.0000 
     63 CA         24.8310    6.5970   61.1580 C.3      12 GLL5        0.0000 
     64 CA         21.2501    7.0471   61.4726 C.3       4 GLC5        0.0000 
     65 CA         19.5290    7.1390   61.5970 C.3       8 GLP5        0.0000 
@<TRIPOS>BOND
@<TRIPOS>SUBSTRUCTURE
     1 ALC1       14 GROUP        1 X    ALC  0     ROOT ALC X 1
     2 SEC2       17 GROUP        1 X    SEC  0     **** SEC X 2
     3 ASC3       40 GROUP        1 X    ASC  0     **** ASC X 3
     4 GLC5        1 GROUP        1 X    GLC  0     **** GLC X 6
     5 ALP1       16 GROUP        1 Y    ALP  0     ROOT ALP Y 8
     6 SEP2       19 GROUP        1 Y    SEP  0     **** SEP Y 9
     7 ASP3       42 GROUP        1 Y    ASP  0     **** ASP Y 10
     8 GLP5        3 GROUP        1 Y    GLP  0     **** GLP Y 13
     9 ALL1       15 GROUP        1 Z    ALL  0     ROOT ALL Z 15
    10 SEL2       18 GROUP        1 Z    SEL  0     **** SEL Z 16
    11 ASL3       41 GROUP        1 Z    ASL  0     **** ASL Z 17
    12 GLL5        2 GROUP        1 Z    GLL  0     **** GLL Z 20
@<TRIPOS>SET

