#    Name: 2vtt_LZD_1_ligand
#    Modification time : Tue Mar 25 02:55:28 2014

@<TRIPOS>MOLECULE
2vtt_LZD_1_ligand
   41    43     1     0     0
SMALL
NO_CHARGES


@<TRIPOS>ATOM
      1 C2         33.0000    9.6610   65.0650 C.3       1 LZD1299     0.0000 
      2 C3         32.3270    9.3720   66.4030 C.3       1 LZD1299     0.0000 
      3 C4         31.5880    8.0390   66.3690 C.3       1 LZD1299     0.0000 
      4 C5         30.5880    8.0140   65.2130 C.3       1 LZD1299     0.0000 
      5 N6         29.8800    6.7330   65.1390 N.am      1 LZD1299     0.0000 
      6 C7         28.6430    6.6570   64.5980 C.2       1 LZD1299     0.0000 
      7 O8         28.0660    7.6350   64.1300 O.2       1 LZD1299     0.0000 
      8 C9         28.0110    5.3230   64.5600 C.2       1 LZD1299     0.0000 
      9 N10        28.4670    4.2590   65.2770 N.2       1 LZD1299     0.0000 
     10 N11        27.6340    3.2320   64.9620 N.pl3     1 LZD1299     0.0000 
     11 C12        26.6710    3.6180   64.0940 C.2       1 LZD1299     0.0000 
     12 C13        26.8990    4.9620   63.8100 C.2       1 LZD1299     0.0000 
     13 N14        26.2300    5.8350   62.9630 N.am      1 LZD1299     0.0000 
     14 C15        25.2840    5.4990   62.0660 C.2       1 LZD1299     0.0000 
     15 O16        24.8090    4.3630   61.9810 O.2       1 LZD1299     0.0000 
     16 C17        24.8310    6.5970   61.1580 C.ar      1 LZD1299     0.0000 
     17 C18        25.7210    7.2340   60.2860 C.ar      1 LZD1299     0.0000 
     18 F19        27.0130    6.8460   60.2850 F         1 LZD1299     0.0000 
     19 C20        25.2990    8.2580   59.4360 C.ar      1 LZD1299     0.0000 
     20 C21        23.9690    8.6470   59.4430 C.ar      1 LZD1299     0.0000 
     21 C22        23.0710    8.0220   60.2980 C.ar      1 LZD1299     0.0000 
     22 C23        23.5140    7.0030   61.1410 C.ar      1 LZD1299     0.0000 
     23 F24        22.6500    6.3980   61.9770 F         1 LZD1299     0.0000 
     24 C25        31.2950    8.3350   63.8840 C.3       1 LZD1299     0.0000 
     25 N26        31.9970    9.6480   63.9620 N.4       1 LZD1299     0.0000 
     26 H          33.7655    8.9032   64.8860 H         1 LZD1299     0.0000 
     27 H          33.4858   10.6373   65.1199 H         1 LZD1299     0.0000 
     28 H          31.6193   10.1703   66.6292 H         1 LZD1299     0.0000 
     29 H          33.0840    9.3440   67.1874 H         1 LZD1299     0.0000 
     30 H          31.0556    7.8973   67.3062 H         1 LZD1299     0.0000 
     31 H          32.3048    7.2319   66.2399 H         1 LZD1299     0.0000 
     32 H          29.8632    8.8218   65.3911 H         1 LZD1299     0.0000 
     33 H          30.3712    5.9115   65.5160 H         1 LZD1299     0.0000 
     34 H          27.7236    2.3208   65.3230 H         1 LZD1299     0.0000 
     35 H          25.9685    3.0945   63.7353 H         1 LZD1299     0.0000 
     36 H          26.5049    6.8746   63.0433 H         1 LZD1299     0.0000 
     37 H          25.9718    8.7159   58.8130 H         1 LZD1299     0.0000 
     38 H          23.6467    9.3964   58.8171 H         1 LZD1299     0.0000 
     39 H          22.0854    8.3065   60.3117 H         1 LZD1299     0.0000 
     40 H          30.5457    8.3521   63.0904 H         1 LZD1299     0.0000 
     41 H          32.0075    7.5360   63.6710 H         1 LZD1299     0.0000 
@<TRIPOS>BOND
     1    2    1 1    
     2   25    1 1    
     3   26    1 1    
     4   27    1 1    
     5    3    2 1    
     6   28    2 1    
     7   29    2 1    
     8    4    3 1    
     9   30    3 1    
    10   31    3 1    
    11    5    4 1    
    12   24    4 1    
    13   32    4 1    
    14    6    5 am   
    15   33    5 1    
    16    7    6 2    
    17    8    6 1    
    18    9    8 2    
    19   12    8 1    
    20   10    9 1    
    21   11   10 1    
    22   34   10 1    
    23   12   11 2    
    24   35   11 1    
    25   13   12 1    
    26   14   13 am   
    27   36   13 1    
    28   15   14 2    
    29   16   14 1    
    30   17   16 ar   
    31   22   16 ar   
    32   18   17 1    
    33   19   17 ar   
    34   20   19 ar   
    35   37   19 1    
    36   21   20 ar   
    37   38   20 1    
    38   22   21 ar   
    39   39   21 1    
    40   23   22 1    
    41   25   24 1    
    42   40   24 1    
    43   41   24 1    
@<TRIPOS>SUBSTRUCTURE
     1 LZD1299     1 GROUP   
@<TRIPOS>SET

