#    Name: 1aoe_GW3_2_INTS_M
#    Modification time : Mon Mar 24 18:34:48 2014

@<TRIPOS>MOLECULE
1aoe_GW3_2_INTS_M
   52     0     9     0     0
SMALL
NO_CHARGES


@<TRIPOS>ATOM
      1 CA          7.1790   33.4260   16.8640 C.3       3 GLC5        0.0000 
      2 CA          8.5770   34.2950   18.1900 C.3       9 GLL5        0.0000 
      3 CA          5.7810   32.5570   15.5380 C.3       6 GLP5        0.0000 
      4 CA          6.1000   32.8835   19.3355 C.3       3 GLC5        0.0000 
      5 CA          6.4500   34.8670   18.8500 C.3       9 GLL5        0.0000 
      6 CA          5.7500   30.9000   19.8210 C.3       6 GLP5        0.0000 
      7 CA          6.1155   33.7120   17.1940 C.3       3 GLC5        0.0000 
      8 CA          5.3715   35.9300   17.5400 C.3       3 GLC5        0.0000 
      9 CA          4.2930   36.9930   16.2300 C.3       6 GLP5        0.0000 
     10 CA          6.9805   35.1215   20.8605 C.3       3 GLC5        0.0000 
     11 CA          7.5110   35.3760   22.8710 C.3       6 GLP5        0.0000 
     12 N           5.9425   37.0425   19.6015 N.am      2 SEC2        0.0000 
     13 N           6.8410   36.1270   19.2980 N.am      8 SEL2        0.0000 
     14 N           5.0440   37.9580   19.9050 N.am      5 SEP2        0.0000 
     15 O           8.6040   32.0900   17.1105 O.2       1 ALC1        0.0000 
     16 O           9.3410   33.2540   17.6700 O.2       7 ALL1        0.0000 
     17 O           7.8670   30.9260   16.5510 O.2       4 ALP1        0.0000 
     18 O          10.6555   32.9380   16.9460 O.2       1 ALC1        0.0000 
     19 O          11.9700   32.6220   16.2220 O.2       4 ALP1        0.0000 
     20 CA          8.3065   39.5415   20.8960 C.3       3 GLC5        0.0000 
     21 CA          8.6590   37.7520   19.6920 C.3       9 GLL5        0.0000 
     22 CA          7.9540   41.3310   22.1000 C.3       6 GLP5        0.0000 
     23 CA         12.0590   33.1990   18.4015 C.3       3 GLC5        0.0000 
     24 CA         11.7550   35.3040   18.1860 C.3       9 GLL5        0.0000 
     25 CA         12.3630   31.0940   18.6170 C.3       6 GLP5        0.0000 
     26 CA         14.2365   35.7190   17.0660 C.3       3 GLC5        0.0000 
     27 CA         12.7280   36.2370   18.4630 C.3       9 GLL5        0.0000 
     28 CA         15.7450   35.2010   15.6690 C.3       6 GLP5        0.0000 
     29 CA         13.5860   34.2525   19.0625 C.3       3 GLC5        0.0000 
     30 CA         14.4440   32.2680   19.6620 C.3       6 GLP5        0.0000 
     31 O           4.3260   35.4805   19.4950 O.2       1 ALC1        0.0000 
     32 O           5.1780   34.5010   18.9920 O.2       7 ALL1        0.0000 
     33 O           3.4740   36.4600   19.9980 O.2       4 ALP1        0.0000 
     34 O           3.8605   33.4165   19.0820 O.2       1 ALC1        0.0000 
     35 O           2.5430   32.3320   19.1720 O.2       4 ALP1        0.0000 
     36 CA         16.0340   38.5375   18.9795 C.3       3 GLC5        0.0000 
     37 CA         14.0470   38.9320   18.3620 C.3       9 GLL5        0.0000 
     38 CA         18.0210   38.1430   19.5970 C.3       6 GLP5        0.0000 
     39 CA         14.7360   36.9280   16.2810 C.3       3 GLC5        0.0000 
     40 CA         13.7270   38.6550   16.8930 C.3       9 GLL5        0.0000 
     41 CA         15.8725   38.1450   20.1785 C.3       3 GLC5        0.0000 
     42 CA         13.7240   38.1470   20.7600 C.3       9 GLL5        0.0000 
     43 CA         12.0355   36.2090   22.2305 C.3       3 GLC5        0.0000 
     44 CA         12.8510   37.8060   21.9370 C.3       9 GLL5        0.0000 
     45 CA         11.2200   34.6120   22.5240 C.3       6 GLP5        0.0000 
     46 CA         14.6965   36.9300   22.7580 C.3       3 GLC5        0.0000 
     47 CA         16.5420   36.0540   23.5790 C.3       6 GLP5        0.0000 
     48 CA          7.9863   36.2493   21.1605 C.3       3 GLC5        0.0000 
     49 CA         10.0731   39.0616   18.3746 C.3       3 GLC5        0.0000 
     50 CA          9.9930   40.5930   17.3620 C.3       6 GLP5        0.0000 
     51 CA         11.8111   39.6331   17.6245 C.3       3 GLC5        0.0000 
     52 CA         13.0160   38.4510   19.4000 C.3       9 GLL5        0.0000 
@<TRIPOS>BOND
@<TRIPOS>SUBSTRUCTURE
     1 ALC1       15 GROUP        1 X    ALC  0     ROOT ALC X 1
     2 SEC2       12 GROUP        1 X    SEC  0     **** SEC X 2
     3 GLC5        1 GROUP        1 X    GLC  0     **** GLC X 6
     4 ALP1       17 GROUP        1 Y    ALP  0     ROOT ALP Y 8
     5 SEP2       14 GROUP        1 Y    SEP  0     **** SEP Y 9
     6 GLP5        3 GROUP        1 Y    GLP  0     **** GLP Y 13
     7 ALL1       16 GROUP        1 Z    ALL  0     ROOT ALL Z 15
     8 SEL2       13 GROUP        1 Z    SEL  0     **** SEL Z 16
     9 GLL5        2 GROUP        1 Z    GLL  0     **** GLL Z 20
@<TRIPOS>SET

