#    Name: 1aoe_GW3_2_ligand
#    Modification time : Mon Mar 24 18:34:48 2014

@<TRIPOS>MOLECULE
1aoe_GW3_2_ligand
   39    41     1     0     0
SMALL
NO_CHARGES


@<TRIPOS>ATOM
      1 C1          8.2640   36.4930   19.2080 C.ar      1 GW3194      0.0000 
      2 C2          9.1470   35.5420   18.6700 C.ar      1 GW3194      0.0000 
      3 C3          8.5770   34.2950   18.1900 C.ar      1 GW3194      0.0000 
      4 N4          7.3340   33.9990   18.3560 N.ar      1 GW3194      0.0000 
      5 C5          6.4500   34.8670   18.8500 C.ar      1 GW3194      0.0000 
      6 N6          6.8410   36.1270   19.2980 N.ar      1 GW3194      0.0000 
      7 N7          9.3410   33.2540   17.6700 N.pl3     1 GW3194      0.0000 
      8 C8          8.6590   37.7520   19.6920 C.ar      1 GW3194      0.0000 
      9 C9         10.0300   38.0590   19.6370 C.ar      1 GW3194      0.0000 
     10 C12        10.9620   37.1550   19.1100 C.ar      1 GW3194      0.0000 
     11 C13        10.5260   35.9180   18.6370 C.ar      1 GW3194      0.0000 
     12 C14        11.7550   35.3040   18.1860 C.2       1 GW3194      0.0000 
     13 C15        12.7280   36.2370   18.4630 C.2       1 GW3194      0.0000 
     14 N16        12.2190   37.2540   18.9990 N.pl3     1 GW3194      0.0000 
     15 N19         5.1780   34.5010   18.9920 N.pl3     1 GW3194      0.0000 
     16 C25        13.0160   38.4510   19.4000 C.3       1 GW3194      0.0000 
     17 C27        14.0470   38.9320   18.3620 C.3       1 GW3194      0.0000 
     18 C30        13.7270   38.6550   16.8930 C.3       1 GW3194      0.0000 
     19 C34        13.7240   38.1470   20.7600 C.3       1 GW3194      0.0000 
     20 C37        12.8510   37.8060   21.9370 C.3       1 GW3194      0.0000 
     21 H          10.2044   33.5149   17.2382 H         1 GW3194      0.0000 
     22 H           8.9606   32.3350   17.7731 H         1 GW3194      0.0000 
     23 H           7.9917   38.4038   20.0609 H         1 GW3194      0.0000 
     24 H          10.3560   38.9735   19.9942 H         1 GW3194      0.0000 
     25 H          11.8254   34.4735   17.8048 H         1 GW3194      0.0000 
     26 H          13.6807   36.0669   18.2440 H         1 GW3194      0.0000 
     27 H           4.5571   35.1977   19.3513 H         1 GW3194      0.0000 
     28 H           4.9580   33.5623   18.7266 H         1 GW3194      0.0000 
     29 H          12.3279   39.2860   19.6062 H         1 GW3194      0.0000 
     30 H          15.0309   38.4709   18.6069 H         1 GW3194      0.0000 
     31 H          14.1926   40.0281   18.4958 H         1 GW3194      0.0000 
     32 H          14.3585   39.0324   21.0092 H         1 GW3194      0.0000 
     33 H          14.4486   37.3159   20.5786 H         1 GW3194      0.0000 
     34 H          14.4457   38.9942   16.2860 H         1 GW3194      0.0000 
     35 H          13.6286   37.6764   16.7125 H         1 GW3194      0.0000 
     36 H          12.8735   39.0926   16.6099 H         1 GW3194      0.0000 
     37 H          13.3904   37.6249   22.7594 H         1 GW3194      0.0000 
     38 H          12.2193   38.5489   22.1585 H         1 GW3194      0.0000 
     39 H          12.2968   36.9916   21.7648 H         1 GW3194      0.0000 
@<TRIPOS>BOND
     1    2    1 ar   
     2    6    1 ar   
     3    8    1 ar   
     4    3    2 ar   
     5   11    2 ar   
     6    4    3 ar   
     7    7    3 1    
     8    5    4 ar   
     9    6    5 ar   
    10   15    5 1    
    11   21    7 1    
    12   22    7 1    
    13    9    8 ar   
    14   23    8 1    
    15   10    9 ar   
    16   24    9 1    
    17   11   10 ar   
    18   14   10 1    
    19   12   11 1    
    20   13   12 2    
    21   25   12 1    
    22   14   13 1    
    23   26   13 1    
    24   16   14 1    
    25   27   15 1    
    26   28   15 1    
    27   17   16 1    
    28   19   16 1    
    29   29   16 1    
    30   18   17 1    
    31   30   17 1    
    32   31   17 1    
    33   34   18 1    
    34   35   18 1    
    35   36   18 1    
    36   20   19 1    
    37   32   19 1    
    38   33   19 1    
    39   37   20 1    
    40   38   20 1    
    41   39   20 1    
@<TRIPOS>SUBSTRUCTURE
     1 GW3194      1 GROUP   
@<TRIPOS>SET

