#    Name: 1l5l_7RP_1_INTS_M
#    Modification time : Mon Apr  7 13:57:16 2014

@<TRIPOS>MOLECULE
1l5l_7RP_1_INTS_M
   52     0     9     0     0
SMALL
NO_CHARGES


@<TRIPOS>ATOM
      1 N          55.8350   41.7320   15.1655 N.am      2 SEC2        0.0000 
      2 N          56.5850   41.5450   14.1670 N.am      8 SEL2        0.0000 
      3 N          55.0850   41.9190   16.1640 N.am      5 SEP2        0.0000 
      4 CA         58.9470   41.9295   15.5470 C.3       3 GLC5        0.0000 
      5 CA         57.7210   42.0890   13.6830 C.3       9 GLL5        0.0000 
      6 CA         60.1730   41.7700   17.4110 C.3       6 GLP5        0.0000 
      7 CA         57.6265   40.2520   14.7050 C.3       3 GLC5        0.0000 
      8 CA         57.5320   38.4150   15.7270 C.3       6 GLP5        0.0000 
      9 CA         55.7850   43.0865   13.5540 C.3       3 GLC5        0.0000 
     10 CA         53.8490   44.0840   13.4250 C.3       6 GLP5        0.0000 
     11 N          58.5135   43.1495   15.8650 N.am      2 SEC2        0.0000 
     12 N          58.6030   42.8500   14.3790 N.am      8 SEL2        0.0000 
     13 N          58.4240   43.4490   17.3510 N.am      5 SEP2        0.0000 
     14 CA         61.3010   42.6600   14.0940 C.3       3 GLC5        0.0000 
     15 CA         59.6470   43.2440   13.5900 C.3       9 GLL5        0.0000 
     16 CA         62.9550   42.0760   14.5980 C.3       6 GLP5        0.0000 
     17 CA         59.9100   42.5070   15.5005 C.3       3 GLC5        0.0000 
     18 CA         60.3610   41.2405   13.2255 C.3       3 GLC5        0.0000 
     19 CA         61.0750   39.2370   12.8610 C.3       6 GLP5        0.0000 
     20 CA         58.7565   42.6710    9.5915 C.3       3 GLC5        0.0000 
     21 CA         58.9460   42.1720   11.5840 C.3       9 GLL5        0.0000 
     22 CA         58.5670   43.1700    7.5990 C.3       6 GLP5        0.0000 
     23 N          58.3040   36.7935    5.2250 N.am      2 SEC2        0.0000 
     24 N          59.1450   38.1080    5.3160 N.am      8 SEL2        0.0000 
     25 N          57.4630   35.4790    5.1340 N.am      5 SEP2        0.0000 
     26 N          58.1910   38.0255    4.3355 N.am      2 SEC2        0.0000 
     27 N          57.2370   37.9430    3.3550 N.am      5 SEP2        0.0000 
     28 N          58.5930   41.5525    5.3300 N.am      2 SEC2        0.0000 
     29 N          59.5560   40.5290    5.2590 N.am      8 SEL2        0.0000 
     30 N          57.6300   42.5760    5.4010 N.am      5 SEP2        0.0000 
     31 N          61.0830   38.0210    7.2535 N.am      2 SEC2        0.0000 
     32 N          60.5100   39.1840    7.0400 N.am      8 SEL2        0.0000 
     33 N          61.6560   36.8580    7.4670 N.am      5 SEP2        0.0000 
     34 N          57.8475   41.0875    6.2365 N.am      2 SEC2        0.0000 
     35 N          58.0650   39.5990    7.0720 N.am      8 SEL2        0.0000 
     36 CA         56.5820   38.2165    6.5425 C.3       3 GLC5        0.0000 
     37 CA         57.6000   38.6080    7.9690 C.3       9 GLL5        0.0000 
     38 CA         55.5640   37.8250    5.1160 C.3       6 GLP5        0.0000 
     39 CA         58.6735   36.5600   11.2535 C.3       3 GLC5        0.0000 
     40 CA         57.4170   38.2000   10.4780 C.3       9 GLL5        0.0000 
     41 CA         59.9300   34.9200   12.0290 C.3       6 GLP5        0.0000 
     42 CA         59.2460   38.7185   11.6695 C.3       3 GLC5        0.0000 
     43 N          58.5395   36.9035   12.1835 N.am      2 SEC2        0.0000 
     44 N          58.2700   38.2610   11.6560 N.am      8 SEL2        0.0000 
     45 N          58.8090   35.5460   12.7110 N.am      5 SEP2        0.0000 
     46 O          55.1510   37.0685   11.7245 O.2       1 ALC1        0.0000 
     47 O          55.6270   38.2200   11.9710 O.2       7 ALL1        0.0000 
     48 O          54.6750   35.9170   11.4780 O.2       4 ALP1        0.0000 
     49 O          54.1240   37.3490   11.9710 O.2       1 ALC1        0.0000 
     50 O          52.6210   36.4780   11.9710 O.2       4 ALP1        0.0000 
     51 CA         59.7133   40.6360   12.5787 C.3       3 GLC5        0.0000 
     52 CA         57.7930   41.7070   12.3350 C.3       9 GLL5        0.0000 
@<TRIPOS>BOND
@<TRIPOS>SUBSTRUCTURE
     1 ALC1       46 GROUP        1 X    ALC  0     ROOT ALC X 1
     2 SEC2        1 GROUP        1 X    SEC  0     **** SEC X 2
     3 GLC5        4 GROUP        1 X    GLC  0     **** GLC X 6
     4 ALP1       48 GROUP        1 Y    ALP  0     ROOT ALP Y 8
     5 SEP2        3 GROUP        1 Y    SEP  0     **** SEP Y 9
     6 GLP5        6 GROUP        1 Y    GLP  0     **** GLP Y 13
     7 ALL1       47 GROUP        1 Z    ALL  0     ROOT ALL Z 15
     8 SEL2        2 GROUP        1 Z    SEL  0     **** SEL Z 16
     9 GLL5        5 GROUP        1 Z    GLL  0     **** GLL Z 20
@<TRIPOS>SET

