#    Name: 1l5l_7RP_1_ligand
#    Modification time : Mon Apr  7 13:57:16 2014

@<TRIPOS>MOLECULE
1l5l_7RP_1_ligand
   33    35     1     0     0
SMALL
NO_CHARGES


@<TRIPOS>ATOM
      1 C8         56.0250   40.8870   13.1500 C.2       1 7RP990      0.0000 
      2 N9         56.5850   41.5450   14.1670 N.2       1 7RP990      0.0000 
      3 C4         57.7210   42.0890   13.6830 C.ar      1 7RP990      0.0000 
      4 C5         57.7930   41.7070   12.3350 C.ar      1 7RP990      0.0000 
      5 N7         56.7000   40.9360   11.9980 N.pl3     1 7RP990      0.0000 
      6 N3         58.6030   42.8500   14.3790 N.ar      1 7RP990      0.0000 
      7 C2         59.6470   43.2440   13.5900 C.ar      1 7RP990      0.0000 
      8 N1         59.8430   42.9380   12.2590 N.ar      1 7RP990      0.0000 
      9 C6         58.9460   42.1720   11.5840 C.ar      1 7RP990      0.0000 
     10 P          59.3380   39.3390    6.1320 P.3       1 7RP990      0.0000 
     11 O1P        59.1450   38.1080    5.3160 O.co2     1 7RP990      0.0000 
     12 O2P        59.5560   40.5290    5.2590 O.co2     1 7RP990      0.0000 
     13 O3P        60.5100   39.1840    7.0400 O.co2     1 7RP990      0.0000 
     14 O5'        58.0650   39.5990    7.0720 O.3       1 7RP990      0.0000 
     15 C5'        57.6000   38.6080    7.9690 C.3       1 7RP990      0.0000 
     16 C4'        57.9090   39.0810    9.3700 C.3       1 7RP990      0.0000 
     17 O4'        57.2670   40.3710    9.6110 O.3       1 7RP990      0.0000 
     18 C3'        57.4170   38.2000   10.4780 C.3       1 7RP990      0.0000 
     19 O3'        58.2700   38.2610   11.6560 O.3       1 7RP990      0.0000 
     20 C2'        56.0480   38.7610   10.7200 C.3       1 7RP990      0.0000 
     21 O2'        55.6270   38.2200   11.9710 O.3       1 7RP990      0.0000 
     22 C1'        56.3040   40.2810   10.6880 C.3       1 7RP990      0.0000 
     23 H          55.1479   40.3843   13.2442 H         1 7RP990      0.0000 
     24 H          60.4045   43.8631   14.0549 H         1 7RP990      0.0000 
     25 H          59.0345   41.9170   10.6209 H         1 7RP990      0.0000 
     26 H          58.0984   37.6502    7.8156 H         1 7RP990      0.0000 
     27 H          56.5228   38.4575    7.8906 H         1 7RP990      0.0000 
     28 H          58.9818   39.2109    9.4822 H         1 7RP990      0.0000 
     29 H          57.3099   37.2091   10.0933 H         1 7RP990      0.0000 
     30 H          55.4393   38.4934    9.9031 H         1 7RP990      0.0000 
     31 H          55.3547   40.7228   10.3213 H         1 7RP990      0.0000 
     32 H          57.6626   38.5362   12.4012 H         1 7RP990      0.0000 
     33 H          54.8843   37.5902   11.7437 H         1 7RP990      0.0000 
@<TRIPOS>BOND
     1    2    1 2    
     2    5    1 1    
     3   23    1 1    
     4    3    2 1    
     5    4    3 ar   
     6    6    3 ar   
     7    5    4 1    
     8    9    4 ar   
     9   22    5 1    
    10    7    6 ar   
    11    8    7 ar   
    12   24    7 1    
    13    9    8 ar   
    14   25    9 1    
    15   11   10 ar   
    16   12   10 ar   
    17   13   10 ar   
    18   14   10 1    
    19   15   14 1    
    20   16   15 1    
    21   26   15 1    
    22   27   15 1    
    23   17   16 1    
    24   18   16 1    
    25   28   16 1    
    26   22   17 1    
    27   19   18 1    
    28   20   18 1    
    29   29   18 1    
    30   32   19 1    
    31   21   20 1    
    32   22   20 1    
    33   30   20 1    
    34   33   21 1    
    35   31   22 1    
@<TRIPOS>SUBSTRUCTURE
     1 7RP990      1 GROUP   
@<TRIPOS>SET

