#    Name: 2yki_YKI_1_INTS_M
#    Modification time : Mon Apr  7 18:23:34 2014

@<TRIPOS>MOLECULE
2yki_YKI_1_INTS_M
   85     0     9     0     0
SMALL
NO_CHARGES


@<TRIPOS>ATOM
      1 CA         11.1240   14.8435   30.3510 C.3       3 GLC5        0.0000 
      2 CA         11.7160   14.6960   28.2950 C.3       9 GLL5        0.0000 
      3 CA         10.5320   14.9910   32.4070 C.3       6 GLP5        0.0000 
      4 O           9.1530   14.8090   28.8030 O.2       1 ALC1        0.0000 
      5 O           9.2910   14.5930   27.4880 O.2       7 ALL1        0.0000 
      6 O           9.0150   15.0250   30.1180 O.2       4 ALP1        0.0000 
      7 N           9.8475   14.8480   24.1475 N.am      2 SEC2        0.0000 
      8 N           9.7400   14.2580   25.3430 N.am      8 SEL2        0.0000 
      9 N           9.9550   15.4380   22.9520 N.am      5 SEP2        0.0000 
     10 CA          9.4240   12.7705   27.6475 C.3       3 GLC5        0.0000 
     11 CA         10.6580   14.5590   27.3740 C.3       9 GLL5        0.0000 
     12 CA          8.1900   10.9820   27.9210 C.3       6 GLP5        0.0000 
     13 O          -3.6715   11.8480   24.3545 O.2       1 ALC1        0.0000 
     14 O          -2.3590   11.5620   24.3860 O.2       7 ALL1        0.0000 
     15 O          -4.9840   12.1340   24.3230 O.2       4 ALP1        0.0000 
     16 CA          7.7605   12.6935   26.9755 C.3       3 GLC5        0.0000 
     17 CA          7.3310   14.4050   26.0300 C.3       9 GLL5        0.0000 
     18 CA          5.0925   17.4570   27.4185 C.3       3 GLC5        0.0000 
     19 CA          5.1590   15.5770   26.3920 C.3       9 GLL5        0.0000 
     20 CA          5.0260   19.3370   28.4450 C.3       6 GLP5        0.0000 
     21 CA          6.1650   13.4685   27.4335 C.3       3 GLC5        0.0000 
     22 CA          6.5780   15.4750   26.5770 C.3       9 GLL5        0.0000 
     23 CA          5.7520   11.4620   28.2900 C.3       6 GLP5        0.0000 
     24 N           2.2935   10.6405   21.6990 N.am      2 SEC2        0.0000 
     25 N           2.4240   11.4800   22.8390 N.am      8 SEL2        0.0000 
     26 N           2.1630    9.8010   20.5590 N.am      5 SEP2        0.0000 
     27 CA          1.9275   11.4615   27.0965 C.3       3 GLC5        0.0000 
     28 CA          1.2920   10.1820   26.0380 C.3       9 GLL5        0.0000 
     29 CA          2.5630   12.7410   28.1550 C.3       6 GLP5        0.0000 
     30 CA         -1.6985    8.8445   26.4420 C.3       3 GLC5        0.0000 
     31 CA          0.0470    9.8260   26.6640 C.3       9 GLL5        0.0000 
     32 CA         -3.4440    7.8630   26.2200 C.3       6 GLP5        0.0000 
     33 CA          0.9565   10.7895   28.0965 C.3       3 GLC5        0.0000 
     34 CA          1.8660   11.7530   29.5290 C.3       6 GLP5        0.0000 
     35 CA          4.6450   13.1375   22.6385 C.3       3 GLC5        0.0000 
     36 CA          4.5710   12.3870   24.2720 C.3       9 GLL5        0.0000 
     37 CA          4.7190   13.8880   21.0050 C.3       6 GLP5        0.0000 
     38 CA          7.7225    9.2215   20.9360 C.3       3 GLC5        0.0000 
     39 CA          7.1600    9.6370   23.0090 C.3       9 GLL5        0.0000 
     40 CA          8.2850    8.8060   18.8630 C.3       6 GLP5        0.0000 
     41 CA         -2.3340    9.4680   25.6060 C.3       3 GLC5        0.0000 
     42 CA         -1.2240   11.0730   24.9920 C.3       9 GLL5        0.0000 
     43 CA         -2.1340   12.6095   25.9390 C.3       3 GLC5        0.0000 
     44 CA         -3.0440   14.1460   26.8860 C.3       6 GLP5        0.0000 
     45 CA         -3.2370   10.7920   22.7140 C.3       3 GLC5        0.0000 
     46 CA         -1.9350   12.2990   23.2940 C.3       9 GLL5        0.0000 
     47 CA         -4.5390    9.2850   22.1340 C.3       6 GLP5        0.0000 
     48 CA         12.0030   12.6537   24.7127 C.3       3 GLC5        0.0000 
     49 CA         10.9530   14.3440   25.9690 C.3       9 GLL5        0.0000 
     50 CA         12.3880   11.0050   23.6800 C.3       6 GLP5        0.0000 
     51 CA          3.6900   13.9087   27.0852 C.3       3 GLC5        0.0000 
     52 CA          3.6300   16.5628   25.3722 C.3       3 GLC5        0.0000 
     53 CA          4.4750   14.5760   25.6390 C.3       9 GLL5        0.0000 
     54 CA          2.4430   18.0490   24.7290 C.3       6 GLP5        0.0000 
     55 CA          5.0902   15.4564   28.0951 C.3       3 GLC5        0.0000 
     56 CA          4.4830   15.6370   29.8940 C.3       6 GLP5        0.0000 
     57 CA          3.7233   12.8335   26.4117 C.3       3 GLC5        0.0000 
     58 CA          5.6981   12.3657   26.6555 C.3       3 GLC5        0.0000 
     59 CA          6.5850   13.3350   25.2300 C.3       9 GLL5        0.0000 
     60 CA          6.1700   10.1262   25.3740 C.3       3 GLC5        0.0000 
     61 CA          5.8240   11.5170   23.9560 C.3       9 GLL5        0.0000 
     62 CA          6.4800    9.3500   27.1710 C.3       6 GLP5        0.0000 
     63 CA          5.3510   11.7123   21.9775 C.3       3 GLC5        0.0000 
     64 CA          4.8420   12.5220   20.3780 C.3       6 GLP5        0.0000 
     65 CA          7.9205   11.3755   26.1732 C.3       3 GLC5        0.0000 
     66 CA          7.0090   12.1050   24.5250 C.3       9 GLL5        0.0000 
     67 CA         10.3597   10.9143   23.8152 C.3       3 GLC5        0.0000 
     68 CA          8.2930   11.4330   24.3260 C.3       9 GLL5        0.0000 
     69 CA          7.1225    9.6378   25.2315 C.3       3 GLC5        0.0000 
     70 CA          8.3700   10.2140   23.5750 C.3       9 GLL5        0.0000 
     71 CA          8.5885    8.0578   23.7835 C.3       3 GLC5        0.0000 
     72 CA          9.4120    6.1900   24.2750 C.3       6 GLP5        0.0000 
     73 CA          0.3849   12.4261   26.2505 C.3       3 GLC5        0.0000 
     74 CA          1.0910   13.6990   27.7090 C.3       6 GLP5        0.0000 
     75 CA         -0.6556   10.6792   22.1917 C.3       3 GLC5        0.0000 
     76 CA         -0.0800   11.4560   24.3250 C.3       9 GLL5        0.0000 
     77 CA         -0.1920    9.2790   20.8500 C.3       6 GLP5        0.0000 
     78 CA         -1.5331   13.5177   24.8672 C.3       3 GLC5        0.0000 
     79 CA         -0.5270   12.2640   23.2210 C.3       9 GLL5        0.0000 
     80 CA         -1.9470   14.9560   26.2010 C.3       6 GLP5        0.0000 
     81 CA         -1.1995   14.1702   22.7993 C.3       3 GLC5        0.0000 
     82 CA         -1.1680   16.0590   22.3410 C.3       6 GLP5        0.0000 
     83 CA         12.1964   12.8860   27.4237 C.3       3 GLC5        0.0000 
     84 CA         12.2830   14.2610   25.5220 C.3       9 GLL5        0.0000 
     85 CA         12.8620   11.2890   27.9370 C.3       6 GLP5        0.0000 
@<TRIPOS>BOND
@<TRIPOS>SUBSTRUCTURE
     1 ALC1        4 GROUP        1 X    ALC  0     ROOT ALC X 1
     2 SEC2        7 GROUP        1 X    SEC  0     **** SEC X 2
     3 GLC5        1 GROUP        1 X    GLC  0     **** GLC X 6
     4 ALP1        6 GROUP        1 Y    ALP  0     ROOT ALP Y 8
     5 SEP2        9 GROUP        1 Y    SEP  0     **** SEP Y 9
     6 GLP5        3 GROUP        1 Y    GLP  0     **** GLP Y 13
     7 ALL1        5 GROUP        1 Z    ALL  0     ROOT ALL Z 15
     8 SEL2        8 GROUP        1 Z    SEL  0     **** SEL Z 16
     9 GLL5        2 GROUP        1 Z    GLL  0     **** GLL Z 20
@<TRIPOS>SET

