#    Name: 2yki_YKI_1_ligand
#    Modification time : Mon Apr  7 18:23:34 2014

@<TRIPOS>MOLECULE
2yki_YKI_1_ligand
   52    58     1     0     0
SMALL
NO_CHARGES


@<TRIPOS>ATOM
      1 C1         13.3100   14.4050   26.4850 C.ar      1 YKI1224     0.0000 
      2 N1         13.0260   14.6140   27.8340 N.ar      1 YKI1224     0.0000 
      3 C2         11.7160   14.6960   28.2950 C.ar      1 YKI1224     0.0000 
      4 N2          9.2910   14.5930   27.4880 N.pl3     1 YKI1224     0.0000 
      5 C3         12.2830   14.2610   25.5220 C.ar      1 YKI1224     0.0000 
      6 N3          9.7400   14.2580   25.3430 N.2       1 YKI1224     0.0000 
      7 C4          8.7580   14.4110   26.2680 C.2       1 YKI1224     0.0000 
      8 N4          3.5690   11.9560   24.6550 N.am      1 YKI1224     0.0000 
      9 C5         10.9530   14.3440   25.9690 C.ar      1 YKI1224     0.0000 
     10 N5         -1.1620   10.2670   26.1340 N.ar      1 YKI1224     0.0000 
     11 C6         10.6580   14.5590   27.3740 C.ar      1 YKI1224     0.0000 
     12 N6         -2.3590   11.5620   24.3860 N.pl3     1 YKI1224     0.0000 
     13 C7          7.3310   14.4050   26.0300 C.ar      1 YKI1224     0.0000 
     14 C8          4.4750   14.5760   25.6390 C.ar      1 YKI1224     0.0000 
     15 C9          5.1590   15.5770   26.3920 C.ar      1 YKI1224     0.0000 
     16 C10         6.5780   15.4750   26.5770 C.ar      1 YKI1224     0.0000 
     17 C11         2.4440   11.4850   24.0790 C.2       1 YKI1224     0.0000 
     18 C12         1.2430   11.0110   24.8590 C.ar      1 YKI1224     0.0000 
     19 O13         2.4240   11.4800   22.8390 O.2       1 YKI1224     0.0000 
     20 C14         1.2920   10.1820   26.0380 C.ar      1 YKI1224     0.0000 
     21 C15         0.0470    9.8260   26.6640 C.ar      1 YKI1224     0.0000 
     22 C16         4.5710   12.3870   24.2720 C.3       1 YKI1224     0.0000 
     23 C17         5.1960   13.4650   25.0650 C.ar      1 YKI1224     0.0000 
     24 C18         6.5850   13.3350   25.2300 C.ar      1 YKI1224     0.0000 
     25 C19         5.8240   11.5170   23.9560 C.ar      1 YKI1224     0.0000 
     26 C20         7.0090   12.1050   24.5250 C.ar      1 YKI1224     0.0000 
     27 C21         8.2930   11.4330   24.3260 C.ar      1 YKI1224     0.0000 
     28 C22         8.3700   10.2140   23.5750 C.ar      1 YKI1224     0.0000 
     29 C23         7.1600    9.6370   23.0090 C.ar      1 YKI1224     0.0000 
     30 C24         5.8960   10.2880   23.1980 C.ar      1 YKI1224     0.0000 
     31 C25        -0.0800   11.4560   24.3250 C.ar      1 YKI1224     0.0000 
     32 C26        -1.2240   11.0730   24.9920 C.ar      1 YKI1224     0.0000 
     33 C27        -1.9350   12.2990   23.2940 C.2       1 YKI1224     0.0000 
     34 C28        -0.5270   12.2640   23.2210 C.2       1 YKI1224     0.0000 
     35 H          14.2955   14.3524   26.1705 H         1 YKI1224     0.0000 
     36 H          11.5160   14.8524   29.2808 H         1 YKI1224     0.0000 
     37 H           8.8103   14.7259   28.3113 H         1 YKI1224     0.0000 
     38 H          12.5017   14.1050   24.5534 H         1 YKI1224     0.0000 
     39 H           3.4425   11.8872   25.8237 H         1 YKI1224     0.0000 
     40 H          -3.2498   11.4248   24.6572 H         1 YKI1224     0.0000 
     41 H           3.4681   14.6398   25.5012 H         1 YKI1224     0.0000 
     42 H           4.6505   16.3533   26.7933 H         1 YKI1224     0.0000 
     43 H           7.0577   16.2042   27.1246 H         1 YKI1224     0.0000 
     44 H           2.1629    9.8663   26.4064 H         1 YKI1224     0.0000 
     45 H           0.0720    9.2428   27.5053 H         1 YKI1224     0.0000 
     46 H           4.4829   12.9539   23.2181 H         1 YKI1224     0.0000 
     47 H           9.1284   11.8427   24.7276 H         1 YKI1224     0.0000 
     48 H           9.2549    9.7511   23.4343 H         1 YKI1224     0.0000 
     49 H           7.2199    8.7756   22.4831 H         1 YKI1224     0.0000 
     50 H           5.0533    9.8919   22.8036 H         1 YKI1224     0.0000 
     51 H          -2.4960   12.7638   22.6778 H         1 YKI1224     0.0000 
     52 H           0.0162   12.6727   22.5956 H         1 YKI1224     0.0000 
@<TRIPOS>BOND
     1    2    1 ar   
     2    5    1 ar   
     3   35    1 1    
     4    3    2 ar   
     5   11    3 ar   
     6   36    3 1    
     7    7    4 1    
     8   11    4 1    
     9   37    4 1    
    10    9    5 ar   
    11   38    5 1    
    12    7    6 2    
    13    9    6 1    
    14   13    7 1    
    15   17    8 am   
    16   22    8 1    
    17   39    8 1    
    18   11    9 ar   
    19   21   10 ar   
    20   32   10 ar   
    21   32   12 1    
    22   33   12 1    
    23   40   12 1    
    24   16   13 ar   
    25   24   13 ar   
    26   15   14 ar   
    27   23   14 ar   
    28   41   14 1    
    29   16   15 ar   
    30   42   15 1    
    31   43   16 1    
    32   18   17 1    
    33   19   17 2    
    34   20   18 ar   
    35   31   18 ar   
    36   21   20 ar   
    37   44   20 1    
    38   45   21 1    
    39   23   22 1    
    40   25   22 1    
    41   46   22 1    
    42   24   23 ar   
    43   26   24 1    
    44   26   25 ar   
    45   30   25 ar   
    46   27   26 ar   
    47   28   27 ar   
    48   47   27 1    
    49   29   28 ar   
    50   48   28 1    
    51   30   29 ar   
    52   49   29 1    
    53   50   30 1    
    54   32   31 ar   
    55   34   31 1    
    56   34   33 2    
    57   51   33 1    
    58   52   34 1    
@<TRIPOS>SUBSTRUCTURE
     1 YKI1224     1 GROUP   
@<TRIPOS>SET

