#    Name: 3en4_KS1_1_INTS_M
#    Modification time : Tue Mar 25 02:10:41 2014

@<TRIPOS>MOLECULE
3en4_KS1_1_INTS_M
   65     0     9     0     0
SMALL
NO_CHARGES


@<TRIPOS>ATOM
      1 CA          5.0100  -12.2670   -5.0665 C.3       3 GLC5        0.0000 
      2 CA          5.1830  -10.0920   -4.5360 C.3       9 GLL5        0.0000 
      3 CA          4.8370  -14.4420   -5.5970 C.3       6 GLP5        0.0000 
      4 CA          4.9560  -10.3865   -6.5445 C.3       3 GLC5        0.0000 
      5 CA          4.7290  -10.6810   -8.5530 C.3       6 GLP5        0.0000 
      6 CA          7.6610   -7.6790   -2.0750 C.3       3 GLC5        0.0000 
      7 CA          6.0860   -8.4890   -2.9040 C.3       9 GLL5        0.0000 
      8 CA          9.2360   -6.8690   -1.2460 C.3       6 GLP5        0.0000 
      9 CA          5.9580   -6.5365   -2.9525 C.3       3 GLC5        0.0000 
     10 CA          5.8300   -4.5840   -3.0010 C.3       6 GLP5        0.0000 
     11 CA          6.0250   -9.2895   -6.4910 C.3       3 GLC5        0.0000 
     12 CA          6.2640   -9.0050   -4.3560 C.3       9 GLL5        0.0000 
     13 CA          5.7860   -9.5740   -8.6260 C.3       6 GLP5        0.0000 
     14 CA          8.3605   -8.4530   -6.4510 C.3       3 GLC5        0.0000 
     15 CA          7.0470   -7.0380   -5.6280 C.3       9 GLL5        0.0000 
     16 CA          9.6740   -9.8680   -7.2740 C.3       6 GLP5        0.0000 
     17 CA          9.4080   -7.9585   -6.5950 C.3       3 GLC5        0.0000 
     18 CA          9.1420   -6.0490   -5.9160 C.3       9 GLL5        0.0000 
     19 CA          8.6075   -5.9565   -8.0100 C.3       3 GLC5        0.0000 
     20 CA          8.0730   -5.8640  -10.1040 C.3       6 GLP5        0.0000 
     21 CA         10.1460   -4.4745   -5.4415 C.3       3 GLC5        0.0000 
     22 CA         11.1500   -2.9000   -4.9670 C.3       6 GLP5        0.0000 
     23 N           9.7580   -4.1770   -6.5275 N.am      2 SEC2        0.0000 
     24 N           8.6200   -5.1050   -6.6930 N.am      8 SEL2        0.0000 
     25 N          10.8960   -3.2490   -6.3620 N.am      5 SEP2        0.0000 
     26 CA          8.1375   -3.3130   -5.9655 C.3       3 GLC5        0.0000 
     27 CA          7.2980   -5.0780   -6.9740 C.3       9 GLL5        0.0000 
     28 CA          8.9770   -1.5480   -4.9570 C.3       6 GLP5        0.0000 
     29 CA          6.4255   -3.9455   -5.8160 C.3       3 GLC5        0.0000 
     30 CA          5.5530   -2.8130   -4.6580 C.3       6 GLP5        0.0000 
     31 O           7.7985   -3.1425   -8.4850 O.2       1 ALC1        0.0000 
     32 O           6.8340   -4.1040   -7.7520 O.2       7 ALL1        0.0000 
     33 O           8.7630   -2.1810   -9.2180 O.2       4 ALP1        0.0000 
     34 CA          6.0375   -5.8880   -9.3080 C.3       3 GLC5        0.0000 
     35 CA          4.0020   -5.9120   -8.5120 C.3       9 GLL5        0.0000 
     36 CA          2.2520   -6.7250  -11.3325 C.3       3 GLC5        0.0000 
     37 CA          2.6200   -5.1890  -10.4680 C.3       9 GLL5        0.0000 
     38 CA          1.8840   -8.2610  -12.1970 C.3       6 GLP5        0.0000 
     39 CA          0.2765   -5.9895  -10.5695 C.3       3 GLC5        0.0000 
     40 CA          1.5190   -4.4380  -10.5630 C.3       9 GLL5        0.0000 
     41 CA         -0.9660   -7.5410  -10.5760 C.3       6 GLP5        0.0000 
     42 O          -0.1125   -3.5570   -9.1690 O.2       1 ALC1        0.0000 
     43 O           1.1570   -4.0390   -9.3440 O.2       7 ALL1        0.0000 
     44 O          -1.3820   -3.0750   -8.9940 O.2       4 ALP1        0.0000 
     45 CA          2.6340   -3.3360   -5.2605 C.3       3 GLC5        0.0000 
     46 CA          3.1110   -5.0410   -6.4670 C.3       9 GLL5        0.0000 
     47 CA          2.1570   -1.6310   -4.0540 C.3       6 GLP5        0.0000 
     48 CA          7.1637  -10.7513   -5.4175 C.3       3 GLC5        0.0000 
     49 CA          8.6040  -11.9540   -6.3890 C.3       6 GLP5        0.0000 
     50 CA          5.2867   -8.1195   -0.6962 C.3       3 GLC5        0.0000 
     51 CA          5.0790   -7.3510    1.2130 C.3       6 GLP5        0.0000 
     52 CA          6.2702   -8.0645   -7.3285 C.3       3 GLC5        0.0000 
     53 CA          6.2922   -5.5695   -4.5160 C.3       3 GLC5        0.0000 
     54 CA          7.4765   -5.7195   -8.4040 C.3       3 GLC5        0.0000 
     55 CA          6.4620   -6.0720   -6.4340 C.3       9 GLL5        0.0000 
     56 CA          4.9143   -7.7118   -8.2237 C.3       3 GLC5        0.0000 
     57 CA          4.5750   -4.1135   -5.7285 C.3       3 GLC5        0.0000 
     58 CA          4.0830   -5.7870   -7.1310 C.3       9 GLL5        0.0000 
     59 CA          1.4112   -6.5760   -9.5345 C.3       3 GLC5        0.0000 
     60 CA          2.0320   -4.5340   -8.4630 C.3       9 GLL5        0.0000 
     61 CA          0.3260   -8.2490  -10.2470 C.3       6 GLP5        0.0000 
     62 CA          1.6367   -4.3027  -12.4267 C.3       3 GLC5        0.0000 
     63 CA          1.2040   -3.7920  -14.3380 C.3       6 GLP5        0.0000 
     64 CA          3.0978   -3.2847  -11.1857 C.3       3 GLC5        0.0000 
     65 CA          4.1260   -1.7560  -11.8560 C.3       6 GLP5        0.0000 
@<TRIPOS>BOND
@<TRIPOS>SUBSTRUCTURE
     1 ALC1       31 GROUP        1 X    ALC  0     ROOT ALC X 1
     2 SEC2       23 GROUP        1 X    SEC  0     **** SEC X 2
     3 GLC5        1 GROUP        1 X    GLC  0     **** GLC X 6
     4 ALP1       33 GROUP        1 Y    ALP  0     ROOT ALP Y 8
     5 SEP2       25 GROUP        1 Y    SEP  0     **** SEP Y 9
     6 GLP5        3 GROUP        1 Y    GLP  0     **** GLP Y 13
     7 ALL1       32 GROUP        1 Z    ALL  0     ROOT ALL Z 15
     8 SEL2       24 GROUP        1 Z    SEL  0     **** SEL Z 16
     9 GLL5        2 GROUP        1 Z    GLL  0     **** GLL Z 20
@<TRIPOS>SET

