#    Name: 3en4_KS1_1_ligand
#    Modification time : Tue Mar 25 02:10:41 2014

@<TRIPOS>MOLECULE
3en4_KS1_1_ligand
   41    45     1     0     0
SMALL
NO_CHARGES


@<TRIPOS>ATOM
      1 CAI         5.1830  -10.0920   -4.5360 C.3       1 KS11        0.0000 
      2 CAG         4.9460  -10.5980   -3.0980 C.3       1 KS11        0.0000 
      3 CAH         4.9030   -9.2870   -2.3070 C.3       1 KS11        0.0000 
      4 CAJ         6.0860   -8.4890   -2.9040 C.3       1 KS11        0.0000 
      5 CAW         6.2640   -9.0050   -4.3560 C.3       1 KS11        0.0000 
      6 NAX         6.0590   -7.8570   -5.2510 N.pl3     1 KS11        0.0000 
      7 NAN         4.9610   -7.5130   -5.7050 N.2       1 KS11        0.0000 
      8 C4          7.0470   -7.0380   -5.6280 C.ar      1 KS11        0.0000 
      9 N3          8.3760   -7.0090   -5.3880 N.ar      1 KS11        0.0000 
     10 C2          9.1420   -6.0490   -5.9160 C.ar      1 KS11        0.0000 
     11 N1          8.6200   -5.1050   -6.6930 N.ar      1 KS11        0.0000 
     12 C6          7.2980   -5.0780   -6.9740 C.ar      1 KS11        0.0000 
     13 NAA         6.8340   -4.1040   -7.7520 N.pl3     1 KS11        0.0000 
     14 C5          6.4620   -6.0720   -6.4340 C.ar      1 KS11        0.0000 
     15 CAR         5.1050   -6.4240   -6.4470 C.2       1 KS11        0.0000 
     16 CAP         4.0830   -5.7870   -7.1310 C.ar      1 KS11        0.0000 
     17 CAF         4.0020   -5.9120   -8.5120 C.ar      1 KS11        0.0000 
     18 CAS         2.9610   -5.2720   -9.1810 C.ar      1 KS11        0.0000 
     19 CAD         2.6200   -5.1890  -10.4680 C.2       1 KS11        0.0000 
     20 CAB         1.5190   -4.4380  -10.5630 C.2       1 KS11        0.0000 
     21 NAO         1.1570   -4.0390   -9.3440 N.pl3     1 KS11        0.0000 
     22 CAT         2.0320   -4.5340   -8.4630 C.ar      1 KS11        0.0000 
     23 NAM         2.1300   -4.4370   -7.1290 N.ar      1 KS11        0.0000 
     24 CAE         3.1110   -5.0410   -6.4670 C.ar      1 KS11        0.0000 
     25 H           4.2986   -9.6547   -4.9094 H         1 KS11        0.0000 
     26 H           5.5634  -10.8759   -5.1306 H         1 KS11        0.0000 
     27 H           5.7658  -11.1780   -2.7891 H         1 KS11        0.0000 
     28 H           4.0149  -11.0818   -3.0438 H         1 KS11        0.0000 
     29 H           5.0861   -9.4746   -1.2864 H         1 KS11        0.0000 
     30 H           4.0019   -8.7767   -2.5019 H         1 KS11        0.0000 
     31 H           6.9699   -8.6915   -2.3464 H         1 KS11        0.0000 
     32 H           5.8425   -7.4529   -2.9248 H         1 KS11        0.0000 
     33 H           7.2162   -9.4287   -4.4403 H         1 KS11        0.0000 
     34 H          10.1764   -6.0433   -5.7110 H         1 KS11        0.0000 
     35 H           7.5032   -3.4243   -8.0526 H         1 KS11        0.0000 
     36 H           5.8578   -4.1392   -7.9661 H         1 KS11        0.0000 
     37 H           4.6891   -6.4602   -9.0271 H         1 KS11        0.0000 
     38 H           3.0903   -5.6028  -11.2094 H         1 KS11        0.0000 
     39 H           1.0556   -4.2180  -11.3930 H         1 KS11        0.0000 
     40 H           0.3898   -3.4840   -9.1301 H         1 KS11        0.0000 
     41 H           3.1800   -4.9720   -5.4235 H         1 KS11        0.0000 
@<TRIPOS>BOND
     1    2    1 1    
     2    5    1 1    
     3   25    1 1    
     4   26    1 1    
     5    3    2 1    
     6   27    2 1    
     7   28    2 1    
     8    4    3 1    
     9   29    3 1    
    10   30    3 1    
    11    5    4 1    
    12   31    4 1    
    13   32    4 1    
    14    6    5 1    
    15   33    5 1    
    16    7    6 1    
    17    8    6 1    
    18   15    7 2    
    19    9    8 ar   
    20   14    8 ar   
    21   10    9 ar   
    22   11   10 ar   
    23   34   10 1    
    24   12   11 ar   
    25   13   12 1    
    26   14   12 ar   
    27   35   13 1    
    28   36   13 1    
    29   15   14 1    
    30   16   15 1    
    31   17   16 ar   
    32   24   16 ar   
    33   18   17 ar   
    34   37   17 1    
    35   19   18 1    
    36   22   18 ar   
    37   20   19 2    
    38   38   19 1    
    39   21   20 1    
    40   39   20 1    
    41   22   21 1    
    42   40   21 1    
    43   23   22 ar   
    44   24   23 ar   
    45   41   24 1    
@<TRIPOS>SUBSTRUCTURE
     1 KS11        1 GROUP   
@<TRIPOS>SET

