#    Name: 3qrk_9DP_1_INTS_M
#    Modification time : Tue Mar 25 10:04:04 2014

@<TRIPOS>MOLECULE
3qrk_9DP_1_INTS_M
   93     0     9     0     0
SMALL
NO_CHARGES


@<TRIPOS>ATOM
      1 O          18.9760   21.0205   10.4550 O.2       1 ALC1        0.0000 
      2 O          17.7130   21.3490   10.7340 O.2       7 ALL1        0.0000 
      3 O          20.2390   20.6920   10.1760 O.2       4 ALP1        0.0000 
      4 N          17.2395   24.7285   11.1265 N.am      2 SEC2        0.0000 
      5 N          17.1350   23.2510   11.7860 N.am      8 SEL2        0.0000 
      6 N          17.3440   26.2060   10.4670 N.am      5 SEP2        0.0000 
      7 CA         13.7655   17.6190    8.1525 C.3       3 GLC5        0.0000 
      8 CA         14.6680   17.2210   10.1100 C.3       9 GLL5        0.0000 
      9 CA         12.8630   18.0170    6.1950 C.3       6 GLP5        0.0000 
     10 CA         12.5335   17.2760    9.9305 C.3       3 GLC5        0.0000 
     11 CA         10.3990   17.3310    9.7510 C.3       6 GLP5        0.0000 
     12 CA         13.9330   15.4240    9.5105 C.3       3 GLC5        0.0000 
     13 CA         13.1980   13.6270    8.9110 C.3       6 GLP5        0.0000 
     14 O          19.7640   21.6750   10.9715 O.2       1 ALC1        0.0000 
     15 O          19.2890   22.6580   11.7670 O.2       7 ALL1        0.0000 
     16 N          26.6570   22.6210    6.6785 N.am      2 SEC2        0.0000 
     17 N          25.4680   23.0550    5.9730 N.am      8 SEL2        0.0000 
     18 N          27.8460   22.1870    7.3840 N.am      5 SEP2        0.0000 
     19 CA         18.2015   18.1595    9.1230 C.3       3 GLC5        0.0000 
     20 CA         17.4920   18.5770   10.9160 C.3       9 GLL5        0.0000 
     21 CA         18.9110   17.7420    7.3300 C.3       6 GLP5        0.0000 
     22 CA         18.3415   19.1455   12.4270 C.3       3 GLC5        0.0000 
     23 CA         19.1910   19.7140   13.9380 C.3       6 GLP5        0.0000 
     24 CA         17.8290   17.3230   11.8350 C.3       3 GLC5        0.0000 
     25 CA         18.1660   16.0690   12.7540 C.3       6 GLP5        0.0000 
     26 CA         13.3990   18.9535    7.9305 C.3       3 GLC5        0.0000 
     27 CA         13.9350   19.8900    9.6660 C.3       9 GLL5        0.0000 
     28 CA         12.1670   18.6105    9.7085 C.3       3 GLC5        0.0000 
     29 CA         14.7760   21.8640   12.0960 C.3       3 GLC5        0.0000 
     30 CA         15.4290   21.8190    9.9590 C.3       9 GLL5        0.0000 
     31 CA         14.1230   21.9090   14.2330 C.3       6 GLP5        0.0000 
     32 CA         14.9985   23.7200   10.5800 C.3       3 GLC5        0.0000 
     33 CA         14.5680   25.6210   11.2010 C.3       6 GLP5        0.0000 
     34 CA         19.8560   22.1370   13.8915 C.3       3 GLC5        0.0000 
     35 CA         19.6480   23.7270   12.4920 C.3       9 GLL5        0.0000 
     36 CA         20.0640   20.5470   15.2910 C.3       6 GLP5        0.0000 
     37 CA         17.2730   24.2155   13.9655 C.3       3 GLC5        0.0000 
     38 CA         18.9570   24.5630   13.3760 C.3       9 GLL5        0.0000 
     39 CA         15.5890   23.8680   14.5550 C.3       6 GLP5        0.0000 
     40 CA         17.2165   25.5945   12.6775 C.3       3 GLC5        0.0000 
     41 CA         15.4760   26.6260   11.9790 C.3       6 GLP5        0.0000 
     42 CA         19.9095   25.4890   17.8840 C.3       3 GLC5        0.0000 
     43 CA         19.2420   25.9950   16.1710 C.3       9 GLL5        0.0000 
     44 CA         20.5770   24.9830   19.5970 C.3       6 GLP5        0.0000 
     45 CA         17.8010   27.3155   16.7985 C.3       3 GLC5        0.0000 
     46 CA         16.3600   28.6360   17.4260 C.3       6 GLP5        0.0000 
     47 CA         17.4355   28.0340   15.8360 C.3       3 GLC5        0.0000 
     48 CA         18.5110   27.4320   14.2460 C.3       9 GLL5        0.0000 
     49 CA         18.8395   29.1310   13.4340 C.3       3 GLC5        0.0000 
     50 CA         19.1680   30.8300   12.6220 C.3       6 GLP5        0.0000 
     51 CA         17.1560   29.0310   14.0410 C.3       3 GLC5        0.0000 
     52 CA         15.8010   30.6300   13.8360 C.3       6 GLP5        0.0000 
     53 CA         16.9935   27.0290   13.1125 C.3       3 GLC5        0.0000 
     54 CA         19.0975   27.0790   12.1370 C.3       3 GLC5        0.0000 
     55 CA         19.6840   26.7260   10.0280 C.3       6 GLP5        0.0000 
     56 CA         20.1900   29.3190   15.9765 C.3       3 GLC5        0.0000 
     57 CA         20.8250   27.4900   15.0040 C.3       9 GLL5        0.0000 
     58 CA         19.5550   31.1480   16.9490 C.3       6 GLP5        0.0000 
     59 CA         19.9965   29.1600   13.8130 C.3       3 GLC5        0.0000 
     60 CA         23.7930   22.8885   14.2810 C.3       3 GLC5        0.0000 
     61 CA         23.1560   23.3090   12.4830 C.3       9 GLL5        0.0000 
     62 CA         24.4300   22.4680   16.0790 C.3       6 GLP5        0.0000 
     63 CA         25.0535   22.7880   13.6615 C.3       3 GLC5        0.0000 
     64 CA         24.2650   22.8560   11.8090 C.3       9 GLL5        0.0000 
     65 CA         25.8420   22.7200   15.5140 C.3       6 GLP5        0.0000 
     66 CA         26.4080   21.0415    8.3190 C.3       3 GLC5        0.0000 
     67 CA         25.4720   22.1510    9.7820 C.3       9 GLL5        0.0000 
     68 CA         27.3440   19.9320    6.8560 C.3       6 GLP5        0.0000 
     69 CA         25.7355   21.0000    7.2305 C.3       3 GLC5        0.0000 
     70 CA         24.1270   22.0680    7.6050 C.3       9 GLL5        0.0000 
     71 CA         22.0555   23.9015    6.4870 C.3       3 GLC5        0.0000 
     72 CA         22.9550   22.8240    8.2280 C.3       9 GLL5        0.0000 
     73 CA         21.1560   24.9790    4.7460 C.3       6 GLP5        0.0000 
     74 CA         15.9888   17.0487    8.9688 C.3       3 GLC5        0.0000 
     75 CA         14.9470   19.0200   10.0590 C.3       9 GLL5        0.0000 
     76 CA         17.1700   15.9770    7.8530 C.3       6 GLP5        0.0000 
     77 CA         14.6058   18.1613   12.1008 C.3       3 GLC5        0.0000 
     78 CA         14.4040   18.2020   14.1170 C.3       6 GLP5        0.0000 
     79 CA         16.8990   20.1613   12.3945 C.3       3 GLC5        0.0000 
     80 CA         16.1680   19.5970   10.3900 C.3       9 GLL5        0.0000 
     81 CA         17.4870   20.0440   14.4170 C.3       6 GLP5        0.0000 
     82 CA         15.6170   18.6445   12.3850 C.3       3 GLC5        0.0000 
     83 CA         19.4933   25.4355   11.4810 C.3       3 GLC5        0.0000 
     84 CA         23.9498   21.3453   12.3365 C.3       3 GLC5        0.0000 
     85 CA         24.1890   19.6080   12.5270 C.3       6 GLP5        0.0000 
     86 CA         20.8293   25.1290   10.5785 C.3       3 GLC5        0.0000 
     87 CA         21.9810   23.4440   10.4340 C.3       9 GLL5        0.0000 
     88 CA         24.1163   20.8870   10.6887 C.3       3 GLC5        0.0000 
     89 CA         24.2290   22.6790   10.4430 C.3       9 GLL5        0.0000 
     90 CA         23.3820   19.3590   11.2650 C.3       6 GLP5        0.0000 
     91 CA         22.2261   21.4533   10.9340 C.3       3 GLC5        0.0000 
     92 CA         23.0840   22.9830    9.7330 C.3       9 GLL5        0.0000 
     93 CA         21.9230   19.6490   11.4370 C.3       6 GLP5        0.0000 
@<TRIPOS>BOND
@<TRIPOS>SUBSTRUCTURE
     1 ALC1        1 GROUP        1 X    ALC  0     ROOT ALC X 1
     2 SEC2        4 GROUP        1 X    SEC  0     **** SEC X 2
     3 GLC5        7 GROUP        1 X    GLC  0     **** GLC X 6
     4 ALP1        3 GROUP        1 Y    ALP  0     ROOT ALP Y 8
     5 SEP2        6 GROUP        1 Y    SEP  0     **** SEP Y 9
     6 GLP5        9 GROUP        1 Y    GLP  0     **** GLP Y 13
     7 ALL1        2 GROUP        1 Z    ALL  0     ROOT ALL Z 15
     8 SEL2        5 GROUP        1 Z    SEL  0     **** SEL Z 16
     9 GLL5        8 GROUP        1 Z    GLL  0     **** GLL Z 20
@<TRIPOS>SET

