#    Name: 3qrk_9DP_1_ligand
#    Modification time : Tue Mar 25 10:04:04 2014

@<TRIPOS>MOLECULE
3qrk_9DP_1_ligand
   57    60     1     0     0
SMALL
NO_CHARGES


@<TRIPOS>ATOM
      1 C1         14.9470   19.0200   10.0590 C.ar      1 9DP1        0.0000 
      2 N1         17.7130   21.3490   10.7340 N.am      1 9DP1        0.0000 
      3 O1         17.1350   23.2510   11.7860 O.2       1 9DP1        0.0000 
      4 CL1        14.6680   17.2210   10.1100 Cl        1 9DP1        0.0000 
      5 C2         16.1680   19.5970   10.3900 C.ar      1 9DP1        0.0000 
      6 N2         19.2890   22.6580   11.7670 N.am      1 9DP1        0.0000 
      7 O2         25.4680   23.0550    5.9730 O.co2     1 9DP1        0.0000 
      8 CL2        17.4920   18.5770   10.9160 Cl        1 9DP1        0.0000 
      9 C3         13.9350   19.8900    9.6660 C.ar      1 9DP1        0.0000 
     10 N3         21.1730   25.2170   13.3410 N.2       1 9DP1        0.0000 
     11 O3         23.5810   22.2420    5.2240 O.co2     1 9DP1        0.0000 
     12 C4         14.1880   21.2720    9.6200 C.ar      1 9DP1        0.0000 
     13 N4         20.9340   24.1130   12.5100 N.pl3     1 9DP1        0.0000 
     14 C5         15.4290   21.8190    9.9590 C.ar      1 9DP1        0.0000 
     15 N5         25.3330   22.3630    8.3570 N.4       1 9DP1        0.0000 
     16 C6         16.4540   20.9600   10.3540 C.ar      1 9DP1        0.0000 
     17 C7         18.0070   22.4460   11.4540 C.2       1 9DP1        0.0000 
     18 C8         19.6480   23.7270   12.4920 C.2       1 9DP1        0.0000 
     19 C9         18.9570   24.5630   13.3760 C.2       1 9DP1        0.0000 
     20 C10        19.9350   25.4480   13.8450 C.2       1 9DP1        0.0000 
     21 C11        19.6340   26.5720   14.8150 C.3       1 9DP1        0.0000 
     22 C12        19.2420   25.9950   16.1710 C.3       1 9DP1        0.0000 
     23 C13        18.5110   27.4320   14.2460 C.3       1 9DP1        0.0000 
     24 C14        20.8250   27.4900   15.0040 C.3       1 9DP1        0.0000 
     25 C15        23.1560   23.3090   12.4830 C.ar      1 9DP1        0.0000 
     26 C16        21.9680   23.6200   11.8240 C.ar      1 9DP1        0.0000 
     27 C17        21.9810   23.4440   10.4340 C.ar      1 9DP1        0.0000 
     28 C18        24.2650   22.8560   11.8090 C.ar      1 9DP1        0.0000 
     29 C19        24.2290   22.6790   10.4430 C.ar      1 9DP1        0.0000 
     30 C20        23.0840   22.9830    9.7330 C.ar      1 9DP1        0.0000 
     31 C21        25.4720   22.1510    9.7820 C.3       1 9DP1        0.0000 
     32 C22        24.1270   22.0680    7.6050 C.3       1 9DP1        0.0000 
     33 C23        22.9550   22.8240    8.2280 C.3       1 9DP1        0.0000 
     34 C24        24.3850   22.4700    6.1670 C.2       1 9DP1        0.0000 
     35 H          18.5276   20.7157   10.4246 H         1 9DP1        0.0000 
     36 H          20.0237   21.9815   11.4426 H         1 9DP1        0.0000 
     37 H          13.0114   19.5331    9.4111 H         1 9DP1        0.0000 
     38 H          13.4199   21.9097    9.3217 H         1 9DP1        0.0000 
     39 H          15.5798   22.8242    9.9178 H         1 9DP1        0.0000 
     40 H          18.0663   24.5374   13.5979 H         1 9DP1        0.0000 
     41 H          23.1966   23.4264   13.5198 H         1 9DP1        0.0000 
     42 H          21.1049   23.6756    9.9005 H         1 9DP1        0.0000 
     43 H          25.1355   22.6456   12.3308 H         1 9DP1        0.0000 
     44 H          26.3335   22.6846   10.1760 H         1 9DP1        0.0000 
     45 H          25.5712   21.0933   10.0136 H         1 9DP1        0.0000 
     46 H          23.9219   21.0128    7.6407 H         1 9DP1        0.0000 
     47 H          22.8853   23.8177    7.7635 H         1 9DP1        0.0000 
     48 H          22.0234   22.2875    7.9991 H         1 9DP1        0.0000 
     49 H          19.9727   25.4351   16.5616 H         1 9DP1        0.0000 
     50 H          19.0366   26.7138   16.8352 H         1 9DP1        0.0000 
     51 H          18.4303   25.4145   16.1070 H         1 9DP1        0.0000 
     52 H          18.2751   28.1871   14.8577 H         1 9DP1        0.0000 
     53 H          18.7615   27.8351   13.3658 H         1 9DP1        0.0000 
     54 H          17.6757   26.9022   14.0987 H         1 9DP1        0.0000 
     55 H          21.6178   27.0000   15.3665 H         1 9DP1        0.0000 
     56 H          21.1095   27.9113   14.1429 H         1 9DP1        0.0000 
     57 H          20.6233   28.2336   15.6415 H         1 9DP1        0.0000 
@<TRIPOS>BOND
     1    4    1 1    
     2    5    1 ar   
     3    9    1 ar   
     4   16    2 1    
     5   17    2 am   
     6   35    2 1    
     7   17    3 2    
     8    8    5 1    
     9   16    5 ar   
    10   17    6 am   
    11   18    6 1    
    12   36    6 1    
    13   34    7 ar   
    14   12    9 ar   
    15   37    9 1    
    16   13   10 1    
    17   20   10 2    
    18   34   11 ar   
    19   14   12 ar   
    20   38   12 1    
    21   18   13 1    
    22   26   13 1    
    23   16   14 ar   
    24   39   14 1    
    25   31   15 1    
    26   32   15 1    
    27   19   18 2    
    28   20   19 1    
    29   40   19 1    
    30   21   20 1    
    31   22   21 1    
    32   23   21 1    
    33   24   21 1    
    34   49   22 1    
    35   50   22 1    
    36   51   22 1    
    37   52   23 1    
    38   53   23 1    
    39   54   23 1    
    40   55   24 1    
    41   56   24 1    
    42   57   24 1    
    43   26   25 ar   
    44   28   25 ar   
    45   41   25 1    
    46   27   26 ar   
    47   30   27 ar   
    48   42   27 1    
    49   29   28 ar   
    50   43   28 1    
    51   30   29 ar   
    52   31   29 1    
    53   33   30 1    
    54   44   31 1    
    55   45   31 1    
    56   33   32 1    
    57   34   32 1    
    58   46   32 1    
    59   47   33 1    
    60   48   33 1    
@<TRIPOS>SUBSTRUCTURE
     1 9DP1        1 GROUP   
@<TRIPOS>SET

