#    Name: 3in3_472_1_INTS_M
#    Modification time : Tue Mar 25 16:46:29 2014

@<TRIPOS>MOLECULE
3in3_472_1_INTS_M
   45     0    12     0     0
SMALL
NO_CHARGES


@<TRIPOS>ATOM
      1 O          15.2485   -7.4310   14.2340 O.2       1 ALC1        0.0000 
      2 O          14.9100   -6.9790   15.4300 O.2       9 ALL1        0.0000 
      3 O          15.5870   -7.8830   13.0380 O.2       5 ALP1        0.0000 
      4 O          16.2255   -5.5795   13.5595 O.2       1 ALC1        0.0000 
      5 O          16.3240   -5.2430   14.8800 O.2       9 ALL1        0.0000 
      6 O          16.1270   -5.9160   12.2390 O.2       5 ALP1        0.0000 
      7 O          15.9555   -6.5630   13.9590 O.2       1 ALC1        0.0000 
      8 O          16.9755   -3.9385   14.9460 O.2       1 ALC1        0.0000 
      9 O          17.6270   -2.6340   15.0120 O.2       5 ALP1        0.0000 
     10 OD1        16.2255   -5.5795   13.5595 O.co2     3 ASC3        0.0000 
     11 OD1        15.5100   -5.8790   15.7540 O.co2    11 ASL3        0.0000 
     12 OD1        16.1270   -5.9160   12.2390 O.co2     7 ASP3        0.0000 
     13 OD1        15.5485   -6.8810   14.3960 O.co2     3 ASC3        0.0000 
     14 OD1        15.5870   -7.8830   13.0380 O.co2     7 ASP3        0.0000 
     15 OD1        16.9755   -3.9385   14.9460 O.co2     3 ASC3        0.0000 
     16 OD1        17.6270   -2.6340   15.0120 O.co2     7 ASP3        0.0000 
     17 N          15.2445  -12.9815   17.6780 N.am      2 SEC2        0.0000 
     18 N          15.7070  -11.5170   17.4180 N.am     10 SEL2        0.0000 
     19 N          14.7820  -14.4460   17.9380 N.am      6 SEP2        0.0000 
     20 CA          8.5160   -2.5785   12.7430 C.3       4 GLC5        0.0000 
     21 CA          8.9860   -2.4860   14.6790 C.3      12 GLL5        0.0000 
     22 CA          8.0460   -2.6710   10.8070 C.3       8 GLP5        0.0000 
     23 CA         12.3080   -3.7880   13.5425 C.3       4 GLC5        0.0000 
     24 CA         10.4910   -4.2210   14.4100 C.3      12 GLL5        0.0000 
     25 CA         14.1250   -3.3550   12.6750 C.3       8 GLP5        0.0000 
     26 CA         16.8042  -10.0772   15.0075 C.3       4 GLC5        0.0000 
     27 CA         15.0120   -9.7760   15.9020 C.3      12 GLL5        0.0000 
     28 CA         18.3600   -9.7410   13.9790 C.3       8 GLP5        0.0000 
     29 CA         13.4831  -10.1861   15.0862 C.3       4 GLC5        0.0000 
     30 CA         15.4850  -11.0510   16.1700 C.3      12 GLL5        0.0000 
     31 CA         11.7850  -10.1780   13.8700 C.3       8 GLP5        0.0000 
     32 CA         12.0272   -9.0840   15.2965 C.3       4 GLC5        0.0000 
     33 CA         11.8600   -8.5390   16.8830 C.3      12 GLL5        0.0000 
     34 CA         10.9775   -9.0153   15.2115 C.3       4 GLC5        0.0000 
     35 CA         10.4710   -8.4450   16.7690 C.3      12 GLL5        0.0000 
     36 CA         11.3152   -6.6330   13.9795 C.3       4 GLC5        0.0000 
     37 CA         10.6530   -6.1450   16.0100 C.3      12 GLL5        0.0000 
     38 CA         11.2800   -7.0630   11.8880 C.3       8 GLP5        0.0000 
     39 CA         10.7780   -5.8057   13.4373 C.3       4 GLC5        0.0000 
     40 CA          7.1997   -4.4785   16.3382 C.3       4 GLC5        0.0000 
     41 CA          9.0300   -4.2530   16.2820 C.3      12 GLL5        0.0000 
     42 CA          5.6430   -5.3060   16.6150 C.3       8 GLP5        0.0000 
     43 CA          7.0222   -2.4123   14.3190 C.3       4 GLC5        0.0000 
     44 CA          8.4830   -3.0490   15.8410 C.3      12 GLL5        0.0000 
     45 CA          5.3100   -2.0570   13.3780 C.3       8 GLP5        0.0000 
@<TRIPOS>BOND
@<TRIPOS>SUBSTRUCTURE
     1 ALC1        1 GROUP        1 X    ALC  0     ROOT ALC X 1
     2 SEC2       17 GROUP        1 X    SEC  0     **** SEC X 2
     3 ASC3       10 GROUP        1 X    ASC  0     **** ASC X 3
     4 GLC5       20 GROUP        1 X    GLC  0     **** GLC X 6
     5 ALP1        3 GROUP        1 Y    ALP  0     ROOT ALP Y 8
     6 SEP2       19 GROUP        1 Y    SEP  0     **** SEP Y 9
     7 ASP3       12 GROUP        1 Y    ASP  0     **** ASP Y 10
     8 GLP5       22 GROUP        1 Y    GLP  0     **** GLP Y 13
     9 ALL1        2 GROUP        1 Z    ALL  0     ROOT ALL Z 15
    10 SEL2       18 GROUP        1 Z    SEL  0     **** SEL Z 16
    11 ASL3       11 GROUP        1 Z    ASL  0     **** ASL Z 17
    12 GLL5       21 GROUP        1 Z    GLL  0     **** GLL Z 20
@<TRIPOS>SET

