#    Name: 3in3_472_1_ligand
#    Modification time : Tue Mar 25 16:46:29 2014

@<TRIPOS>MOLECULE
3in3_472_1_ligand
   44    47     1     0     0
SMALL
NO_CHARGES


@<TRIPOS>ATOM
      1 C1         15.9720   -4.3250   17.6750 C.3       1 4721        0.0000 
      2 N1         15.4020   -5.4950   17.0420 N.am      1 4721        0.0000 
      3 O1         14.3440   -6.3440   18.8890 O.2       1 4721        0.0000 
      4 C2         14.6420   -6.4050   17.7050 C.2       1 4721        0.0000 
      5 N2         14.9100   -6.9790   15.4300 N.pl3     1 4721        0.0000 
      6 C3         14.2190   -7.4830   16.6710 C.3       1 4721        0.0000 
      7 N3         16.3240   -5.2430   14.8800 N.pl3     1 4721        0.0000 
      8 C4         15.5100   -5.8790   15.7540 C.cat     1 4721        0.0000 
      9 N4         15.7070  -11.5170   17.4180 N.ar      1 4721        0.0000 
     10 C5         14.7430   -8.8990   16.9680 C.ar      1 4721        0.0000 
     11 N5          9.9800   -3.0480   13.9520 N.ar      1 4721        0.0000 
     12 C6         15.0120   -9.7760   15.9020 C.ar      1 4721        0.0000 
     13 C7         15.4850  -11.0510   16.1700 C.ar      1 4721        0.0000 
     14 C8         15.4480  -10.6700   18.4340 C.ar      1 4721        0.0000 
     15 C9         14.9720   -9.3730   18.2660 C.ar      1 4721        0.0000 
     16 C10        12.6790   -7.4410   16.5630 C.ar      1 4721        0.0000 
     17 C11        11.8600   -8.5390   16.8830 C.ar      1 4721        0.0000 
     18 C12        10.4710   -8.4450   16.7690 C.ar      1 4721        0.0000 
     19 C13         9.8690   -7.2600   16.3370 C.ar      1 4721        0.0000 
     20 C14        10.6530   -6.1450   16.0100 C.ar      1 4721        0.0000 
     21 C15        12.0480   -6.2610   16.1320 C.ar      1 4721        0.0000 
     22 C16        10.0610   -4.8760   15.5630 C.ar      1 4721        0.0000 
     23 C17         9.0300   -4.2530   16.2820 C.ar      1 4721        0.0000 
     24 C18         8.4830   -3.0490   15.8410 C.ar      1 4721        0.0000 
     25 C19         8.9860   -2.4860   14.6790 C.ar      1 4721        0.0000 
     26 C20        10.4910   -4.2210   14.4100 C.ar      1 4721        0.0000 
     27 H          14.8420   -7.4657   14.6272 H         1 4721        0.0000 
     28 H          16.3371   -5.6046   13.9478 H         1 4721        0.0000 
     29 H          16.8403   -4.4677   15.2438 H         1 4721        0.0000 
     30 H          14.8568   -9.4667   14.9394 H         1 4721        0.0000 
     31 H          15.6784  -11.6831   15.3410 H         1 4721        0.0000 
     32 H          15.6118  -10.9963   19.4332 H         1 4721        0.0000 
     33 H          14.7919   -8.7753   19.0709 H         1 4721        0.0000 
     34 H          12.2914   -9.4158   17.2030 H         1 4721        0.0000 
     35 H           9.8833   -9.2583   17.0060 H         1 4721        0.0000 
     36 H           8.8457   -7.2039   16.2580 H         1 4721        0.0000 
     37 H          12.6408   -5.4367   15.8927 H         1 4721        0.0000 
     38 H           8.6763   -4.6927   17.1440 H         1 4721        0.0000 
     39 H           7.7346   -2.5987   16.3611 H         1 4721        0.0000 
     40 H           8.5635   -1.5718   14.3552 H         1 4721        0.0000 
     41 H          11.2765   -4.6841   13.8586 H         1 4721        0.0000 
     42 H          16.5860   -4.5706   18.4252 H         1 4721        0.0000 
     43 H          16.5026   -3.7751   17.0300 H         1 4721        0.0000 
     44 H          15.2662   -3.7285   18.0572 H         1 4721        0.0000 
@<TRIPOS>BOND
     1    2    1 1    
     2   42    1 1    
     3   43    1 1    
     4   44    1 1    
     5    4    2 am   
     6    8    2 ar   
     7    4    3 2    
     8    6    4 1    
     9    6    5 1    
    10    8    5 ar   
    11   27    5 1    
    12   10    6 1    
    13   16    6 1    
    14    8    7 ar   
    15   28    7 1    
    16   29    7 1    
    17   13    9 ar   
    18   14    9 ar   
    19   12   10 ar   
    20   15   10 ar   
    21   25   11 ar   
    22   26   11 ar   
    23   13   12 ar   
    24   30   12 1    
    25   31   13 1    
    26   15   14 ar   
    27   32   14 1    
    28   33   15 1    
    29   17   16 ar   
    30   21   16 ar   
    31   18   17 ar   
    32   34   17 1    
    33   19   18 ar   
    34   35   18 1    
    35   20   19 ar   
    36   36   19 1    
    37   21   20 ar   
    38   22   20 1    
    39   37   21 1    
    40   23   22 ar   
    41   26   22 ar   
    42   24   23 ar   
    43   38   23 1    
    44   25   24 ar   
    45   39   24 1    
    46   40   25 1    
    47   41   26 1    
@<TRIPOS>SUBSTRUCTURE
     1 4721        1 GROUP   
@<TRIPOS>SET

