#    Name: 4l9k_EHF_2_INTS_M
#    Modification time : Tue Mar 25 09:55:26 2014

@<TRIPOS>MOLECULE
4l9k_EHF_2_INTS_M
   53     0     9     0     0
SMALL
NO_CHARGES


@<TRIPOS>ATOM
      1 CA        -11.2125   -3.3220   40.9055 C.3       3 GLC5        0.0000 
      2 CA         -9.8500   -2.1740   40.1030 C.3       9 GLL5        0.0000 
      3 CA        -12.5750   -4.4700   41.7080 C.3       6 GLP5        0.0000 
      4 CA         -8.2020   -2.6615   43.2630 C.3       3 GLC5        0.0000 
      5 CA         -8.0490   -1.5280   41.5700 C.3       9 GLL5        0.0000 
      6 CA         -8.3550   -3.7950   44.9560 C.3       6 GLP5        0.0000 
      7 CA         -6.1360   -0.9340   41.0085 C.3       3 GLC5        0.0000 
      8 CA         -4.2230   -0.3400   40.4470 C.3       6 GLP5        0.0000 
      9 CA        -11.1790   -4.3215   40.2810 C.3       3 GLC5        0.0000 
     10 CA         -9.7830   -4.1730   38.8540 C.3       9 GLL5        0.0000 
     11 CA         -5.9980   -3.1735   39.7980 C.3       3 GLC5        0.0000 
     12 CA         -7.8920   -3.6610   40.2660 C.3       9 GLL5        0.0000 
     13 CA         -4.1040   -2.6860   39.3300 C.3       6 GLP5        0.0000 
     14 CA        -10.7115   -6.6850   39.3400 C.3       3 GLC5        0.0000 
     15 CA        -10.1860   -5.2230   37.9470 C.3       9 GLL5        0.0000 
     16 CA        -11.2370   -8.1470   40.7330 C.3       6 GLP5        0.0000 
     17 CA         -9.7235   -6.9655   39.7190 C.3       3 GLC5        0.0000 
     18 CA         -8.2100   -5.7840   38.7050 C.3       9 GLL5        0.0000 
     19 CA        -11.5855   -9.4725   33.7890 C.3       3 GLC5        0.0000 
     20 CA        -10.6210   -8.6450   35.4690 C.3       9 GLL5        0.0000 
     21 CA        -12.5500  -10.3000   32.1090 C.3       6 GLP5        0.0000 
     22 CA         -9.2635   -6.9935   35.0450 C.3       3 GLC5        0.0000 
     23 CA         -7.9060   -5.3420   34.6210 C.3       6 GLP5        0.0000 
     24 NZ        -11.5840   -6.2275   31.9005 N.4       2 LYC4        0.0000 
     25 NZ        -12.5500   -6.7430   33.1990 N.4       8 LYL4        0.0000 
     26 NZ        -11.0210   -6.8370   30.0260 N.4       5 LYP4        0.0000 
     27 N         -12.2235   -7.1865   31.9150 N.am      1 SEC2        0.0000 
     28 N         -12.5500   -6.7430   33.1990 N.am      7 SEL2        0.0000 
     29 N         -11.8970   -7.6300   30.6310 N.am      4 SEP2        0.0000 
     30 N         -11.5840   -6.2275   31.9005 N.am      1 SEC2        0.0000 
     31 N         -10.6180   -5.7120   30.6020 N.am      4 SEP2        0.0000 
     32 N          -8.6305   -7.8495   33.5480 N.am      1 SEC2        0.0000 
     33 N          -9.3720   -8.6990   34.7360 N.am      7 SEL2        0.0000 
     34 N          -7.8890   -7.0000   32.3600 N.am      4 SEP2        0.0000 
     35 CA         -8.4100    0.6202   40.6185 C.3       3 GLC5        0.0000 
     36 CA        -10.0160   -0.1040   41.3710 C.3       9 GLL5        0.0000 
     37 CA         -7.4310    1.4800   39.5890 C.3       6 GLP5        0.0000 
     38 CA        -10.8850   -1.3049   42.3833 C.3       3 GLC5        0.0000 
     39 CA        -11.7890   -1.9930   43.7110 C.3       6 GLP5        0.0000 
     40 CA         -8.8212   -0.0520   39.9360 C.3       3 GLC5        0.0000 
     41 CA        -10.5730   -0.9940   40.4630 C.3       9 GLL5        0.0000 
     42 CA        -10.0585   -1.9900   42.4095 C.3       3 GLC5        0.0000 
     43 CA         -7.8795   -0.2535   40.3485 C.3       3 GLC5        0.0000 
     44 CA         -9.2733   -4.7265   36.5665 C.3       3 GLC5        0.0000 
     45 CA         -7.7610   -4.1810   35.5580 C.3       6 GLP5        0.0000 
     46 CA         -8.2206   -4.6254   37.2289 C.3       3 GLC5        0.0000 
     47 CA         -9.4923   -6.1180   35.4913 C.3       3 GLC5        0.0000 
     48 CA        -10.5560   -7.3790   36.3390 C.3       9 GLL5        0.0000 
     49 CA        -10.6898   -9.0695   37.5830 C.3       3 GLC5        0.0000 
     50 CA        -10.7910  -10.1270   39.2620 C.3       6 GLP5        0.0000 
     51 CA        -15.7635   -4.6325   36.2815 C.3       3 GLC5        0.0000 
     52 CA        -14.7020   -6.5020   37.3080 C.3       9 GLL5        0.0000 
     53 CA        -17.1670   -3.1600   35.8080 C.3       6 GLP5        0.0000 
@<TRIPOS>BOND
@<TRIPOS>SUBSTRUCTURE
     1 SEC2       27 GROUP        1 X    SEC  0     ROOT SEC X 2
     2 LYC4       24 GROUP        1 X    LYC  0     **** LYC X 4
     3 GLC5        1 GROUP        1 X    GLC  0     **** GLC X 6
     4 SEP2       29 GROUP        1 Y    SEP  0     ROOT SEP Y 9
     5 LYP4       26 GROUP        1 Y    LYP  0     **** LYP Y 11
     6 GLP5        3 GROUP        1 Y    GLP  0     **** GLP Y 13
     7 SEL2       28 GROUP        1 Z    SEL  0     ROOT SEL Z 16
     8 LYL4       25 GROUP        1 Z    LYL  0     **** LYL Z 18
     9 GLL5        2 GROUP        1 Z    GLL  0     **** GLL Z 20
@<TRIPOS>SET

