#    Name: 4l9k_EHF_2_ligand
#    Modification time : Tue Mar 25 09:55:26 2014

@<TRIPOS>MOLECULE
4l9k_EHF_2_ligand
   44    47     1     0     0
SMALL
NO_CHARGES


@<TRIPOS>ATOM
      1 C1         -8.7620   -0.3750   41.9250 C.ar      1 EHF601      0.0000 
      2 C2        -10.0160   -0.1040   41.3710 C.ar      1 EHF601      0.0000 
      3 C3        -10.5730   -0.9940   40.4630 C.ar      1 EHF601      0.0000 
      4 C4         -9.8500   -2.1740   40.1030 C.ar      1 EHF601      0.0000 
      5 C5         -8.6070   -2.4460   40.6460 C.ar      1 EHF601      0.0000 
      6 C6         -8.0490   -1.5280   41.5700 C.ar      1 EHF601      0.0000 
      7 N7        -10.4010   -3.0360   39.2320 N.ar      1 EHF601      0.0000 
      8 C8         -9.7830   -4.1730   38.8540 C.ar      1 EHF601      0.0000 
      9 C9         -8.5180   -4.5380   39.3350 C.ar      1 EHF601      0.0000 
     10 C10        -7.8920   -3.6610   40.2660 C.ar      1 EHF601      0.0000 
     11 C11       -10.1860   -5.2230   37.9470 C.2       1 EHF601      0.0000 
     12 N12        -9.2530   -6.1250   37.8910 N.am      1 EHF601      0.0000 
     13 C13        -8.2100   -5.7840   38.7050 C.3       1 EHF601      0.0000 
     14 C14       -11.3850   -5.3210   37.2030 C.2       1 EHF601      0.0000 
     15 C15       -11.6010   -6.4090   36.3840 C.2       1 EHF601      0.0000 
     16 C16       -10.5560   -7.3790   36.3390 C.2       1 EHF601      0.0000 
     17 C17        -9.4110   -7.2060   37.1020 C.2       1 EHF601      0.0000 
     18 O18        -8.4220   -8.1760   37.0460 O.2       1 EHF601      0.0000 
     19 C19       -10.6210   -8.6450   35.4690 C.3       1 EHF601      0.0000 
     20 C20       -12.8930   -6.4880   35.5700 C.3       1 EHF601      0.0000 
     21 C21       -12.5080   -5.9400   34.2010 C.2       1 EHF601      0.0000 
     22 O22       -12.1240   -4.7380   34.0760 O.co2     1 EHF601      0.0000 
     23 O23       -12.5500   -6.7430   33.1990 O.co2     1 EHF601      0.0000 
     24 O24       -13.3590   -7.7940   35.5030 O.3       1 EHF601      0.0000 
     25 C25       -14.0180   -5.7080   36.2020 C.3       1 EHF601      0.0000 
     26 C26       -14.7020   -6.5020   37.3080 C.3       1 EHF601      0.0000 
     27 O27        -9.3720   -8.6990   34.7360 O.3       1 EHF601      0.0000 
     28 H          -8.3528    0.2838   42.6070 H         1 EHF601      0.0000 
     29 H         -10.5188    0.7491   41.6366 H         1 EHF601      0.0000 
     30 H         -11.4866   -0.8252   40.0467 H         1 EHF601      0.0000 
     31 H          -7.1289   -1.7125   41.9724 H         1 EHF601      0.0000 
     32 H          -6.9960   -3.8551   40.6548 H         1 EHF601      0.0000 
     33 H          -8.0254   -6.5517   39.4832 H         1 EHF601      0.0000 
     34 H          -7.2612   -5.6838   38.1404 H         1 EHF601      0.0000 
     35 H         -12.0842   -4.5741   37.2837 H         1 EHF601      0.0000 
     36 H         -11.4688   -8.5559   34.8084 H         1 EHF601      0.0000 
     37 H         -10.7389   -9.4957   36.1214 H         1 EHF601      0.0000 
     38 H         -14.7597   -5.4498   35.4388 H         1 EHF601      0.0000 
     39 H         -13.6270   -4.7758   36.6231 H         1 EHF601      0.0000 
     40 H         -14.0647   -6.7451   38.0393 H         1 EHF601      0.0000 
     41 H         -15.4479   -5.9858   37.7289 H         1 EHF601      0.0000 
     42 H         -15.0935   -7.3557   36.9646 H         1 EHF601      0.0000 
     43 H         -13.2182   -8.0704   34.5524 H         1 EHF601      0.0000 
     44 H          -8.6893   -8.9841   35.4088 H         1 EHF601      0.0000 
@<TRIPOS>BOND
     1    2    1 ar   
     2    6    1 ar   
     3   28    1 1    
     4    3    2 ar   
     5   29    2 1    
     6    4    3 ar   
     7   30    3 1    
     8    5    4 ar   
     9    7    4 ar   
    10    6    5 ar   
    11   10    5 ar   
    12   31    6 1    
    13    8    7 ar   
    14    9    8 ar   
    15   11    8 1    
    16   10    9 ar   
    17   13    9 1    
    18   32   10 1    
    19   12   11 1    
    20   14   11 2    
    21   13   12 1    
    22   17   12 am   
    23   33   13 1    
    24   34   13 1    
    25   15   14 1    
    26   35   14 1    
    27   16   15 2    
    28   20   15 1    
    29   17   16 1    
    30   19   16 1    
    31   18   17 2    
    32   27   19 1    
    33   36   19 1    
    34   37   19 1    
    35   21   20 1    
    36   24   20 1    
    37   25   20 1    
    38   22   21 ar   
    39   23   21 ar   
    40   43   24 1    
    41   26   25 1    
    42   38   25 1    
    43   39   25 1    
    44   40   26 1    
    45   41   26 1    
    46   42   26 1    
    47   44   27 1    
@<TRIPOS>SUBSTRUCTURE
     1 EHF601      1 GROUP   
@<TRIPOS>SET

