#    Name: 3hdh_NAD_2_INTS_M
#    Modification time : Tue Mar 25 13:58:05 2014

@<TRIPOS>MOLECULE
3hdh_NAD_2_INTS_M
   82     0     9     0     0
SMALL
NO_CHARGES


@<TRIPOS>ATOM
      1 N          21.5025  -29.9880   49.3620 N.am      2 SEC2        0.0000 
      2 N          20.9210  -31.2390   48.9960 N.am      8 SEL2        0.0000 
      3 N          22.0840  -28.7370   49.7280 N.am      5 SEP2        0.0000 
      4 CA         15.5525  -28.8145   50.1500 C.3       3 GLC5        0.0000 
      5 CA         16.4730  -30.5390   49.8800 C.3       9 GLL5        0.0000 
      6 CA         14.6320  -27.0900   50.4200 C.3       6 GLP5        0.0000 
      7 CA         18.3600  -30.2985   50.8865 C.3       3 GLC5        0.0000 
      8 CA         16.7700  -31.6620   50.9460 C.3       9 GLL5        0.0000 
      9 CA         19.9500  -28.9350   50.8270 C.3       6 GLP5        0.0000 
     10 O          16.2795  -30.2990   52.7975 O.2       1 ALC1        0.0000 
     11 O          17.2950  -30.9840   52.1950 O.2       7 ALL1        0.0000 
     12 O          15.2640  -29.6140   53.4000 O.2       4 ALP1        0.0000 
     13 N          13.9190  -33.6985   52.5505 N.am      2 SEC2        0.0000 
     14 N          15.2740  -32.8790   52.4810 N.am      8 SEL2        0.0000 
     15 N          12.5640  -34.5180   52.6200 N.am      5 SEP2        0.0000 
     16 O          14.6030  -32.0605   53.2555 O.2       1 ALC1        0.0000 
     17 O          15.2740  -32.8790   52.4810 O.2       7 ALL1        0.0000 
     18 O          13.9320  -31.2420   54.0300 O.2       4 ALP1        0.0000 
     19 O          15.2690  -31.2465   52.9405 O.2       1 ALC1        0.0000 
     20 CA         14.5395  -29.2390   50.5535 C.3       3 GLC5        0.0000 
     21 CA         14.4470  -31.3880   50.6870 C.3       9 GLL5        0.0000 
     22 CA          9.9575  -31.2210   47.7745 C.3       3 GLC5        0.0000 
     23 CA          9.5470  -31.9610   49.7230 C.3       9 GLL5        0.0000 
     24 CA         10.3680  -30.4810   45.8260 C.3       6 GLP5        0.0000 
     25 CA         10.2610  -28.1735   50.0575 C.3       3 GLC5        0.0000 
     26 CA         10.1970  -29.9210   50.9210 C.3       9 GLL5        0.0000 
     27 CA         10.3250  -26.4260   49.1940 C.3       6 GLP5        0.0000 
     28 CA         11.1665  -29.3100   52.6550 C.3       3 GLC5        0.0000 
     29 CA         12.1360  -28.6990   54.3890 C.3       6 GLP5        0.0000 
     30 CA         10.5500  -31.4435   52.1755 C.3       3 GLC5        0.0000 
     31 CA         10.9030  -32.9660   53.4300 C.3       6 GLP5        0.0000 
     32 CA         11.1725  -29.2525   49.1800 C.3       3 GLC5        0.0000 
     33 CA         12.1480  -28.5840   47.4390 C.3       6 GLP5        0.0000 
     34 N          21.2545  -27.7840   47.0840 N.am      2 SEC2        0.0000 
     35 N          20.3560  -28.8690   46.5690 N.am      8 SEL2        0.0000 
     36 N          22.1530  -26.6990   47.5990 N.am      5 SEP2        0.0000 
     37 CA         16.1425  -29.7645   45.5435 C.3       3 GLC5        0.0000 
     38 CA         18.1380  -29.8140   44.6740 C.3       9 GLL5        0.0000 
     39 CA         14.1470  -29.7150   46.4130 C.3       6 GLP5        0.0000 
     40 N          18.9945  -26.6330   42.7930 N.am      2 SEC2        0.0000 
     41 N          18.6570  -28.2050   42.8910 N.am      8 SEL2        0.0000 
     42 N          19.3320  -25.0610   42.6950 N.am      5 SEP2        0.0000 
     43 N          14.6515  -29.7265   41.7590 N.am      2 SEC2        0.0000 
     44 N          16.1400  -29.7180   41.5490 N.am      8 SEL2        0.0000 
     45 N          13.1630  -29.7350   41.9690 N.am      5 SEP2        0.0000 
     46 O          15.9220  -30.3630   40.5210 O.2       1 ALC1        0.0000 
     47 O          16.1400  -29.7180   41.5490 O.2       7 ALL1        0.0000 
     48 O          15.7040  -31.0080   39.4930 O.2       4 ALP1        0.0000 
     49 N          18.0715  -29.2400   38.5630 N.am      2 SEC2        0.0000 
     50 N          18.3380  -30.1990   39.8560 N.am      8 SEL2        0.0000 
     51 N          17.8050  -28.2810   37.2700 N.am      5 SEP2        0.0000 
     52 O          17.0210  -30.6035   39.6745 O.2       1 ALC1        0.0000 
     53 O          18.3380  -30.1990   39.8560 O.2       7 ALL1        0.0000 
     54 CA         17.4955  -27.9300   40.0215 C.3       3 GLC5        0.0000 
     55 CA         19.0280  -28.4710   41.4800 C.3       9 GLL5        0.0000 
     56 CA         15.9630  -27.3890   38.5630 C.3       6 GLP5        0.0000 
     57 CA         21.6680  -27.7015   43.2605 C.3       3 GLC5        0.0000 
     58 CA         21.5470  -28.8280   41.8780 C.3       9 GLL5        0.0000 
     59 CA         21.7890  -26.5750   44.6430 C.3       6 GLP5        0.0000 
     60 CA         21.2635  -26.7280   42.6085 C.3       3 GLC5        0.0000 
     61 CA         20.7380  -26.8810   40.5740 C.3       9 GLL5        0.0000 
     62 CA         20.4535  -27.8700   38.6840 C.3       3 GLC5        0.0000 
     63 CA         20.1690  -28.8590   36.7940 C.3       6 GLP5        0.0000 
     64 CA         18.3762  -29.7823   50.0147 C.3       3 GLC5        0.0000 
     65 CA         17.1320  -30.7200   48.5250 C.3       9 GLL5        0.0000 
     66 CA         15.4748  -30.1723   47.8077 C.3       3 GLC5        0.0000 
     67 CA         12.0593  -30.8828   48.4062 C.3       3 GLC5        0.0000 
     68 CA         11.0020  -32.3300   49.7210 C.3       9 GLL5        0.0000 
     69 CA         12.6500  -29.8790   46.7890 C.3       6 GLP5        0.0000 
     70 CA         11.0039  -32.3801   51.7270 C.3       3 GLC5        0.0000 
     71 CA         11.9350  -31.4430   50.3260 C.3       9 GLL5        0.0000 
     72 CA         16.6743  -27.9162   44.7200 C.3       3 GLC5        0.0000 
     73 CA         15.4610  -26.3400   45.3960 C.3       6 GLP5        0.0000 
     74 CA         17.2152  -31.7225   41.1380 C.3       3 GLC5        0.0000 
     75 CA         17.3850  -30.1030   42.1860 C.3       9 GLL5        0.0000 
     76 CA         16.4450  -33.4200   40.5730 C.3       6 GLP5        0.0000 
     77 CA         22.9699  -26.5557   42.5580 C.3       3 GLC5        0.0000 
     78 CA         22.8250  -28.3790   41.6780 C.3       9 GLL5        0.0000 
     79 CA         23.4400  -25.9820   44.2630 C.3       6 GLP5        0.0000 
     80 CA         20.7300  -25.6060   38.9607 C.3       3 GLC5        0.0000 
     81 CA         22.0120  -26.4910   40.4090 C.3       9 GLL5        0.0000 
     82 CA         20.0850  -24.5260   37.4300 C.3       6 GLP5        0.0000 
@<TRIPOS>BOND
@<TRIPOS>SUBSTRUCTURE
     1 ALC1       10 GROUP        1 X    ALC  0     ROOT ALC X 1
     2 SEC2        1 GROUP        1 X    SEC  0     **** SEC X 2
     3 GLC5        4 GROUP        1 X    GLC  0     **** GLC X 6
     4 ALP1       12 GROUP        1 Y    ALP  0     ROOT ALP Y 8
     5 SEP2        3 GROUP        1 Y    SEP  0     **** SEP Y 9
     6 GLP5        6 GROUP        1 Y    GLP  0     **** GLP Y 13
     7 ALL1       11 GROUP        1 Z    ALL  0     ROOT ALL Z 15
     8 SEL2        2 GROUP        1 Z    SEL  0     **** SEL Z 16
     9 GLL5        5 GROUP        1 Z    GLL  0     **** GLL Z 20
@<TRIPOS>SET

