#    Name: 3hdh_NAD_2_ligand
#    Modification time : Tue Mar 25 13:58:05 2014

@<TRIPOS>MOLECULE
3hdh_NAD_2_ligand
   70    74     1     0     0
SMALL
NO_CHARGES


@<TRIPOS>ATOM
      1 PA         19.6510  -31.6680   48.2600 P.3       1 NAD750      0.0000 
      2 O1A        19.1350  -33.0310   48.3740 O.co2     1 NAD750      0.0000 
      3 O2A        20.9210  -31.2390   48.9960 O.co2     1 NAD750      0.0000 
      4 O5B        18.5800  -30.5660   48.7540 O.3       1 NAD750      0.0000 
      5 C5B        17.1320  -30.7200   48.5250 C.3       1 NAD750      0.0000 
      6 C4B        16.4730  -30.5390   49.8800 C.3       1 NAD750      0.0000 
      7 O4B        15.0130  -30.7100   49.5940 O.3       1 NAD750      0.0000 
      8 C3B        16.7700  -31.6620   50.9460 C.3       1 NAD750      0.0000 
      9 O3B        17.2950  -30.9840   52.1950 O.3       1 NAD750      0.0000 
     10 C2B        15.5120  -32.4140   51.2360 C.3       1 NAD750      0.0000 
     11 O2B        15.2740  -32.8790   52.4810 O.3       1 NAD750      0.0000 
     12 C1B        14.4470  -31.3880   50.6870 C.3       1 NAD750      0.0000 
     13 N9A        13.2360  -32.0360   50.1800 N.pl3     1 NAD750      0.0000 
     14 C8A        12.9270  -33.1890   49.5040 C.2       1 NAD750      0.0000 
     15 N7A        11.6430  -33.3940   49.2260 N.2       1 NAD750      0.0000 
     16 C5A        11.0020  -32.3300   49.7210 C.ar      1 NAD750      0.0000 
     17 C6A         9.5470  -31.9610   49.7230 C.ar      1 NAD750      0.0000 
     18 N6A         8.6070  -32.7020   49.2050 N.pl3     1 NAD750      0.0000 
     19 N1A         9.3300  -30.7710   50.3470 N.ar      1 NAD750      0.0000 
     20 C2A        10.1970  -29.9210   50.9210 C.ar      1 NAD750      0.0000 
     21 N3A        11.5930  -30.2180   50.9450 N.ar      1 NAD750      0.0000 
     22 C4A        11.9350  -31.4430   50.3260 C.ar      1 NAD750      0.0000 
     23 O3         19.8730  -31.2940   46.7820 O.3       1 NAD750      0.0000 
     24 PN         20.4410  -30.1970   45.8380 P.3       1 NAD750      0.0000 
     25 O1N        21.7910  -30.5860   45.3700 O.co2     1 NAD750      0.0000 
     26 O2N        20.3560  -28.8690   46.5690 O.co2     1 NAD750      0.0000 
     27 O5D        19.5660  -30.1810   44.4640 O.3       1 NAD750      0.0000 
     28 C5D        18.1380  -29.8140   44.6740 C.3       1 NAD750      0.0000 
     29 C4D        17.6370  -29.1710   43.4140 C.3       1 NAD750      0.0000 
     30 O4D        18.6570  -28.2050   42.8910 O.3       1 NAD750      0.0000 
     31 C3D        17.3850  -30.1030   42.1860 C.3       1 NAD750      0.0000 
     32 O3D        16.1400  -29.7180   41.5490 O.3       1 NAD750      0.0000 
     33 C2D        18.5860  -29.9470   41.2200 C.3       1 NAD750      0.0000 
     34 O2D        18.3380  -30.1990   39.8560 O.3       1 NAD750      0.0000 
     35 C1D        19.0280  -28.4710   41.4800 C.3       1 NAD750      0.0000 
     36 N1N        20.4950  -28.0860   41.3310 N.pl3     1 NAD750      0.0000 
     37 C2N        21.5470  -28.8280   41.8780 C.ar      1 NAD750      0.0000 
     38 C3N        22.8250  -28.3790   41.6780 C.ar      1 NAD750      0.0000 
     39 C7N        24.0080  -29.1460   42.2530 C.2       1 NAD750      0.0000 
     40 O7N        25.0700  -29.3750   41.6900 O.2       1 NAD750      0.0000 
     41 N7N        23.7650  -29.5950   43.5810 N.am      1 NAD750      0.0000 
     42 C4N        23.1500  -27.1570   40.9160 C.ar      1 NAD750      0.0000 
     43 C5N        22.0120  -26.4910   40.4090 C.ar      1 NAD750      0.0000 
     44 C6N        20.7380  -26.8810   40.5740 C.ar      1 NAD750      0.0000 
     45 H          16.9055  -31.7038   48.1522 H         1 NAD750      0.0000 
     46 H          16.7677  -29.9628   47.8526 H         1 NAD750      0.0000 
     47 H          16.6407  -29.6020   50.2846 H         1 NAD750      0.0000 
     48 H          17.5145  -32.3015   50.5398 H         1 NAD750      0.0000 
     49 H          15.4749  -33.2210   50.4417 H         1 NAD750      0.0000 
     50 H          14.2098  -30.7122   51.4824 H         1 NAD750      0.0000 
     51 H          13.6614  -33.8442   49.2367 H         1 NAD750      0.0000 
     52 H           8.9024  -33.5657   48.7965 H         1 NAD750      0.0000 
     53 H           7.6773  -32.3383   49.2639 H         1 NAD750      0.0000 
     54 H           9.8886  -29.0364   51.3584 H         1 NAD750      0.0000 
     55 H          18.0513  -29.1150   45.4979 H         1 NAD750      0.0000 
     56 H          17.5535  -30.7018   44.8861 H         1 NAD750      0.0000 
     57 H          16.7283  -28.6157   43.5886 H         1 NAD750      0.0000 
     58 H          17.3629  -31.1072   42.5428 H         1 NAD750      0.0000 
     59 H          19.3925  -30.5556   41.6387 H         1 NAD750      0.0000 
     60 H          18.4125  -27.8219   40.8624 H         1 NAD750      0.0000 
     61 H          21.3538  -29.6751   42.4071 H         1 NAD750      0.0000 
     62 H          22.8980  -29.3104   43.9900 H         1 NAD750      0.0000 
     63 H          24.4817  -30.1573   43.9934 H         1 NAD750      0.0000 
     64 H          24.0617  -26.8684   40.7943 H         1 NAD750      0.0000 
     65 H          22.2119  -25.5989   39.8471 H         1 NAD750      0.0000 
     66 H          19.9412  -26.3798   40.1990 H         1 NAD750      0.0000 
     67 H          16.4989  -30.5332   52.5987 H         1 NAD750      0.0000 
     68 H          14.7246  -32.1691   52.9217 H         1 NAD750      0.0000 
     69 H          15.8282  -30.5400   41.0724 H         1 NAD750      0.0000 
     70 H          17.3876  -30.5078   39.8186 H         1 NAD750      0.0000 
@<TRIPOS>BOND
     1    2    1 ar   
     2    3    1 ar   
     3    4    1 1    
     4   23    1 1    
     5    5    4 1    
     6    6    5 1    
     7   45    5 1    
     8   46    5 1    
     9    7    6 1    
    10    8    6 1    
    11   47    6 1    
    12   12    7 1    
    13    9    8 1    
    14   10    8 1    
    15   48    8 1    
    16   67    9 1    
    17   11   10 1    
    18   12   10 1    
    19   49   10 1    
    20   68   11 1    
    21   13   12 1    
    22   50   12 1    
    23   14   13 1    
    24   22   13 1    
    25   15   14 2    
    26   51   14 1    
    27   16   15 1    
    28   17   16 ar   
    29   22   16 ar   
    30   18   17 1    
    31   19   17 ar   
    32   52   18 1    
    33   53   18 1    
    34   20   19 ar   
    35   21   20 ar   
    36   54   20 1    
    37   22   21 ar   
    38   24   23 1    
    39   25   24 ar   
    40   26   24 ar   
    41   27   24 1    
    42   28   27 1    
    43   29   28 1    
    44   55   28 1    
    45   56   28 1    
    46   30   29 1    
    47   31   29 1    
    48   57   29 1    
    49   35   30 1    
    50   32   31 1    
    51   33   31 1    
    52   58   31 1    
    53   69   32 1    
    54   34   33 1    
    55   35   33 1    
    56   59   33 1    
    57   70   34 1    
    58   36   35 1    
    59   60   35 1    
    60   37   36 ar   
    61   44   36 ar   
    62   38   37 ar   
    63   61   37 1    
    64   39   38 1    
    65   42   38 ar   
    66   40   39 2    
    67   41   39 am   
    68   62   41 1    
    69   63   41 1    
    70   43   42 ar   
    71   64   42 1    
    72   44   43 ar   
    73   65   43 1    
    74   66   44 1    
@<TRIPOS>SUBSTRUCTURE
     1 NAD750      1 GROUP   
@<TRIPOS>SET

