#    Name: 4gg9_0WW_1_INTS_M
#    Modification time : Mon Mar 24 22:11:14 2014

@<TRIPOS>MOLECULE
4gg9_0WW_1_INTS_M
   65     0    12     0     0
SMALL
NO_CHARGES


@<TRIPOS>ATOM
      1 OD1        15.2510   13.5180   17.5105 O.co2     3 ASC3        0.0000 
      2 OD1        14.3640   15.0690   17.6760 O.co2    11 ASL3        0.0000 
      3 OD1        16.1380   11.9670   17.3450 O.co2     7 ASP3        0.0000 
      4 OD1        14.5525   13.9745   16.8390 O.co2     3 ASC3        0.0000 
      5 OD1        14.7410   12.8800   16.0020 O.co2     7 ASP3        0.0000 
      6 CA         17.0795   14.6585   19.5610 C.3       4 GLC5        0.0000 
      7 CA         15.4560   15.4360   18.5940 C.3      12 GLL5        0.0000 
      8 CA         18.7030   13.8810   20.5280 C.3       8 GLP5        0.0000 
      9 CA         16.9815   15.1095   17.3265 C.3       4 GLC5        0.0000 
     10 CA         18.5070   14.7830   16.0590 C.3       8 GLP5        0.0000 
     11 CA         15.4330   18.7055   21.1955 C.3       4 GLC5        0.0000 
     12 CA         16.8830   17.3190   21.2100 C.3      12 GLL5        0.0000 
     13 CA         13.9830   20.0920   21.1810 C.3       8 GLP5        0.0000 
     14 O          16.4720   17.6075   25.3270 O.2       1 ALC1        0.0000 
     15 O          17.3820   17.3220   23.8940 O.2       9 ALL1        0.0000 
     16 O          15.5620   17.8930   26.7600 O.2       5 ALP1        0.0000 
     17 O          17.5235   17.3320   25.2655 O.2       1 ALC1        0.0000 
     18 O          17.6650   17.3420   26.6370 O.2       5 ALP1        0.0000 
     19 CA         20.2370   19.8270   19.2655 C.3       4 GLC5        0.0000 
     20 CA         18.8890   18.0660   19.4240 C.3      12 GLL5        0.0000 
     21 CA         21.5850   21.5880   19.1070 C.3       8 GLP5        0.0000 
     22 CA         18.0680   16.2365   17.5205 C.3       4 GLC5        0.0000 
     23 CA         17.6290   17.6900   18.9820 C.3      12 GLL5        0.0000 
     24 O          20.4440   19.3375   15.9540 O.2       1 ALC1        0.0000 
     25 O          19.2990   18.4800   16.0310 O.2       9 ALL1        0.0000 
     26 O          21.5890   20.1950   15.8770 O.2       5 ALP1        0.0000 
     27 CA         17.3195   20.0930   16.4400 C.3       4 GLC5        0.0000 
     28 CA         18.2850   18.6810   14.9950 C.3      12 GLL5        0.0000 
     29 CA         16.3540   21.5050   17.8850 C.3       8 GLP5        0.0000 
     30 CA         20.4360   18.1290   15.3095 C.3       4 GLC5        0.0000 
     31 CA         22.5870   17.5770   15.6240 C.3       8 GLP5        0.0000 
     32 CA         18.3960   16.7320   15.5270 C.3       4 GLC5        0.0000 
     33 N          19.9250   18.0620   25.0300 N.am      2 SEC2        0.0000 
     34 N          19.5120   17.9920   23.6320 N.am     10 SEL2        0.0000 
     35 N          20.3380   18.1320   26.4280 N.am      6 SEP2        0.0000 
     36 N          20.8695   17.9580   23.3710 N.am      2 SEC2        0.0000 
     37 N          22.2270   17.9240   23.1100 N.am      6 SEP2        0.0000 
     38 CA         10.4650   14.7725   19.6330 C.3       4 GLC5        0.0000 
     39 CA         10.7220   15.4470   17.8420 C.3      12 GLL5        0.0000 
     40 CA         10.2080   14.0980   21.4240 C.3       8 GLP5        0.0000 
     41 CA          7.7645   14.6380   17.4650 C.3       4 GLC5        0.0000 
     42 CA          9.4720   15.2170   16.9800 C.3      12 GLL5        0.0000 
     43 CA          6.0570   14.0590   17.9500 C.3       8 GLP5        0.0000 
     44 CA          7.5160   15.5145   16.3050 C.3       4 GLC5        0.0000 
     45 CA          9.3470   16.4030   16.0300 C.3      12 GLL5        0.0000 
     46 CA          5.6850   14.6260   16.5800 C.3       8 GLP5        0.0000 
     47 CA         21.1670   18.1970   14.2380 C.3       4 GLC5        0.0000 
     48 CA         19.7470   18.8170   12.8520 C.3      12 GLL5        0.0000 
     49 CA         15.1567   18.7012   20.0785 C.3       4 GLC5        0.0000 
     50 CA         16.5730   17.3210   19.8360 C.3      12 GLL5        0.0000 
     51 CA         14.8060   20.5870   20.0250 C.3       8 GLP5        0.0000 
     52 CA         17.7155   15.6005   20.5255 C.3       4 GLC5        0.0000 
     53 CA         18.7040   15.8688   20.8742 C.3       4 GLC5        0.0000 
     54 CA         19.2360   18.0490   20.7860 C.3      12 GLL5        0.0000 
     55 CA         19.2885   19.5381   21.1866 C.3       4 GLC5        0.0000 
     56 CA         18.1740   17.6640   21.6550 C.3      12 GLL5        0.0000 
     57 CA         19.7800   21.1150   22.0510 C.3       8 GLP5        0.0000 
     58 CA         18.4810   15.8795   19.8655 C.3       4 GLC5        0.0000 
     59 CA         10.3049   13.5790   17.5499 C.3       4 GLC5        0.0000 
     60 CA         10.1930   11.8130   17.9110 C.3       8 GLP5        0.0000 
     61 CA          9.8619   14.6610   14.8135 C.3       4 GLC5        0.0000 
     62 CA          9.7390   13.1520   13.8160 C.3       8 GLP5        0.0000 
     63 CA         11.6295   16.2037   13.5868 C.3       4 GLC5        0.0000 
     64 CA         10.5600   16.5300   15.1170 C.3      12 GLL5        0.0000 
     65 CA         12.0430   15.8290   11.6670 C.3       8 GLP5        0.0000 
@<TRIPOS>BOND
@<TRIPOS>SUBSTRUCTURE
     1 ALC1       14 GROUP        1 X    ALC  0     ROOT ALC X 1
     2 SEC2       33 GROUP        1 X    SEC  0     **** SEC X 2
     3 ASC3        1 GROUP        1 X    ASC  0     **** ASC X 3
     4 GLC5        6 GROUP        1 X    GLC  0     **** GLC X 6
     5 ALP1       16 GROUP        1 Y    ALP  0     ROOT ALP Y 8
     6 SEP2       35 GROUP        1 Y    SEP  0     **** SEP Y 9
     7 ASP3        3 GROUP        1 Y    ASP  0     **** ASP Y 10
     8 GLP5        8 GROUP        1 Y    GLP  0     **** GLP Y 13
     9 ALL1       15 GROUP        1 Z    ALL  0     ROOT ALL Z 15
    10 SEL2       34 GROUP        1 Z    SEL  0     **** SEL Z 16
    11 ASL3        2 GROUP        1 Z    ASL  0     **** ASL Z 17
    12 GLL5        7 GROUP        1 Z    GLL  0     **** GLL Z 20
@<TRIPOS>SET

