#    Name: 4gg9_0WW_1_ligand
#    Modification time : Mon Mar 24 22:11:14 2014

@<TRIPOS>MOLECULE
4gg9_0WW_1_ligand
   58    62     1     0     0
SMALL
NO_CHARGES


@<TRIPOS>ATOM
      1 C1         13.1740   15.8840   17.9000 C.3       1 0WW1404     0.0000 
      2 N1         14.3640   15.0690   17.6760 N.4       1 0WW1404     0.0000 
      3 C2         15.4560   15.4360   18.5940 C.3       1 0WW1404     0.0000 
      4 C3         15.2650   16.8050   19.2720 C.3       1 0WW1404     0.0000 
      5 C4         16.5730   17.3210   19.8360 C.ar      1 0WW1404     0.0000 
      6 C5         16.8830   17.3190   21.2100 C.ar      1 0WW1404     0.0000 
      7 N2         15.8560   16.9450   22.1180 N.2       1 0WW1404     0.0000 
      8 C6         16.1780   16.9400   23.3800 C.2       1 0WW1404     0.0000 
      9 N3         17.3820   17.3220   23.8940 N.am      1 0WW1404     0.0000 
     10 C7         18.4490   17.6750   23.1160 C.2       1 0WW1404     0.0000 
     11 C8         18.1740   17.6640   21.6550 C.ar      1 0WW1404     0.0000 
     12 C9         19.2360   18.0490   20.7860 C.ar      1 0WW1404     0.0000 
     13 C10        18.8890   18.0660   19.4240 C.ar      1 0WW1404     0.0000 
     14 C11        17.6290   17.6900   18.9820 C.ar      1 0WW1404     0.0000 
     15 N4         17.6610   17.8490   17.6040 N.pl3     1 0WW1404     0.0000 
     16 C12        18.9090   18.2660   17.3090 C.2       1 0WW1404     0.0000 
     17 N5         19.6880   18.4100   18.3570 N.2       1 0WW1404     0.0000 
     18 N6         19.2990   18.4800   16.0310 N.pl3     1 0WW1404     0.0000 
     19 C13        18.2850   18.6810   14.9950 C.3       1 0WW1404     0.0000 
     20 O1         19.5120   17.9920   23.6320 O.2       1 0WW1404     0.0000 
     21 C14        12.0010   15.4990   16.9530 C.3       1 0WW1404     0.0000 
     22 C15        10.7220   15.4470   17.8420 C.3       1 0WW1404     0.0000 
     23 C16         9.4720   15.2170   16.9800 C.3       1 0WW1404     0.0000 
     24 C17         9.3470   16.4030   16.0300 C.3       1 0WW1404     0.0000 
     25 C18        10.5600   16.5300   15.1170 C.3       1 0WW1404     0.0000 
     26 C19        11.8720   16.6270   15.8960 C.3       1 0WW1404     0.0000 
     27 S1         18.5390   20.9980   13.4320 S.3       1 0WW1404     0.0000 
     28 C20        19.6080   21.0010   12.1000 C.2       1 0WW1404     0.0000 
     29 C21        20.1970   19.7730   11.9010 C.2       1 0WW1404     0.0000 
     30 C22        19.7470   18.8170   12.8520 C.2       1 0WW1404     0.0000 
     31 C23        18.8210   19.3320   13.7420 C.2       1 0WW1404     0.0000 
     32 H          13.3881   16.9521   17.7390 H         1 0WW1404     0.0000 
     33 H          12.8090   15.7783   18.9335 H         1 0WW1404     0.0000 
     34 H          16.4223   15.4581   18.0548 H         1 0WW1404     0.0000 
     35 H          15.5614   14.6759   19.3916 H         1 0WW1404     0.0000 
     36 H          14.5344   16.6999   20.0740 H         1 0WW1404     0.0000 
     37 H          14.8782   17.5097   18.5358 H         1 0WW1404     0.0000 
     38 H          15.4408   16.6071   24.1047 H         1 0WW1404     0.0000 
     39 H          17.4972   17.3468   24.9460 H         1 0WW1404     0.0000 
     40 H          20.1276   18.2800   21.1190 H         1 0WW1404     0.0000 
     41 H          16.9429   17.6912   17.0142 H         1 0WW1404     0.0000 
     42 H          20.2760   18.5100   15.7424 H         1 0WW1404     0.0000 
     43 H          17.4566   19.3074   15.3866 H         1 0WW1404     0.0000 
     44 H          17.8263   17.7099   14.7147 H         1 0WW1404     0.0000 
     45 H          12.1827   14.5867   16.5136 H         1 0WW1404     0.0000 
     46 H          10.6295   16.3878   18.3722 H         1 0WW1404     0.0000 
     47 H          10.8267   14.6361   18.5535 H         1 0WW1404     0.0000 
     48 H           8.6068   15.1672   17.6147 H         1 0WW1404     0.0000 
     49 H           9.5912   14.3107   16.4158 H         1 0WW1404     0.0000 
     50 H           9.2389   17.3215   16.6146 H         1 0WW1404     0.0000 
     51 H           8.4478   16.2803   15.4188 H         1 0WW1404     0.0000 
     52 H          10.4491   17.4242   14.4923 H         1 0WW1404     0.0000 
     53 H          10.6035   15.6594   14.4520 H         1 0WW1404     0.0000 
     54 H          12.7122   16.5540   15.2046 H         1 0WW1404     0.0000 
     55 H          11.9223   17.5896   16.4061 H         1 0WW1404     0.0000 
     56 H          19.6697   21.8225   11.6659 H         1 0WW1404     0.0000 
     57 H          20.8390   19.5624   11.2083 H         1 0WW1404     0.0000 
     58 H          20.0702   17.8958   12.8600 H         1 0WW1404     0.0000 
@<TRIPOS>BOND
     1    2    1 1    
     2   21    1 1    
     3   32    1 1    
     4   33    1 1    
     5    3    2 1    
     6    4    3 1    
     7   34    3 1    
     8   35    3 1    
     9    5    4 1    
    10   36    4 1    
    11   37    4 1    
    12    6    5 ar   
    13   14    5 ar   
    14    7    6 1    
    15   11    6 ar   
    16    8    7 2    
    17    9    8 1    
    18   38    8 1    
    19   10    9 am   
    20   39    9 1    
    21   11   10 1    
    22   20   10 2    
    23   12   11 ar   
    24   13   12 ar   
    25   40   12 1    
    26   14   13 ar   
    27   17   13 1    
    28   15   14 1    
    29   16   15 1    
    30   41   15 1    
    31   17   16 2    
    32   18   16 1    
    33   19   18 1    
    34   42   18 1    
    35   31   19 1    
    36   43   19 1    
    37   44   19 1    
    38   22   21 1    
    39   26   21 1    
    40   45   21 1    
    41   23   22 1    
    42   46   22 1    
    43   47   22 1    
    44   24   23 1    
    45   48   23 1    
    46   49   23 1    
    47   25   24 1    
    48   50   24 1    
    49   51   24 1    
    50   26   25 1    
    51   52   25 1    
    52   53   25 1    
    53   54   26 1    
    54   55   26 1    
    55   28   27 1    
    56   31   27 1    
    57   29   28 2    
    58   56   28 1    
    59   30   29 1    
    60   57   29 1    
    61   31   30 2    
    62   58   30 1    
@<TRIPOS>SUBSTRUCTURE
     1 0WW1404     1 GROUP   
@<TRIPOS>SET

