#    Name: 3bi1_3BI_1_INTS_M
#    Modification time : Mon Mar 24 19:36:14 2014

@<TRIPOS>MOLECULE
3bi1_3BI_1_INTS_M
   98     0    15     0     0
SMALL
NO_CHARGES


@<TRIPOS>ATOM
      1 O          35.5720   47.7445   41.9555 O.2       1 ALC1        0.0000 
      2 O          34.2870   47.8420   41.9620 O.2      11 ALL1        0.0000 
      3 O          36.8570   47.6470   41.9490 O.2       6 ALP1        0.0000 
      4 O          33.5470   46.7360   41.5100 O.2       1 ALC1        0.0000 
      5 O          32.8070   45.6300   41.0580 O.2       6 ALP1        0.0000 
      6 N          29.2830   46.5175   41.8410 N.am      2 SEC2        0.0000 
      7 N          29.4890   48.0690   41.7160 N.am     12 SEL2        0.0000 
      8 N          29.0770   44.9660   41.9660 N.am      7 SEP2        0.0000 
      9 CA         28.5045   51.0960   43.3935 C.3       5 GLC5        0.0000 
     10 CA         27.3250   51.2900   41.9690 C.3      15 GLL5        0.0000 
     11 CA         29.6840   50.9020   44.8180 C.3      10 GLP5        0.0000 
     12 CA         26.9540   50.3965   37.9450 C.3       5 GLC5        0.0000 
     13 CA         26.2570   50.4800   39.9740 C.3      15 GLL5        0.0000 
     14 CA         27.6510   50.3130   35.9160 C.3      10 GLP5        0.0000 
     15 CA         32.6695   47.3190   43.5080 C.3       5 GLC5        0.0000 
     16 CA         33.1390   48.5660   41.9850 C.3      15 GLL5        0.0000 
     17 CA         32.2000   46.0720   45.0310 C.3      10 GLP5        0.0000 
     18 N          24.0355   48.1465   46.8625 N.am      2 SEC2        0.0000 
     19 N          22.8960   47.6840   45.7910 N.am     12 SEL2        0.0000 
     20 N          25.1750   48.6090   47.9340 N.am      7 SEP2        0.0000 
     21 N          23.0080   46.7945   47.1845 N.am      2 SEC2        0.0000 
     22 N          23.1200   45.9050   48.5780 N.am      7 SEP2        0.0000 
     23 N          31.9650   46.7095   42.7555 N.am      2 SEC2        0.0000 
     24 N          31.9080   47.9280   41.8470 N.am     12 SEL2        0.0000 
     25 N          32.0220   45.4910   43.6640 N.am      7 SEP2        0.0000 
     26 NZ         21.7065   45.8630   47.9010 N.4       3 LYC4        0.0000 
     27 NZ         20.2930   45.8210   47.2240 N.4      13 LYL4        0.0000 
     28 NZ         22.4910   45.6590   49.7240 N.4       8 LYP4        0.0000 
     29 N          19.9915   47.0990   48.0475 N.am      2 SEC2        0.0000 
     30 N          20.2930   45.8210   47.2240 N.am     12 SEL2        0.0000 
     31 N          19.6900   48.3770   48.8710 N.am      7 SEP2        0.0000 
     32 N          21.7065   45.8630   47.9010 N.am      2 SEC2        0.0000 
     33 N          20.7255   45.6710   48.4935 N.am      2 SEC2        0.0000 
     34 N          21.1580   45.5210   49.7630 N.am      7 SEP2        0.0000 
     35 NZ         19.7920   48.0220   47.5240 N.4       3 LYC4        0.0000 
     36 NZ         19.8940   47.6670   46.1770 N.4      13 LYL4        0.0000 
     37 NZ         19.8250   49.6640   49.1080 N.4       8 LYP4        0.0000 
     38 N          18.5625   47.0690   46.8655 N.am      2 SEC2        0.0000 
     39 N          19.8940   47.6670   46.1770 N.am     12 SEL2        0.0000 
     40 N          17.2310   46.4710   47.5540 N.am      7 SEP2        0.0000 
     41 N          19.9355   49.0940   47.1330 N.am      2 SEC2        0.0000 
     42 N          19.9770   50.5210   48.0890 N.am      7 SEP2        0.0000 
     43 N          19.7920   48.0220   47.5240 N.am      2 SEC2        0.0000 
     44 Zn         17.9585   42.0145   43.0310 Zn        4 ZIC7        0.0000 
     45 Zn         18.2180   42.9710   42.8430 Zn       14 ZIL7        0.0000 
     46 Zn         17.6990   41.0580   43.2190 Zn        9 ZIP7        0.0000 
     47 N          19.1935   43.1420   41.9060 N.am      2 SEC2        0.0000 
     48 N          18.2180   42.9710   42.8430 N.am     12 SEL2        0.0000 
     49 N          20.1690   43.3130   40.9690 N.am      7 SEP2        0.0000 
     50 Zn         17.1860   41.9865   44.0505 Zn        4 ZIC7        0.0000 
     51 Zn         16.6730   42.9150   44.8820 Zn       14 ZIL7        0.0000 
     52 Zn         16.7875   42.5735   45.7695 Zn        4 ZIC7        0.0000 
     53 Zn         16.9020   42.2320   46.6570 Zn        9 ZIP7        0.0000 
     54 N          15.2720   43.0185   44.8315 N.am      2 SEC2        0.0000 
     55 N          16.6730   42.9150   44.8820 N.am     12 SEL2        0.0000 
     56 N          13.8710   43.1220   44.7810 N.am      7 SEP2        0.0000 
     57 N          18.9920   45.8410   40.0815 N.am      2 SEC2        0.0000 
     58 N          17.9560   45.4590   40.6960 N.am     12 SEL2        0.0000 
     59 N          20.0280   46.2230   39.4670 N.am      7 SEP2        0.0000 
     60 NZ         18.2710   43.2980   38.6670 N.4       3 LYC4        0.0000 
     61 NZ         17.0570   43.7570   39.6210 N.4      13 LYL4        0.0000 
     62 NZ         18.7340   43.2280   36.6850 N.4       8 LYP4        0.0000 
     63 N          17.3050   43.7985   38.2585 N.am      2 SEC2        0.0000 
     64 N          17.0570   43.7570   39.6210 N.am     12 SEL2        0.0000 
     65 N          17.5530   43.8400   36.8960 N.am      7 SEP2        0.0000 
     66 N          18.2710   43.2980   38.6670 N.am      2 SEC2        0.0000 
     67 N          19.4850   42.8390   37.7130 N.am      7 SEP2        0.0000 
     68 CA         13.5720   43.3975   41.4825 C.3       5 GLC5        0.0000 
     69 CA         14.6710   45.2830   41.1080 C.3      15 GLL5        0.0000 
     70 CA         12.4730   41.5120   41.8570 C.3      10 GLP5        0.0000 
     71 CA         15.8345   47.0740   39.1595 C.3       5 GLC5        0.0000 
     72 CA         14.9460   46.7600   41.0570 C.3      15 GLL5        0.0000 
     73 CA         16.7230   47.3880   37.2620 C.3      10 GLP5        0.0000 
     74 CA         15.5690   48.2650   41.9840 C.3       5 GLC5        0.0000 
     75 CA         16.1920   49.7700   42.9110 C.3      10 GLP5        0.0000 
     76 NZ         12.8420   48.8250   39.4085 N.4       3 LYC4        0.0000 
     77 NZ         13.0670   46.9940   39.5250 N.4      13 LYL4        0.0000 
     78 NZ         12.6170   50.6560   39.2920 N.4       8 LYP4        0.0000 
     79 N          12.9400   45.7550   38.7940 N.am      2 SEC2        0.0000 
     80 N          13.0670   46.9940   39.5250 N.am     12 SEL2        0.0000 
     81 N          12.8130   44.5160   38.0630 N.am      7 SEP2        0.0000 
     82 NZ         13.1695   49.7180   39.9805 N.4       3 LYC4        0.0000 
     83 NZ         13.7220   48.7800   40.6690 N.4      13 LYL4        0.0000 
     84 N          13.1695   49.7180   39.9805 N.am      2 SEC2        0.0000 
     85 N          13.7220   48.7800   40.6690 N.am     12 SEL2        0.0000 
     86 N          12.6170   50.6560   39.2920 N.am      7 SEP2        0.0000 
     87 CA         19.6575   46.9250   42.3485 C.3       5 GLC5        0.0000 
     88 CA         19.6740   45.6400   43.8960 C.3      15 GLL5        0.0000 
     89 CA         19.6410   48.2100   40.8010 C.3      10 GLP5        0.0000 
     90 CA         31.4620   47.3465   43.4440 C.3       5 GLC5        0.0000 
     91 CA         30.7240   48.6210   41.8570 C.3      15 GLL5        0.0000 
     92 CA         30.4810   46.8120   40.8225 C.3       5 GLC5        0.0000 
     93 CA         30.2380   45.0030   39.7880 C.3      10 GLP5        0.0000 
     94 CA         13.5068   46.8197   42.5337 C.3       5 GLC5        0.0000 
     95 CA         12.2050   47.6180   43.9850 C.3      10 GLP5        0.0000 
     96 CA         22.8800   50.5461   41.9288 C.3       5 GLC5        0.0000 
     97 CA         24.4920   49.1620   41.5850 C.3      15 GLL5        0.0000 
     98 CA         21.5120   51.5690   40.9590 C.3      10 GLP5        0.0000 
@<TRIPOS>BOND
@<TRIPOS>SUBSTRUCTURE
     1 ALC1        1 GROUP        1 X    ALC  0     ROOT ALC X 1
     2 SEC2        6 GROUP        1 X    SEC  0     **** SEC X 2
     3 LYC4       26 GROUP        1 X    LYC  0     **** LYC X 4
     4 ZIC7       44 GROUP        1 X    ZIC  0     **** ZIC X 5
     5 GLC5        9 GROUP        1 X    GLC  0     **** GLC X 6
     6 ALP1        3 GROUP        1 Y    ALP  0     ROOT ALP Y 8
     7 SEP2        8 GROUP        1 Y    SEP  0     **** SEP Y 9
     8 LYP4       28 GROUP        1 Y    LYP  0     **** LYP Y 11
     9 ZIP7       46 GROUP        1 Y    ZIP  0     **** ZIP Y 12
    10 GLP5       11 GROUP        1 Y    GLP  0     **** GLP Y 13
    11 ALL1        2 GROUP        1 Z    ALL  0     ROOT ALL Z 15
    12 SEL2        7 GROUP        1 Z    SEL  0     **** SEL Z 16
    13 LYL4       27 GROUP        1 Z    LYL  0     **** LYL Z 18
    14 ZIL7       45 GROUP        1 Z    ZIL  0     **** ZIL Z 19
    15 GLL5       10 GROUP        1 Z    GLL  0     **** GLL Z 20
@<TRIPOS>SET

