#    Name: 3bi1_3BI_1_ligand
#    Modification time : Mon Mar 24 19:36:14 2014

@<TRIPOS>MOLECULE
3bi1_3BI_1_ligand
   70    72     1     0     0
SMALL
NO_CHARGES


@<TRIPOS>ATOM
      1 N1         34.2870   47.8420   41.9620 N.pl3     1 3BI1        0.0000 
      2 C2         30.8330   50.0980   42.0170 C.ar      1 3BI1        0.0000 
      3 N3         32.3270   52.0560   42.3300 N.pl3     1 3BI1        0.0000 
      4 C4         28.3790   48.8650   41.7450 C.ar      1 3BI1        0.0000 
      5 N5         29.4890   48.0690   41.7160 N.ar      1 3BI1        0.0000 
      6 C6         27.3250   51.2900   41.9690 C.3       1 3BI1        0.0000 
      7 C7         26.2570   50.4800   39.9740 C.3       1 3BI1        0.0000 
      8 C9         24.0100   49.8790   44.2200 C.ar      1 3BI1        0.0000 
      9 C11        25.1340   50.2800   42.1130 C.ar      1 3BI1        0.0000 
     10 C12        24.4920   49.1620   41.5850 C.ar      1 3BI1        0.0000 
     11 C13        23.6220   48.3990   42.3640 C.ar      1 3BI1        0.0000 
     12 C14        22.5150   47.8310   44.4990 C.2       1 3BI1        0.0000 
     13 C15        20.8340   46.1060   44.8200 C.3       1 3BI1        0.0000 
     14 C16        20.3330   46.5440   46.1740 C.2       1 3BI1        0.0000 
     15 C          33.1390   48.5660   41.9850 C.ar      1 3BI1        0.0000 
     16 O          22.8960   47.6840   45.7910 O.2       1 3BI1        0.0000 
     17 N          31.9080   47.9280   41.8470 N.ar      1 3BI1        0.0000 
     18 O1         20.2930   45.8210   47.2240 O.co2     1 3BI1        0.0000 
     19 O2         19.8940   47.6670   46.1770 O.co2     1 3BI1        0.0000 
     20 O8         18.2180   42.9710   42.8430 O.co2     1 3BI1        0.0000 
     21 P          17.5280   43.9150   43.8490 P.3       1 3BI1        0.0000 
     22 O7         16.6730   42.9150   44.8820 O.co2     1 3BI1        0.0000 
     23 C19        16.3960   44.9670   43.0390 C.3       1 3BI1        0.0000 
     24 C20        15.9190   44.5150   41.6250 C.3       1 3BI1        0.0000 
     25 C24        17.0740   44.5710   40.5990 C.2       1 3BI1        0.0000 
     26 O6         17.9560   45.4590   40.6960 O.co2     1 3BI1        0.0000 
     27 O5         17.0570   43.7570   39.6210 O.co2     1 3BI1        0.0000 
     28 C21        14.6710   45.2830   41.1080 C.3       1 3BI1        0.0000 
     29 C22        14.9460   46.7600   41.0570 C.3       1 3BI1        0.0000 
     30 C23        13.8150   47.5440   40.3990 C.2       1 3BI1        0.0000 
     31 O4         13.0670   46.9940   39.5250 O.co2     1 3BI1        0.0000 
     32 O3         13.7220   48.7800   40.6690 O.co2     1 3BI1        0.0000 
     33 C18        18.6980   44.8480   44.7160 C.3       1 3BI1        0.0000 
     34 C17        19.6740   45.6400   43.8960 C.3       1 3BI1        0.0000 
     35 N7         21.5870   47.0920   44.0150 N.am      1 3BI1        0.0000 
     36 C8         23.3700   48.7530   43.6730 C.ar      1 3BI1        0.0000 
     37 C10        24.8670   50.6570   43.4350 C.ar      1 3BI1        0.0000 
     38 N6         26.0160   51.0620   41.2970 N.pl3     1 3BI1        0.0000 
     39 C3         28.4810   50.2750   41.8950 C.ar      1 3BI1        0.0000 
     40 N4         29.7150   50.8320   42.0270 N.ar      1 3BI1        0.0000 
     41 C5         30.7240   48.6210   41.8570 C.ar      1 3BI1        0.0000 
     42 C1         32.1900   50.7110   42.1700 C.ar      1 3BI1        0.0000 
     43 N2         33.2730   49.9070   42.1530 N.ar      1 3BI1        0.0000 
     44 H          35.1380   48.3647   42.0124 H         1 3BI1        0.0000 
     45 H          34.1802   46.8498   41.8967 H         1 3BI1        0.0000 
     46 H          33.2625   52.3937   42.4341 H         1 3BI1        0.0000 
     47 H          31.4801   52.5877   42.3293 H         1 3BI1        0.0000 
     48 H          27.4300   48.4544   41.6575 H         1 3BI1        0.0000 
     49 H          27.1367   51.4960   43.0796 H         1 3BI1        0.0000 
     50 H          27.7461   52.2964   41.6209 H         1 3BI1        0.0000 
     51 H          23.8450   50.1291   45.2026 H         1 3BI1        0.0000 
     52 H          24.6624   48.8931   40.6012 H         1 3BI1        0.0000 
     53 H          23.1692   47.5687   41.9533 H         1 3BI1        0.0000 
     54 H          21.4700   45.2050   44.9421 H         1 3BI1        0.0000 
     55 H          16.9078   45.9285   42.9969 H         1 3BI1        0.0000 
     56 H          15.5598   45.0455   43.7339 H         1 3BI1        0.0000 
     57 H          15.6272   43.4457   41.7117 H         1 3BI1        0.0000 
     58 H          13.8412   45.0767   41.7797 H         1 3BI1        0.0000 
     59 H          14.4279   44.9100   40.1160 H         1 3BI1        0.0000 
     60 H          15.8746   46.9434   40.4980 H         1 3BI1        0.0000 
     61 H          15.0947   47.1432   42.0766 H         1 3BI1        0.0000 
     62 H          19.1956   44.1054   45.3584 H         1 3BI1        0.0000 
     63 H          18.0852   45.4864   45.3707 H         1 3BI1        0.0000 
     64 H          20.0901   45.0300   43.1083 H         1 3BI1        0.0000 
     65 H          19.1974   46.5149   43.4801 H         1 3BI1        0.0000 
     66 H          21.2843   47.1268   43.0020 H         1 3BI1        0.0000 
     67 H          25.2983   51.4998   43.8249 H         1 3BI1        0.0000 
     68 H          26.8123   51.0812   39.3993 H         1 3BI1        0.0000 
     69 H          26.7387   49.6058   40.0350 H         1 3BI1        0.0000 
     70 H          25.4032   50.3105   39.4817 H         1 3BI1        0.0000 
@<TRIPOS>BOND
     1   15    1 1    
     2   44    1 1    
     3   45    1 1    
     4   40    2 ar   
     5   41    2 ar   
     6   42    2 ar   
     7   42    3 1    
     8   46    3 1    
     9   47    3 1    
    10    5    4 ar   
    11   39    4 ar   
    12   48    4 1    
    13   41    5 ar   
    14   38    6 1    
    15   39    6 1    
    16   49    6 1    
    17   50    6 1    
    18   38    7 1    
    19   68    7 1    
    20   69    7 1    
    21   70    7 1    
    22   36    8 ar   
    23   37    8 ar   
    24   51    8 1    
    25   10    9 ar   
    26   37    9 ar   
    27   38    9 1    
    28   11   10 ar   
    29   52   10 1    
    30   36   11 ar   
    31   53   11 1    
    32   16   12 2    
    33   35   12 am   
    34   36   12 1    
    35   14   13 1    
    36   34   13 1    
    37   35   13 1    
    38   54   13 1    
    39   18   14 ar   
    40   19   14 ar   
    41   17   15 ar   
    42   43   15 ar   
    43   41   17 ar   
    44   21   20 ar   
    45   22   21 ar   
    46   23   21 1    
    47   33   21 1    
    48   24   23 1    
    49   55   23 1    
    50   56   23 1    
    51   25   24 1    
    52   28   24 1    
    53   57   24 1    
    54   26   25 ar   
    55   27   25 ar   
    56   29   28 1    
    57   58   28 1    
    58   59   28 1    
    59   30   29 1    
    60   60   29 1    
    61   61   29 1    
    62   31   30 ar   
    63   32   30 ar   
    64   34   33 1    
    65   62   33 1    
    66   63   33 1    
    67   64   34 1    
    68   65   34 1    
    69   66   35 1    
    70   67   37 1    
    71   40   39 ar   
    72   43   42 ar   
@<TRIPOS>SUBSTRUCTURE
     1 3BI1        1 GROUP   
@<TRIPOS>SET

