#    Name: 1zar_ADP_1_INTS_M
#    Modification time : Tue Mar 25 11:38:32 2014

@<TRIPOS>MOLECULE
1zar_ADP_1_INTS_M
   54     0    15     0     0
SMALL
NO_CHARGES


@<TRIPOS>ATOM
      1 Zn         43.5145   48.6410   24.4645 Zn        4 ZIC7        0.0000 
      2 Zn         44.4130   48.0510   24.7220 Zn       14 ZIL7        0.0000 
      3 Zn         42.6160   49.2310   24.2070 Zn        9 ZIP7        0.0000 
      4 N          47.3820   46.4960   23.2640 N.am      2 SEC2        0.0000 
      5 N          46.3510   46.5490   24.0680 N.am     12 SEL2        0.0000 
      6 N          48.4130   46.4430   22.4600 N.am      7 SEP2        0.0000 
      7 NZ         44.7080   48.2260   19.8580 N.4       3 LYC4        0.0000 
      8 NZ         44.6940   49.4780   20.4640 N.4      13 LYL4        0.0000 
      9 NZ         44.7220   46.9740   19.2520 N.4       8 LYP4        0.0000 
     10 N          44.7080   48.2260   19.8580 N.am      2 SEC2        0.0000 
     11 N          44.6940   49.4780   20.4640 N.am     12 SEL2        0.0000 
     12 N          44.7220   46.9740   19.2520 N.am      7 SEP2        0.0000 
     13 Zn         43.2625   49.6330   23.5255 Zn        4 ZIC7        0.0000 
     14 Zn         43.9090   50.0350   22.8440 Zn       14 ZIL7        0.0000 
     15 N          46.9070   47.2080   22.4040 N.am      2 SEC2        0.0000 
     16 N          45.4010   47.9730   22.3480 N.am     12 SEL2        0.0000 
     17 CA         44.8370   55.4690   22.9120 C.3       5 GLC5        0.0000 
     18 CA         46.5710   54.0550   23.1490 C.3      15 GLL5        0.0000 
     19 CA         43.1030   56.8830   22.6750 C.3      10 GLP5        0.0000 
     20 CA         49.5015   54.4070   22.0960 C.3       5 GLC5        0.0000 
     21 CA         47.8100   53.6540   22.3550 C.3      15 GLL5        0.0000 
     22 CA         51.1930   55.1600   21.8370 C.3      10 GLP5        0.0000 
     23 CA         48.2990   56.5815   16.4030 C.3       5 GLC5        0.0000 
     24 CA         47.1210   55.1850   17.6850 C.3      15 GLL5        0.0000 
     25 CA         49.4770   57.9780   15.1210 C.3      10 GLP5        0.0000 
     26 CA         45.9030   56.8100   16.8540 C.3       5 GLC5        0.0000 
     27 CA         44.6850   58.4350   16.0230 C.3      10 GLP5        0.0000 
     28 O          47.1655   55.4995   15.2790 O.2       1 ALC1        0.0000 
     29 O          46.7460   54.7970   16.4410 O.2      11 ALL1        0.0000 
     30 O          47.5850   56.2020   14.1170 O.2       6 ALP1        0.0000 
     31 N          47.5515   57.6725   17.2010 N.am      2 SEC2        0.0000 
     32 N          47.4660   56.4690   18.0010 N.am     12 SEL2        0.0000 
     33 N          47.6370   58.8760   16.4010 N.am      7 SEP2        0.0000 
     34 CA         49.8525   56.5700   19.9550 C.3       5 GLC5        0.0000 
     35 CA         47.8200   56.8580   19.2440 C.3      15 GLL5        0.0000 
     36 CA         51.8850   56.2820   20.6660 C.3      10 GLP5        0.0000 
     37 CA         49.4210   57.5900   18.5950 C.3       5 GLC5        0.0000 
     38 CA         51.0220   58.3220   17.9460 C.3      10 GLP5        0.0000 
     39 CA         46.5540   58.0440   18.2165 C.3       5 GLC5        0.0000 
     40 CA         45.2880   59.2300   17.1890 C.3      10 GLP5        0.0000 
     41 CA         45.8630   57.1015   19.7830 C.3       5 GLC5        0.0000 
     42 CA         43.9060   57.3450   20.3220 C.3      10 GLP5        0.0000 
     43 CA         49.3635   54.9320   20.9705 C.3       5 GLC5        0.0000 
     44 CA         47.5340   54.7040   20.1040 C.3      15 GLL5        0.0000 
     45 CA         45.7200   56.0245   20.2130 C.3       5 GLC5        0.0000 
     46 CA         48.5112   50.3295   22.2512 C.3       5 GLC5        0.0000 
     47 CA         47.2400   51.8330   23.7230 C.3      15 GLL5        0.0000 
     48 CA         49.9250   49.5560   20.9240 C.3      10 GLP5        0.0000 
     49 CA         44.8275   53.3680   22.2475 C.3       5 GLC5        0.0000 
     50 CA         46.0190   52.7130   23.5530 C.3      15 GLL5        0.0000 
     51 CA         43.3600   53.3520   21.1440 C.3      10 GLP5        0.0000 
     52 CA         48.5020   53.9785   17.1692 C.3       5 GLC5        0.0000 
     53 CA         47.1430   54.2110   18.7780 C.3      15 GLL5        0.0000 
     54 CA         49.8720   53.2590   16.1070 C.3      10 GLP5        0.0000 
@<TRIPOS>BOND
@<TRIPOS>SUBSTRUCTURE
     1 ALC1       28 GROUP        1 X    ALC  0     ROOT ALC X 1
     2 SEC2        4 GROUP        1 X    SEC  0     **** SEC X 2
     3 LYC4        7 GROUP        1 X    LYC  0     **** LYC X 4
     4 ZIC7        1 GROUP        1 X    ZIC  0     **** ZIC X 5
     5 GLC5       17 GROUP        1 X    GLC  0     **** GLC X 6
     6 ALP1       30 GROUP        1 Y    ALP  0     ROOT ALP Y 8
     7 SEP2        6 GROUP        1 Y    SEP  0     **** SEP Y 9
     8 LYP4        9 GROUP        1 Y    LYP  0     **** LYP Y 11
     9 ZIP7        3 GROUP        1 Y    ZIP  0     **** ZIP Y 12
    10 GLP5       19 GROUP        1 Y    GLP  0     **** GLP Y 13
    11 ALL1       29 GROUP        1 Z    ALL  0     ROOT ALL Z 15
    12 SEL2        5 GROUP        1 Z    SEL  0     **** SEL Z 16
    13 LYL4        8 GROUP        1 Z    LYL  0     **** LYL Z 18
    14 ZIL7        2 GROUP        1 Z    ZIL  0     **** ZIL Z 19
    15 GLL5       18 GROUP        1 Z    GLL  0     **** GLL Z 20
@<TRIPOS>SET

