#    Name: 1zar_ADP_1_ligand
#    Modification time : Tue Mar 25 11:38:32 2014

@<TRIPOS>MOLECULE
1zar_ADP_1_ligand
   39    41     1     0     0
SMALL
NO_CHARGES


@<TRIPOS>ATOM
      1 PB         45.0320   47.1250   23.7020 P.3       1 ADP401      0.0000 
      2 O1B        44.4130   48.0510   24.7220 O.co2     1 ADP401      0.0000 
      3 O2B        46.3510   46.5490   24.0680 O.co2     1 ADP401      0.0000 
      4 O3B        44.0540   46.0910   23.2350 O.co2     1 ADP401      0.0000 
      5 PA         44.9720   49.4680   21.9430 P.3       1 ADP401      0.0000 
      6 O1A        44.6940   49.4780   20.4640 O.co2     1 ADP401      0.0000 
      7 O2A        43.9090   50.0350   22.8440 O.co2     1 ADP401      0.0000 
      8 O3A        45.4010   47.9730   22.3480 O.3       1 ADP401      0.0000 
      9 O5'        46.3220   50.2820   22.1510 O.3       1 ADP401      0.0000 
     10 C5'        46.9550   50.3730   23.4340 C.3       1 ADP401      0.0000 
     11 C4'        47.2400   51.8330   23.7230 C.3       1 ADP401      0.0000 
     12 O4'        48.1960   52.3390   22.7690 O.3       1 ADP401      0.0000 
     13 C3'        46.0190   52.7130   23.5530 C.3       1 ADP401      0.0000 
     14 O3'        45.1600   52.7920   24.7120 O.3       1 ADP401      0.0000 
     15 C2'        46.5710   54.0550   23.1490 C.3       1 ADP401      0.0000 
     16 O2'        46.9440   54.8050   24.3190 O.3       1 ADP401      0.0000 
     17 C1'        47.8100   53.6540   22.3550 C.3       1 ADP401      0.0000 
     18 N9         47.4860   53.6370   20.9040 N.pl3     1 ADP401      0.0000 
     19 C8         47.1040   52.5630   20.1760 C.2       1 ADP401      0.0000 
     20 N7         46.8720   52.8940   18.8840 N.2       1 ADP401      0.0000 
     21 C5         47.1430   54.2110   18.7780 C.ar      1 ADP401      0.0000 
     22 C6         47.1210   55.1850   17.6850 C.ar      1 ADP401      0.0000 
     23 N6         46.7460   54.7970   16.4410 N.pl3     1 ADP401      0.0000 
     24 N1         47.4660   56.4690   18.0010 N.ar      1 ADP401      0.0000 
     25 C2         47.8200   56.8580   19.2440 C.ar      1 ADP401      0.0000 
     26 N3         47.8580   56.0160   20.2940 N.ar      1 ADP401      0.0000 
     27 C4         47.5340   54.7040   20.1040 C.ar      1 ADP401      0.0000 
     28 H          47.9005   49.8291   23.4549 H         1 ADP401      0.0000 
     29 H          46.3132   49.9861   24.2269 H         1 ADP401      0.0000 
     30 H          47.6117   51.9460   24.7171 H         1 ADP401      0.0000 
     31 H          45.4714   52.3278   22.6802 H         1 ADP401      0.0000 
     32 H          45.8993   54.5357   22.5174 H         1 ADP401      0.0000 
     33 H          48.5806   54.3664   22.5491 H         1 ADP401      0.0000 
     34 H          47.0066   51.6532   20.5399 H         1 ADP401      0.0000 
     35 H          46.7177   55.5153   15.7459 H         1 ADP401      0.0000 
     36 H          46.5309   53.8269   16.3288 H         1 ADP401      0.0000 
     37 H          48.0807   57.8770   19.3999 H         1 ADP401      0.0000 
     38 H          45.7008   53.2724   25.4025 H         1 ADP401      0.0000 
     39 H          46.9566   55.7596   24.0212 H         1 ADP401      0.0000 
@<TRIPOS>BOND
     1    2    1 ar   
     2    3    1 ar   
     3    4    1 ar   
     4    8    1 1    
     5    6    5 ar   
     6    7    5 ar   
     7    8    5 1    
     8    9    5 1    
     9   10    9 1    
    10   11   10 1    
    11   28   10 1    
    12   29   10 1    
    13   12   11 1    
    14   13   11 1    
    15   30   11 1    
    16   17   12 1    
    17   14   13 1    
    18   15   13 1    
    19   31   13 1    
    20   38   14 1    
    21   16   15 1    
    22   17   15 1    
    23   32   15 1    
    24   39   16 1    
    25   18   17 1    
    26   33   17 1    
    27   19   18 1    
    28   27   18 1    
    29   20   19 2    
    30   34   19 1    
    31   21   20 1    
    32   22   21 ar   
    33   27   21 ar   
    34   23   22 1    
    35   24   22 ar   
    36   35   23 1    
    37   36   23 1    
    38   25   24 ar   
    39   26   25 ar   
    40   37   25 1    
    41   27   26 ar   
@<TRIPOS>SUBSTRUCTURE
     1 ADP401      1 GROUP   
@<TRIPOS>SET

