#    Name: 4DC3_2_CAVITY_N1_6.mol2
#    Modification time : Mon Mar 10 13:42:58 2014

@<TRIPOS>MOLECULE
4DC3_2_CAVITY_N1_6.mol2
   88     0     6     0     0
SMALL
NO_CHARGES


@<TRIPOS>ATOM
      1 CA         10.1494  -19.7376   15.1065 C.3       5 GLY6        0.0000 
      2 O           9.1871  -18.7445   14.5253 O.2       2 ALA2        0.0000 
      3 OG         14.1497  -12.6093    9.0497 O.2       1 SER1        0.0000 
      4 OG         13.1874  -11.6162    8.4685 O.2       1 SER1        0.0000 
      5 CA         12.2252  -10.6231    7.8873 C.3       5 GLY6        0.0000 
      6 CA         15.0957  -14.3717    8.3432 C.3       5 GLY6        0.0000 
      7 CA         14.1334  -13.3786    7.7621 C.3       5 GLY6        0.0000 
      8 CA         13.1712  -12.3855    7.1809 C.3       5 GLY6        0.0000 
      9 NZ         16.0416  -16.1341    7.6368 N.2       3 LYS4        0.0000 
     10 NZ         15.0794  -15.1410    7.0556 N.2       3 LYS4        0.0000 
     11 CA         14.1171  -14.1479    6.4745 C.3       5 GLY6        0.0000 
     12 N          17.8430  -16.8561   15.0350 N.2       2 ALA2        0.0000 
     13 CA         16.8807  -15.8629   14.4539 C.3       5 GLY6        0.0000 
     14 CA         14.9562  -13.8767   13.2915 C.3       5 GLY6        0.0000 
     15 O          17.8267  -17.6253   13.7474 O.2       2 ALA2        0.0000 
     16 CA         13.9614  -14.4221   10.1351 C.3       5 GLY6        0.0000 
     17 CZ         12.9991  -13.4290    9.5540 C.ar      4 PHE5        0.0000 
     18 CZ         12.0369  -12.4359    8.9728 C.ar      4 PHE5        0.0000 
     19 CZ         11.0746  -11.4428    8.3916 C.ar      4 PHE5        0.0000 
     20 CA         14.9074  -16.1845    9.4287 C.3       5 GLY6        0.0000 
     21 DU         13.9451  -15.1914    8.8475 H         6 CUB7        0.0000 
     22 O          12.9828  -14.1983    8.2664 O.2       2 ALA2        0.0000 
     23 CA         12.0206  -13.2052    7.6852 C.3       5 GLY6        0.0000 
     24 CA         11.0583  -12.2121    7.1040 C.3       5 GLY6        0.0000 
     25 N          15.8533  -17.9470    8.7223 N.2       2 ALA2        0.0000 
     26 NZ         14.8911  -16.9538    8.1411 N.2       3 LYS4        0.0000 
     27 O          13.9288  -15.9607    7.5599 O.2       2 ALA2        0.0000 
     28 CA         12.9666  -14.9676    6.9787 C.3       5 GLY6        0.0000 
     29 CA         12.0043  -13.9745    6.3976 C.3       5 GLY6        0.0000 
     30 N          15.7465  -15.9134   16.2458 N.2       2 ALA2        0.0000 
     31 CA         14.7842  -14.9202   15.6646 C.3       5 GLY6        0.0000 
     32 CA         13.8219  -13.9271   15.0834 C.3       5 GLY6        0.0000 
     33 DU         16.6924  -17.6758   15.5393 H         6 CUB7        0.0000 
     34 DU         15.7302  -16.6826   14.9582 H         6 CUB7        0.0000 
     35 CA         14.7679  -15.6895   14.3770 C.3       5 GLY6        0.0000 
     36 CA         13.8057  -14.6964   13.7958 C.3       5 GLY6        0.0000 
     37 N          17.6384  -19.4382   14.8329 N.2       2 ALA2        0.0000 
     38 CA         16.6762  -18.4450   14.2517 C.3       5 GLY6        0.0000 
     39 CA         15.7139  -17.4519   13.6705 C.3       5 GLY6        0.0000 
     40 CA         14.7516  -16.4588   13.0894 C.3       5 GLY6        0.0000 
     41 CA         13.7894  -15.4657   12.5082 C.3       5 GLY6        0.0000 
     42 CZ         12.8271  -14.4726   11.9270 C.ar      4 PHE5        0.0000 
     43 O          15.6976  -18.2212   12.3829 O.2       2 ALA2        0.0000 
     44 CA         14.7354  -17.2281   11.8018 C.3       5 GLY6        0.0000 
     45 CA         13.7731  -16.2350   11.2206 C.3       5 GLY6        0.0000 
     46 CZ         12.8108  -15.2418   10.6394 C.ar      4 PHE5        0.0000 
     47 NZ         14.7191  -17.9974   10.5142 N.2       3 LYS4        0.0000 
     48 NZ         13.7568  -17.0042    9.9330 N.2       3 LYS4        0.0000 
     49 CA         12.7945  -16.0111    9.3518 C.3       5 GLY6        0.0000 
     50 CA         11.8323  -15.0180    8.7706 C.3       5 GLY6        0.0000 
     51 O          10.8700  -14.0249    8.1895 O.2       2 ALA2        0.0000 
     52 CZ          9.9078  -13.0318    7.6083 C.ar      4 PHE5        0.0000 
     53 NZ         13.7405  -17.7735    8.6454 N.2       3 LYS4        0.0000 
     54 O          12.7783  -16.7804    8.0642 O.2       2 ALA2        0.0000 
     55 O          14.5959  -16.7331   16.7500 O.2       2 ALA2        0.0000 
     56 N          13.6336  -15.7399   16.1689 N.2       2 ALA2        0.0000 
     57 DU         15.5419  -18.4955   16.0436 H         6 CUB7        0.0000 
     58 DU         14.5796  -17.5023   15.4624 H         6 CUB7        0.0000 
     59 N          13.6174  -16.5092   14.8813 N.2       2 ALA2        0.0000 
     60 N          12.6551  -15.5161   14.3001 N.2       2 ALA2        0.0000 
     61 N          16.4879  -20.2579   15.3372 N.2       2 ALA2        0.0000 
     62 O          15.5256  -19.2647   14.7560 O.2       2 ALA2        0.0000 
     63 DU         14.5633  -18.2716   14.1748 H         6 CUB7        0.0000 
     64 DU         13.6011  -17.2785   13.5937 H         6 CUB7        0.0000 
     65 N          12.6388  -16.2854   13.0125 N.2       2 ALA2        0.0000 
     66 O          14.5471  -19.0409   12.8872 O.2       2 ALA2        0.0000 
     67 NZ         13.5848  -18.0478   12.3060 N.2       3 LYS4        0.0000 
     68 NZ         12.6225  -17.0547   11.7249 N.2       3 LYS4        0.0000 
     69 CZ         11.6603  -16.0615   11.1437 C.ar      4 PHE5        0.0000 
     70 O          12.4831  -16.5596   16.6732 O.2       2 ALA2        0.0000 
     71 O          14.3913  -19.3152   16.5479 O.2       2 ALA2        0.0000 
     72 O          13.4291  -18.3220   15.9667 O.2       2 ALA2        0.0000 
     73 N          12.4668  -17.3289   15.3855 N.2       2 ALA2        0.0000 
     74 N          15.3373  -21.0776   15.8415 N.2       2 ALA2        0.0000 
     75 O          14.3750  -20.0844   15.2603 O.2       2 ALA2        0.0000 
     76 O          13.4128  -19.0913   14.6791 O.2       2 ALA2        0.0000 
     77 NZ         12.4505  -18.0982   14.0979 N.2       3 LYS4        0.0000 
     78 NZ         11.4883  -17.1051   13.5168 N.2       3 LYS4        0.0000 
     79 CZ         10.5260  -16.1120   12.9356 C.ar      4 PHE5        0.0000 
     80 O          13.3965  -19.8606   13.3915 O.2       2 ALA2        0.0000 
     81 NZ         12.4342  -18.8675   12.8103 N.2       3 LYS4        0.0000 
     82 O          12.2785  -19.1417   16.4710 O.2       2 ALA2        0.0000 
     83 NZ         11.3162  -18.1486   15.8898 N.2       3 LYS4        0.0000 
     84 N          10.3540  -17.1555   15.3087 N.2       2 ALA2        0.0000 
     85 CA         12.2622  -19.9110   15.1834 C.3       5 GLY6        0.0000 
     86 NZ         11.3000  -18.9179   14.6022 N.2       3 LYS4        0.0000 
     87 NZ         10.3377  -17.9248   14.0210 N.2       3 LYS4        0.0000 
     88 CA          9.3754  -16.9317   13.4399 C.3       5 GLY6        0.0000 
@<TRIPOS>BOND
@<TRIPOS>SUBSTRUCTURE
     1 SER1        3 GROUP   
     2 ALA2        2 GROUP   
     3 LYS4        9 GROUP   
     4 PHE5       17 GROUP   
     5 GLY6        1 GROUP   
     6 CUB7       21 GROUP   
@<TRIPOS>SET

