#    Name: 4dc3_2FA_2_INTS_M
#    Modification time : Tue Mar 25 09:35:40 2014

@<TRIPOS>MOLECULE
4dc3_2FA_2_INTS_M
   64     0     9     0     0
SMALL
NO_CHARGES


@<TRIPOS>ATOM
      1 O          12.7580  -18.7960   10.5465 O.2       1 ALC1        0.0000 
      2 O          13.7090  -18.1010   11.2570 O.2       7 ALL1        0.0000 
      3 O          11.8070  -19.4910    9.8360 O.2       4 ALP1        0.0000 
      4 CA         14.8840  -19.6330   10.6590 C.3       3 GLC5        0.0000 
      5 CA         14.7440  -17.7370   10.3490 C.3       9 GLL5        0.0000 
      6 CA         15.0240  -21.5290   10.9690 C.3       6 GLP5        0.0000 
      7 CA         12.4645  -15.6465    6.3575 C.3       3 GLC5        0.0000 
      8 CA         13.6110  -15.2450    8.0660 C.3       9 GLL5        0.0000 
      9 CA         11.3180  -16.0480    4.6490 C.3       6 GLP5        0.0000 
     10 CA         11.6625  -16.2655    7.9670 C.3       3 GLC5        0.0000 
     11 CA          9.7140  -17.2860    7.8680 C.3       6 GLP5        0.0000 
     12 CA         10.8480  -14.7720    8.5650 C.3       3 GLC5        0.0000 
     13 CA         12.2700  -13.1210    8.0430 C.3       9 GLL5        0.0000 
     14 CA          9.4260  -16.4230    9.0870 C.3       6 GLP5        0.0000 
     15 N          10.7230  -14.9590    7.0875 N.am      2 SEC2        0.0000 
     16 N          11.1710  -13.4470    7.3840 N.am      8 SEL2        0.0000 
     17 N          10.2750  -16.4710    6.7910 N.am      5 SEP2        0.0000 
     18 CA         11.1370   -9.3160    6.9560 C.3       3 GLC5        0.0000 
     19 CA         11.4000  -10.8590    8.2970 C.3       9 GLL5        0.0000 
     20 CA         10.8740   -7.7730    5.6150 C.3       6 GLP5        0.0000 
     21 CA          9.6070  -11.1965    8.9655 C.3       3 GLC5        0.0000 
     22 CA          7.8140  -11.5340    9.6340 C.3       6 GLP5        0.0000 
     23 O          10.1990   -8.7575    9.0295 O.2       1 ALC1        0.0000 
     24 O          11.5300   -9.4140    8.8080 O.2       7 ALL1        0.0000 
     25 O           8.8680   -8.1010    9.2510 O.2       4 ALP1        0.0000 
     26 CA         13.9135  -10.8835    9.8975 C.3       3 GLC5        0.0000 
     27 CA         12.4390  -11.8170    8.5300 C.3       9 GLL5        0.0000 
     28 CA         15.3880   -9.9500   11.2650 C.3       6 GLP5        0.0000 
     29 N          14.6830  -10.8635    8.6385 N.am      2 SEC2        0.0000 
     30 N          13.6380  -11.7740    9.1520 N.am      8 SEL2        0.0000 
     31 N          15.7280   -9.9530    8.1250 N.am      5 SEP2        0.0000 
     32 CA         15.5835  -13.8175    6.5675 C.3       3 GLC5        0.0000 
     33 CA         15.0060  -15.5430    7.5290 C.3       9 GLL5        0.0000 
     34 CA         16.1610  -12.0920    5.6060 C.3       6 GLP5        0.0000 
     35 N          13.8740  -15.9005    5.2505 N.am      2 SEC2        0.0000 
     36 N          15.0890  -15.2820    6.1440 N.am      8 SEL2        0.0000 
     37 N          12.6590  -16.5190    4.3570 N.am      5 SEP2        0.0000 
     38 O          16.0545  -15.3835    5.4540 O.2       1 ALC1        0.0000 
     39 O          15.0890  -15.2820    6.1440 O.2       7 ALL1        0.0000 
     40 O          17.0200  -15.4850    4.7640 O.2       4 ALP1        0.0000 
     41 O          16.1240  -16.4520    5.6985 O.2       1 ALC1        0.0000 
     42 O          17.1590  -17.6220    5.2530 O.2       4 ALP1        0.0000 
     43 N          13.9545  -18.9015    6.5865 N.am      2 SEC2        0.0000 
     44 N          14.9140  -17.8530    6.7980 N.am      8 SEL2        0.0000 
     45 N          12.9950  -19.9500    6.3750 N.am      5 SEP2        0.0000 
     46 O          16.0365  -17.7375    6.0255 O.2       1 ALC1        0.0000 
     47 O          14.9140  -17.8530    6.7980 O.2       7 ALL1        0.0000 
     48 CA         15.6333  -16.1160   10.6613 C.3       3 GLC5        0.0000 
     49 CA         14.1810  -17.2630    9.0320 C.3       9 GLL5        0.0000 
     50 CA         16.8040  -14.7320   11.6320 C.3       6 GLP5        0.0000 
     51 CA          9.0222  -11.9438    5.3912 C.3       3 GLC5        0.0000 
     52 CA         10.2050  -12.5130    7.1810 C.3       9 GLL5        0.0000 
     53 CA          8.3930  -11.1990    3.9380 C.3       6 GLP5        0.0000 
     54 CA         11.1553  -12.1827    5.8228 C.3       3 GLC5        0.0000 
     55 CA          9.0980  -12.8640    6.5080 C.3       9 GLL5        0.0000 
     56 CA         12.6590  -11.6770    4.8010 C.3       6 GLP5        0.0000 
     57 CA         10.4848  -14.3682    5.7468 C.3       3 GLC5        0.0000 
     58 CA          9.5388  -14.5557    7.9657 C.3       3 GLC5        0.0000 
     59 CA          8.7327  -12.1113    8.2393 C.3       3 GLC5        0.0000 
     60 CA         12.2681  -11.6705    6.5464 C.3       3 GLC5        0.0000 
     61 CA         13.1397  -10.0260    7.4953 C.3       3 GLC5        0.0000 
     62 CA         14.3600   -8.7140    6.5770 C.3       6 GLP5        0.0000 
     63 CA         16.4330  -15.4292    8.9275 C.3       3 GLC5        0.0000 
     64 CA         17.7580  -14.5780   10.1320 C.3       6 GLP5        0.0000 
@<TRIPOS>BOND
@<TRIPOS>SUBSTRUCTURE
     1 ALC1        1 GROUP        1 X    ALC  0     ROOT ALC X 1
     2 SEC2       15 GROUP        1 X    SEC  0     **** SEC X 2
     3 GLC5        4 GROUP        1 X    GLC  0     **** GLC X 6
     4 ALP1        3 GROUP        1 Y    ALP  0     ROOT ALP Y 8
     5 SEP2       17 GROUP        1 Y    SEP  0     **** SEP Y 9
     6 GLP5        6 GROUP        1 Y    GLP  0     **** GLP Y 13
     7 ALL1        2 GROUP        1 Z    ALL  0     ROOT ALL Z 15
     8 SEL2       16 GROUP        1 Z    SEL  0     **** SEL Z 16
     9 GLL5        5 GROUP        1 Z    GLL  0     **** GLL Z 20
@<TRIPOS>SET

