#    Name: 4dc3_2FA_2_ligand
#    Modification time : Tue Mar 25 09:35:40 2014

@<TRIPOS>MOLECULE
4dc3_2FA_2_ligand
   32    34     1     0     0
SMALL
NO_CHARGES


@<TRIPOS>ATOM
      1 O5'        13.7090  -18.1010   11.2570 O.3       1 2FA401      0.0000 
      2 C5'        14.7440  -17.7370   10.3490 C.3       1 2FA401      0.0000 
      3 C4'        14.1810  -17.2630    9.0320 C.3       1 2FA401      0.0000 
      4 O4'        13.4940  -16.0090    9.2340 O.3       1 2FA401      0.0000 
      5 C1'        13.6110  -15.2450    8.0660 C.3       1 2FA401      0.0000 
      6 N9         13.3990  -13.8380    8.4030 N.pl3     1 2FA401      0.0000 
      7 C4         12.2700  -13.1210    8.0430 C.ar      1 2FA401      0.0000 
      8 N3         11.1710  -13.4470    7.3840 N.ar      1 2FA401      0.0000 
      9 C2         10.2050  -12.5130    7.1810 C.ar      1 2FA401      0.0000 
     10 F           9.0980  -12.8640    6.5080 F         1 2FA401      0.0000 
     11 N1         10.3320  -11.2420    7.6330 N.ar      1 2FA401      0.0000 
     12 C6         11.4000  -10.8590    8.2970 C.ar      1 2FA401      0.0000 
     13 N6         11.5300   -9.4140    8.8080 N.pl3     1 2FA401      0.0000 
     14 C5         12.4390  -11.8170    8.5300 C.ar      1 2FA401      0.0000 
     15 N7         13.6380  -11.7740    9.1520 N.2       1 2FA401      0.0000 
     16 C8         14.2170  -13.0260    9.0620 C.2       1 2FA401      0.0000 
     17 C2'        15.0060  -15.5430    7.5290 C.3       1 2FA401      0.0000 
     18 O2'        15.0890  -15.2820    6.1440 O.3       1 2FA401      0.0000 
     19 C3'        15.2100  -17.0180    7.9170 C.3       1 2FA401      0.0000 
     20 O3'        14.9140  -17.8530    6.7980 O.3       1 2FA401      0.0000 
     21 H          15.4185  -18.5889   10.1448 H         1 2FA401      0.0000 
     22 H          15.3750  -16.9281   10.7611 H         1 2FA401      0.0000 
     23 H          13.4644  -17.9978    8.6629 H         1 2FA401      0.0000 
     24 H          12.8969  -15.5729    7.3287 H         1 2FA401      0.0000 
     25 H          10.7664   -8.8031    8.5992 H         1 2FA401      0.0000 
     26 H          12.3680   -9.1982    9.3092 H         1 2FA401      0.0000 
     27 H          15.0849  -13.2451    9.4320 H         1 2FA401      0.0000 
     28 H          15.6957  -14.9624    8.1226 H         1 2FA401      0.0000 
     29 H          16.1718  -17.1379    8.3067 H         1 2FA401      0.0000 
     30 H          12.9962  -18.5091   10.6866 H         1 2FA401      0.0000 
     31 H          15.8079  -15.8909    5.8086 H         1 2FA401      0.0000 
     32 H          15.8040  -18.1649    6.4654 H         1 2FA401      0.0000 
@<TRIPOS>BOND
     1    2    1 1    
     2   30    1 1    
     3    3    2 1    
     4   21    2 1    
     5   22    2 1    
     6    4    3 1    
     7   19    3 1    
     8   23    3 1    
     9    5    4 1    
    10    6    5 1    
    11   17    5 1    
    12   24    5 1    
    13    7    6 1    
    14   16    6 1    
    15    8    7 ar   
    16   14    7 ar   
    17    9    8 ar   
    18   10    9 1    
    19   11    9 ar   
    20   12   11 ar   
    21   13   12 1    
    22   14   12 ar   
    23   25   13 1    
    24   26   13 1    
    25   15   14 1    
    26   16   15 2    
    27   27   16 1    
    28   18   17 1    
    29   19   17 1    
    30   28   17 1    
    31   31   18 1    
    32   20   19 1    
    33   29   19 1    
    34   32   20 1    
@<TRIPOS>SUBSTRUCTURE
     1 2FA401      1 GROUP   
@<TRIPOS>SET

