#    Name: 2re8_GSU_1_INTS_M
#    Modification time : Mon Mar 24 23:43:43 2014

@<TRIPOS>MOLECULE
2re8_GSU_1_INTS_M
   75     0    15     0     0
SMALL
NO_CHARGES


@<TRIPOS>ATOM
      1 CA         38.2070   23.4175   18.3615 C.3       5 GLC5        0.0000 
      2 CA         37.5380   25.4250   18.5490 C.3      15 GLL5        0.0000 
      3 CA         38.8760   21.4100   18.1740 C.3      10 GLP5        0.0000 
      4 CA         35.6925   24.7385   18.5645 C.3       5 GLC5        0.0000 
      5 CA         33.8470   24.0520   18.5800 C.3      10 GLP5        0.0000 
      6 CA         37.7470   27.3040   19.0820 C.3       5 GLC5        0.0000 
      7 CA         37.9560   29.1830   19.6150 C.3      10 GLP5        0.0000 
      8 CA         37.1280   26.0200   20.3530 C.3       5 GLC5        0.0000 
      9 CA         36.7180   26.6150   22.1570 C.3      10 GLP5        0.0000 
     10 OD1        46.7980   32.6435   12.6740 O.co2     3 ASC3        0.0000 
     11 OD1        46.6210   31.5510   13.7420 O.co2    13 ASL3        0.0000 
     12 OD1        46.9750   33.7360   11.6060 O.co2     8 ASP3        0.0000 
     13 O          45.8710   30.9380   12.5035 O.2       1 ALC1        0.0000 
     14 O          46.6210   31.5510   13.7420 O.2      11 ALL1        0.0000 
     15 O          45.1210   30.3250   11.2650 O.2       6 ALP1        0.0000 
     16 O          46.7980   32.6435   12.6740 O.2       1 ALC1        0.0000 
     17 O          46.9750   33.7360   11.6060 O.2       6 ALP1        0.0000 
     18 CA         44.8485   32.2970   16.7270 C.3       5 GLC5        0.0000 
     19 CA         45.5510   31.6070   14.7530 C.3      15 GLL5        0.0000 
     20 CA         44.1460   32.9870   18.7010 C.3      10 GLP5        0.0000 
     21 CA         43.9695   33.1690   16.7250 C.3       5 GLC5        0.0000 
     22 CA         43.7930   33.3510   14.7490 C.3      15 GLL5        0.0000 
     23 NZ         40.9520   33.6590   12.5410 N.4       4 LYC4        0.0000 
     24 NZ         41.6460   32.8990   13.8380 N.4      14 LYL4        0.0000 
     25 NZ         39.3160   33.6130   10.7630 N.4       9 LYP4        0.0000 
     26 N          40.9520   33.6590   12.5410 N.am      2 SEC2        0.0000 
     27 N          41.6460   32.8990   13.8380 N.am     12 SEL2        0.0000 
     28 N          40.2580   34.4190   11.2440 N.am      7 SEP2        0.0000 
     29 NZ         40.9280   36.1455   15.0420 N.4       4 LYC4        0.0000 
     30 NZ         41.8060   34.7600   14.9990 N.4      14 LYL4        0.0000 
     31 NZ         40.0500   37.5310   15.0850 N.4       9 LYP4        0.0000 
     32 N          47.0120   27.3570   13.1915 N.am      2 SEC2        0.0000 
     33 N          46.0860   26.7860   14.2130 N.am     12 SEL2        0.0000 
     34 N          47.9380   27.9280   12.1700 N.am      7 SEP2        0.0000 
     35 N          46.9990   25.7805   14.8955 N.am      2 SEC2        0.0000 
     36 N          47.9120   24.7750   15.5780 N.am      7 SEP2        0.0000 
     37 CA         44.5375   27.7210   12.6595 C.3       5 GLC5        0.0000 
     38 CA         43.3880   27.7450   14.0470 C.3      15 GLL5        0.0000 
     39 CA         45.6870   27.6970   11.2720 C.3      10 GLP5        0.0000 
     40 CA         39.8960   27.1775   14.0470 C.3       5 GLC5        0.0000 
     41 CA         41.9170   28.0880   14.3370 C.3      15 GLL5        0.0000 
     42 CA         37.8750   26.2670   13.7570 C.3      10 GLP5        0.0000 
     43 CA         41.7875   25.8285   15.9745 C.3       5 GLC5        0.0000 
     44 CA         40.6390   27.7040   16.2410 C.3      15 GLL5        0.0000 
     45 CA         42.9360   23.9530   15.7080 C.3      10 GLP5        0.0000 
     46 CA         39.2570   26.9855   14.9990 C.3       5 GLC5        0.0000 
     47 N          37.2110   24.4615   20.7740 N.am      2 SEC2        0.0000 
     48 N          38.0150   24.6880   19.5670 N.am     12 SEL2        0.0000 
     49 N          36.4070   24.2350   21.9810 N.am      7 SEP2        0.0000 
     50 CA         37.6340   23.3315   20.4955 C.3       5 GLC5        0.0000 
     51 CA         39.3320   24.6580   19.8660 C.3      15 GLL5        0.0000 
     52 CA         35.9360   22.0050   21.1250 C.3      10 GLP5        0.0000 
     53 O          38.9990   23.1550   22.0975 O.2       1 ALC1        0.0000 
     54 O          39.7890   23.8870   20.9180 O.2      11 ALL1        0.0000 
     55 O          38.2090   22.4230   23.2770 O.2       6 ALP1        0.0000 
     56 N          39.3590   31.0585   17.6480 N.am      2 SEC2        0.0000 
     57 N          40.3880   30.0730   16.9570 N.am     12 SEL2        0.0000 
     58 N          38.3300   32.0440   18.3390 N.am      7 SEP2        0.0000 
     59 O          40.2150   30.2565   18.3060 O.2       1 ALC1        0.0000 
     60 O          40.3880   30.0730   16.9570 O.2      11 ALL1        0.0000 
     61 O          40.0420   30.4400   19.6550 O.2       6 ALP1        0.0000 
     62 CA         43.2840   32.2115   12.6395 C.3       5 GLC5        0.0000 
     63 CA         42.5430   31.7150   10.8580 C.3      10 GLP5        0.0000 
     64 CA         45.2193   34.1262   14.7405 C.3       5 GLC5        0.0000 
     65 CA         44.2570   32.0650   14.0930 C.3      15 GLL5        0.0000 
     66 CA         46.0900   35.6590   14.8950 C.3      10 GLP5        0.0000 
     67 CA         41.7092   26.8747   12.7895 C.3       5 GLC5        0.0000 
     68 CA         40.7660   25.8330   11.3870 C.3      10 GLP5        0.0000 
     69 CA         42.7943   25.9348   14.9500 C.3       5 GLC5        0.0000 
     70 CA         38.9535   27.5010   19.0740 C.3       5 GLC5        0.0000 
     71 CA         39.6710   26.1970   18.0000 C.3      15 GLL5        0.0000 
     72 CA         39.3287   23.2297   18.8200 C.3       5 GLC5        0.0000 
     73 CA         40.2310   25.4410   19.0660 C.3      15 GLL5        0.0000 
     74 CA         39.0132   25.9282   20.8690 C.3       5 GLC5        0.0000 
     75 CA         38.2450   26.8070   22.2720 C.3      10 GLP5        0.0000 
@<TRIPOS>BOND
@<TRIPOS>SUBSTRUCTURE
     1 ALC1       13 GROUP        1 X    ALC  0     ROOT ALC X 1
     2 SEC2       26 GROUP        1 X    SEC  0     **** SEC X 2
     3 ASC3       10 GROUP        1 X    ASC  0     **** ASC X 3
     4 LYC4       23 GROUP        1 X    LYC  0     **** LYC X 4
     5 GLC5        1 GROUP        1 X    GLC  0     **** GLC X 6
     6 ALP1       15 GROUP        1 Y    ALP  0     ROOT ALP Y 8
     7 SEP2       28 GROUP        1 Y    SEP  0     **** SEP Y 9
     8 ASP3       12 GROUP        1 Y    ASP  0     **** ASP Y 10
     9 LYP4       25 GROUP        1 Y    LYP  0     **** LYP Y 11
    10 GLP5        3 GROUP        1 Y    GLP  0     **** GLP Y 13
    11 ALL1       14 GROUP        1 Z    ALL  0     ROOT ALL Z 15
    12 SEL2       27 GROUP        1 Z    SEL  0     **** SEL Z 16
    13 ASL3       11 GROUP        1 Z    ASL  0     **** ASL Z 17
    14 LYL4       24 GROUP        1 Z    LYL  0     **** LYL Z 18
    15 GLL5        2 GROUP        1 Z    GLL  0     **** GLL Z 20
@<TRIPOS>SET

