#    Name: 2re8_GSU_1_ligand
#    Modification time : Mon Mar 24 23:43:43 2014

@<TRIPOS>MOLECULE
2re8_GSU_1_ligand
   53    55     1     0     0
SMALL
NO_CHARGES


@<TRIPOS>ATOM
      1 C2         37.5380   25.4250   18.5490 C.ar      1 GSU998      0.0000 
      2 S          45.5480   27.6060   15.2370 S.o2      1 GSU998      0.0000 
      3 N          46.6210   31.5510   13.7420 N.4       1 GSU998      0.0000 
      4 CA         45.5510   31.6070   14.7530 C.3       1 GSU998      0.0000 
      5 CB         44.2570   32.0650   14.0930 C.3       1 GSU998      0.0000 
      6 CG         43.7930   33.3510   14.7490 C.3       1 GSU998      0.0000 
      7 CD         42.3370   33.6420   14.4920 C.2       1 GSU998      0.0000 
      8 OE1        41.6460   32.8990   13.8380 O.co2     1 GSU998      0.0000 
      9 OE2        41.8060   34.7600   14.9990 O.co2     1 GSU998      0.0000 
     10 C          45.2990   30.2450   15.3090 C.2       1 GSU998      0.0000 
     11 O          44.6220   30.1260   16.3030 O.2       1 GSU998      0.0000 
     12 N10        45.8160   29.1580   14.6950 N.am      1 GSU998      0.0000 
     13 O1S        46.0090   27.5700   16.5680 O.2       1 GSU998      0.0000 
     14 O2S        46.0860   26.7860   14.2130 O.2       1 GSU998      0.0000 
     15 O5'        44.0420   27.2710   15.2640 O.3       1 GSU998      0.0000 
     16 C5'        43.3880   27.7450   14.0470 C.3       1 GSU998      0.0000 
     17 C4'        41.9170   28.0880   14.3370 C.3       1 GSU998      0.0000 
     18 O4'        41.3990   27.0820   15.1880 O.3       1 GSU998      0.0000 
     19 C1'        40.6390   27.7040   16.2410 C.3       1 GSU998      0.0000 
     20 N9         40.7210   26.8270   17.4050 N.pl3     1 GSU998      0.0000 
     21 C4         39.6710   26.1970   18.0000 C.ar      1 GSU998      0.0000 
     22 N3         38.3420   26.1600   17.7800 N.ar      1 GSU998      0.0000 
     23 N1         38.0150   24.6880   19.5670 N.ar      1 GSU998      0.0000 
     24 C6         39.3320   24.6580   19.8660 C.ar      1 GSU998      0.0000 
     25 N6         39.7890   23.8870   20.9180 N.pl3     1 GSU998      0.0000 
     26 C5         40.2310   25.4410   19.0660 C.ar      1 GSU998      0.0000 
     27 N7         41.5720   25.6670   19.0540 N.2       1 GSU998      0.0000 
     28 C8         41.8610   26.4740   18.0870 C.2       1 GSU998      0.0000 
     29 C2'        41.2910   29.0950   16.4430 C.3       1 GSU998      0.0000 
     30 O2'        40.3880   30.0730   16.9570 O.3       1 GSU998      0.0000 
     31 C3'        41.8400   29.4400   15.0450 C.3       1 GSU998      0.0000 
     32 O3'        40.9230   30.2920   14.3630 O.3       1 GSU998      0.0000 
     33 H          36.4987   25.4185   18.3571 H         1 GSU998      0.0000 
     34 H          45.7934   32.2803   15.5360 H         1 GSU998      0.0000 
     35 H          43.5003   31.2997   14.2169 H         1 GSU998      0.0000 
     36 H          44.4335   32.2377   13.0381 H         1 GSU998      0.0000 
     37 H          44.4038   34.1854   14.3732 H         1 GSU998      0.0000 
     38 H          43.9656   33.2824   15.8335 H         1 GSU998      0.0000 
     39 H          46.4056   29.1518   13.8643 H         1 GSU998      0.0000 
     40 H          43.4091   26.9815   13.2659 H         1 GSU998      0.0000 
     41 H          43.8751   28.6443   13.6631 H         1 GSU998      0.0000 
     42 H          41.3965   28.1470   13.4126 H         1 GSU998      0.0000 
     43 H          39.6320   27.8495   15.9238 H         1 GSU998      0.0000 
     44 H          40.7322   23.5622   20.8483 H         1 GSU998      0.0000 
     45 H          39.1368   23.7208   21.6576 H         1 GSU998      0.0000 
     46 H          42.7507   26.8133   17.8376 H         1 GSU998      0.0000 
     47 H          42.1540   28.9353   17.0824 H         1 GSU998      0.0000 
     48 H          42.8042   29.8302   15.1484 H         1 GSU998      0.0000 
     49 H          47.4904   31.2547   14.1374 H         1 GSU998      0.0000 
     50 H          46.4018   30.9125   13.0042 H         1 GSU998      0.0000 
     51 H          46.7800   32.4434   13.3197 H         1 GSU998      0.0000 
     52 H          40.4701   30.0037   17.9511 H         1 GSU998      0.0000 
     53 H          41.4796   31.0481   14.0186 H         1 GSU998      0.0000 
@<TRIPOS>BOND
     1   22    1 ar   
     2   23    1 ar   
     3   33    1 1    
     4   12    2 1    
     5   13    2 2    
     6   14    2 2    
     7   15    2 1    
     8    4    3 1    
     9   49    3 1    
    10   50    3 1    
    11   51    3 1    
    12    5    4 1    
    13   10    4 1    
    14   34    4 1    
    15    6    5 1    
    16   35    5 1    
    17   36    5 1    
    18    7    6 1    
    19   37    6 1    
    20   38    6 1    
    21    8    7 ar   
    22    9    7 ar   
    23   11   10 2    
    24   12   10 am   
    25   39   12 1    
    26   16   15 1    
    27   17   16 1    
    28   40   16 1    
    29   41   16 1    
    30   18   17 1    
    31   31   17 1    
    32   42   17 1    
    33   19   18 1    
    34   20   19 1    
    35   29   19 1    
    36   43   19 1    
    37   21   20 1    
    38   28   20 1    
    39   22   21 ar   
    40   26   21 ar   
    41   24   23 ar   
    42   25   24 1    
    43   26   24 ar   
    44   44   25 1    
    45   45   25 1    
    46   27   26 1    
    47   28   27 2    
    48   46   28 1    
    49   30   29 1    
    50   31   29 1    
    51   47   29 1    
    52   52   30 1    
    53   32   31 1    
    54   48   31 1    
    55   53   32 1    
@<TRIPOS>SUBSTRUCTURE
     1 GSU998      1 GROUP   
@<TRIPOS>SET

