#    Name: 3MTW_1_CAVITY_N1_6.mol2
#    Modification time : Tue Mar 11 14:38:49 2014

@<TRIPOS>MOLECULE
3MTW_1_CAVITY_N1_6.mol2
   99     0     7     0     0
SMALL
NO_CHARGES


@<TRIPOS>ATOM
      1 CZ         31.4542  111.2510    5.9625 C.ar      5 PHE5        0.0000 
      2 N          28.1982  111.2020    5.1587 N.2       2 ALA2        0.0000 
      3 N          27.5668  112.5240    4.8365 N.2       2 ALA2        0.0000 
      4 O          26.9354  113.8459    4.5144 O.2       2 ALA2        0.0000 
      5 N          26.2545  111.8385    4.5957 N.2       2 ALA2        0.0000 
      6 N          25.6231  113.1604    4.2736 N.2       2 ALA2        0.0000 
      7 NZ         33.8184  119.4612    7.0823 N.2       4 LYS4        0.0000 
      8 CA         32.5061  118.7757    6.8414 C.3       6 GLY6        0.0000 
      9 CA         31.8747  120.0976    6.5193 C.3       6 GLY6        0.0000 
     10 CA         31.1938  118.0902    6.6006 C.3       6 GLY6        0.0000 
     11 N          30.5624  119.4122    6.2785 N.2       2 ALA2        0.0000 
     12 CZ         32.4070  112.1169    7.6484 C.ar      5 PHE5        0.0000 
     13 CZ         29.8815  117.4047    6.3598 C.ar      5 PHE5        0.0000 
     14 CZ         31.0947  111.4315    7.4076 C.ar      5 PHE5        0.0000 
     15 CA         29.2006  115.3973    6.4411 C.3       6 GLY6        0.0000 
     16 CA         29.7824  110.7460    7.1667 C.3       6 GLY6        0.0000 
     17 CA         29.1510  112.0679    6.8446 C.3       6 GLY6        0.0000 
     18 CA         28.5196  113.3899    6.5224 C.3       6 GLY6        0.0000 
     19 N          27.8883  114.7119    6.2003 N.2       2 ALA2        0.0000 
     20 DU         28.4701  110.0605    6.9259 H         7 CUB7        0.0000 
     21 CA         27.8387  111.3825    6.6038 C.3       6 GLY6        0.0000 
     22 CA         27.2073  112.7044    6.2816 C.3       6 GLY6        0.0000 
     23 N          26.5760  114.0264    5.9595 N.2       2 ALA2        0.0000 
     24 DU         26.5264  110.6970    6.3629 H         7 CUB7        0.0000 
     25 DU         25.8950  112.0190    6.0408 H         7 CUB7        0.0000 
     26 N          25.2637  113.3409    5.7186 N.2       2 ALA2        0.0000 
     27 DU         24.5827  111.3335    5.8000 H         7 CUB7        0.0000 
     28 N          23.9514  112.6555    5.4778 N.2       2 ALA2        0.0000 
     29 NZ         32.1466  118.9562    8.2865 N.2       4 LYS4        0.0000 
     30 NZ         30.8343  118.2707    8.0457 N.2       4 LYS4        0.0000 
     31 N          30.2029  119.5926    7.7235 N.2       2 ALA2        0.0000 
     32 CZ         30.1534  116.2633    8.1270 C.ar      5 PHE5        0.0000 
     33 OD1        29.5220  117.5852    7.8049 O.3       3 ASP3        0.0000 
     34 N          28.8906  118.9072    7.4827 N.2       2 ALA2        0.0000 
     35 CA         30.7353  111.6119    8.8526 C.3       6 GLY6        0.0000 
     36 CA         29.4725  114.2558    8.2083 C.3       6 GLY6        0.0000 
     37 CZ         28.8411  115.5778    7.8862 C.ar      5 PHE5        0.0000 
     38 N          28.2097  116.8997    7.5640 N.2       2 ALA2        0.0000 
     39 CA         29.4230  110.9265    8.6118 C.3       6 GLY6        0.0000 
     40 CA         28.7916  112.2484    8.2897 C.3       6 GLY6        0.0000 
     41 CA         28.1602  113.5704    7.9675 C.3       6 GLY6        0.0000 
     42 N          27.5288  114.8923    7.6454 N.2       2 ALA2        0.0000 
     43 DU         27.4793  111.5629    8.0488 H         7 CUB7        0.0000 
     44 DU         26.8479  112.8849    7.7267 H         7 CUB7        0.0000 
     45 N          26.2165  114.2069    7.4045 N.2       2 ALA2        0.0000 
     46 DU         25.5356  112.1994    7.4859 H         7 CUB7        0.0000 
     47 N          24.9042  113.5214    7.1637 N.2       2 ALA2        0.0000 
     48 N          24.2728  114.8433    6.8416 N.2       2 ALA2        0.0000 
     49 DU         24.2233  111.5140    7.2450 H         7 CUB7        0.0000 
     50 N          23.5919  112.8359    6.9229 N.2       2 ALA2        0.0000 
     51 NZ         29.1626  117.7657    9.2499 N.2       4 LYS4        0.0000 
     52 CA         29.1130  114.4363    9.6534 C.3       6 GLY6        0.0000 
     53 NZ         28.4816  115.7583    9.3313 N.2       4 LYS4        0.0000 
     54 OD1        27.8503  117.0802    9.0091 O.3       3 ASP3        0.0000 
     55 CA         29.0635  111.1069   10.0569 C.3       6 GLY6        0.0000 
     56 CA         28.4321  112.4289    9.7347 C.3       6 GLY6        0.0000 
     57 CA         27.8007  113.7508    9.4126 C.3       6 GLY6        0.0000 
     58 OD1        27.1693  115.0728    9.0904 O.3       3 ASP3        0.0000 
     59 N          26.5380  116.3948    8.7683 N.2       2 ALA2        0.0000 
     60 DU         27.7512  110.4215    9.8161 H         7 CUB7        0.0000 
     61 DU         27.1198  111.7434    9.4939 H         7 CUB7        0.0000 
     62 DU         26.4884  113.0654    9.1718 H         7 CUB7        0.0000 
     63 N          25.8570  114.3873    8.8496 N.2       2 ALA2        0.0000 
     64 N          25.2256  115.7093    8.5274 N.2       2 ALA2        0.0000 
     65 DU         26.4389  109.7360    9.5752 H         7 CUB7        0.0000 
     66 DU         24.5447  113.7019    8.6088 H         7 CUB7        0.0000 
     67 N          23.9133  115.0238    8.2866 N.2       2 ALA2        0.0000 
     68 DU         23.8638  111.6944    8.6901 H         7 CUB7        0.0000 
     69 OG         23.2324  113.0164    8.3679 O.2       1 SER1        0.0000 
     70 OG         22.6010  114.3383    8.0458 O.2       1 SER1        0.0000 
     71 DU         22.5515  111.0090    8.4493 H         7 CUB7        0.0000 
     72 OG         21.9201  112.3309    8.1271 O.2       1 SER1        0.0000 
     73 CA         29.3850  113.2948   11.4206 C.3       6 GLY6        0.0000 
     74 NZ         28.7536  114.6168   11.0985 N.2       4 LYS4        0.0000 
     75 OG         28.7041  111.2874   11.5019 O.2       1 SER1        0.0000 
     76 CA         28.0727  112.6094   11.1798 C.3       6 GLY6        0.0000 
     77 N          27.4413  113.9313   10.8576 N.2       2 ALA2        0.0000 
     78 OD1        26.8099  115.2533   10.5355 O.3       3 ASP3        0.0000 
     79 CA         27.3918  110.6019   11.2611 C.3       6 GLY6        0.0000 
     80 CA         26.7604  111.9239   10.9390 C.3       6 GLY6        0.0000 
     81 N          26.1290  113.2458   10.6168 N.2       2 ALA2        0.0000 
     82 NZ         25.4976  114.5678   10.2947 N.2       4 LYS4        0.0000 
     83 CA         26.0795  109.9165   11.0203 C.3       6 GLY6        0.0000 
     84 DU         25.4481  111.2384   10.6981 H         7 CUB7        0.0000 
     85 O          24.8167  112.5604   10.3760 O.2       2 ALA2        0.0000 
     86 DU         24.1853  113.8823   10.0538 H         7 CUB7        0.0000 
     87 OG         23.5539  115.2043    9.7317 O.2       1 SER1        0.0000 
     88 DU         24.1358  110.5530   10.4573 H         7 CUB7        0.0000 
     89 DU         23.5044  111.8749   10.1352 H         7 CUB7        0.0000 
     90 OG         22.8730  113.1969    9.8130 O.2       1 SER1        0.0000 
     91 OG         21.5607  112.5114    9.5722 O.2       1 SER1        0.0000 
     92 CA         27.0323  110.7824   12.7062 C.3       6 GLY6        0.0000 
     93 CA         25.7200  110.0969   12.4654 C.3       6 GLY6        0.0000 
     94 O          25.0886  111.4189   12.1432 O.2       2 ALA2        0.0000 
     95 O          24.4572  112.7408   11.8211 O.2       2 ALA2        0.0000 
     96 O          23.8258  114.0628   11.4989 O.2       2 ALA2        0.0000 
     97 N          23.7763  110.7334   11.9024 N.2       2 ALA2        0.0000 
     98 N          23.1449  112.0554   11.5802 N.2       2 ALA2        0.0000 
     99 OG         22.5135  113.3773   11.2581 O.2       1 SER1        0.0000 
@<TRIPOS>BOND
@<TRIPOS>SUBSTRUCTURE
     1 SER1       69 GROUP   
     2 ALA2        2 GROUP   
     3 ASP3       33 GROUP   
     4 LYS4        7 GROUP   
     5 PHE5        1 GROUP   
     6 GLY6        8 GROUP   
     7 CUB7       20 GROUP   
@<TRIPOS>SET

