#    Name: 3mtw_M3R_1_INTS_M
#    Modification time : Mon Mar 24 23:42:16 2014

@<TRIPOS>MOLECULE
3mtw_M3R_1_INTS_M
   47     0    15     0     0
SMALL
NO_CHARGES


@<TRIPOS>ATOM
      1 Zn         27.7045  117.0840   11.5095 Zn        4 ZIC7        0.0000 
      2 Zn         28.1990  117.1880   10.6490 Zn       14 ZIL7        0.0000 
      3 Zn         27.2100  116.9800   12.3700 Zn        9 ZIP7        0.0000 
      4 Zn         26.6630  118.4705    8.9460 Zn        4 ZIC7        0.0000 
      5 Zn         26.8770  117.6000    8.6010 Zn       14 ZIL7        0.0000 
      6 Zn         26.4490  119.3410    9.2910 Zn        9 ZIP7        0.0000 
      7 N          26.4250  117.3635    7.3050 N.am      2 SEC2        0.0000 
      8 N          26.8770  117.6000    8.6010 N.am     12 SEL2        0.0000 
      9 N          25.9730  117.1270    6.0090 N.am      7 SEP2        0.0000 
     10 N          29.8055  117.5850    4.3785 N.am      2 SEC2        0.0000 
     11 N          29.5870  116.7750    5.7160 N.am     12 SEL2        0.0000 
     12 N          30.0240  118.3950    3.0410 N.am      7 SEP2        0.0000 
     13 N          29.9775  116.1825    4.5590 N.am      2 SEC2        0.0000 
     14 N          30.3680  115.5900    3.4020 N.am      7 SEP2        0.0000 
     15 CA         31.7830  117.8880    6.0560 C.3       5 GLC5        0.0000 
     16 CA         31.2730  117.7990    8.2400 C.3      15 GLL5        0.0000 
     17 CA         32.2930  117.9770    3.8720 C.3      10 GLP5        0.0000 
     18 CA         31.6645  116.1575    9.7230 C.3       5 GLC5        0.0000 
     19 CA         32.0560  114.5160   11.2060 C.3      10 GLP5        0.0000 
     20 CA         32.7005  120.7510    6.5425 C.3       5 GLC5        0.0000 
     21 CA         31.9310  119.1310    7.8890 C.3      15 GLL5        0.0000 
     22 CA         33.4700  122.3710    5.1960 C.3      10 GLP5        0.0000 
     23 O          35.5310  119.0950    6.8685 O.2       1 ALC1        0.0000 
     24 O          34.3380  119.6160    7.6730 O.2      11 ALL1        0.0000 
     25 O          36.7240  118.5740    6.0640 O.2       6 ALP1        0.0000 
     26 OD1        35.5310  119.0950    6.8685 O.co2     3 ASC3        0.0000 
     27 OD1        34.9490  120.7240    8.0870 O.co2    13 ASL3        0.0000 
     28 OD1        36.7240  118.5740    6.0640 O.co2     8 ASP3        0.0000 
     29 O          33.5665  120.7905   10.3235 O.2       1 ALC1        0.0000 
     30 O          34.5240  121.2910    9.2010 O.2      11 ALL1        0.0000 
     31 O          32.6090  120.2900   11.4460 O.2       6 ALP1        0.0000 
     32 O          34.8175  122.7025    9.3970 O.2       1 ALC1        0.0000 
     33 O          35.1110  124.1140    9.5930 O.2       6 ALP1        0.0000 
     34 O          36.3535  119.9120    6.7460 O.2       1 ALC1        0.0000 
     35 O          35.9830  121.2500    7.4280 O.2      11 ALL1        0.0000 
     36 N          29.6790  118.6230    4.4570 N.am      2 SEC2        0.0000 
     37 N          29.3340  118.8510    5.8730 N.am     12 SEL2        0.0000 
     38 N          29.4180  120.2975    5.8495 N.am      2 SEC2        0.0000 
     39 N          29.5020  121.7440    5.8260 N.am      7 SEP2        0.0000 
     40 CA         31.2397  116.3080    7.2627 C.3       5 GLC5        0.0000 
     41 CA         29.7760  117.6810    7.9090 C.3      15 GLL5        0.0000 
     42 CA         31.9550  114.8760    6.4510 C.3      10 GLP5        0.0000 
     43 CA         32.6530  119.1400    5.8918 C.3       5 GLC5        0.0000 
     44 CA         32.6780  119.4340    3.9320 C.3      10 GLP5        0.0000 
     45 CA         32.9170  116.9945    7.4307 C.3       5 GLC5        0.0000 
     46 CA         33.3250  118.5610    7.8140 C.3      15 GLL5        0.0000 
     47 CA         33.2060  115.1430    7.0100 C.3      10 GLP5        0.0000 
@<TRIPOS>BOND
@<TRIPOS>SUBSTRUCTURE
     1 ALC1       23 GROUP        1 X    ALC  0     ROOT ALC X 1
     2 SEC2        7 GROUP        1 X    SEC  0     **** SEC X 2
     3 ASC3       26 GROUP        1 X    ASC  0     **** ASC X 3
     4 ZIC7        1 GROUP        1 X    ZIC  0     **** ZIC X 5
     5 GLC5       15 GROUP        1 X    GLC  0     **** GLC X 6
     6 ALP1       25 GROUP        1 Y    ALP  0     ROOT ALP Y 8
     7 SEP2        9 GROUP        1 Y    SEP  0     **** SEP Y 9
     8 ASP3       28 GROUP        1 Y    ASP  0     **** ASP Y 10
     9 ZIP7        3 GROUP        1 Y    ZIP  0     **** ZIP Y 12
    10 GLP5       17 GROUP        1 Y    GLP  0     **** GLP Y 13
    11 ALL1       24 GROUP        1 Z    ALL  0     ROOT ALL Z 15
    12 SEL2        8 GROUP        1 Z    SEL  0     **** SEL Z 16
    13 ASL3       27 GROUP        1 Z    ASL  0     **** ASL Z 17
    14 ZIL7        2 GROUP        1 Z    ZIL  0     **** ZIL Z 19
    15 GLL5       16 GROUP        1 Z    GLL  0     **** GLL Z 20
@<TRIPOS>SET

