#    Name: 3mtw_M3R_1_ligand
#    Modification time : Mon Mar 24 23:42:16 2014

@<TRIPOS>MOLECULE
3mtw_M3R_1_ligand
   32    31     1     0     0
SMALL
NO_CHARGES


@<TRIPOS>ATOM
      1 CP         26.8330  115.0640    9.5040 C.3       1 M3R430      0.0000 
      2 P          27.7320  116.5770    9.2810 P.3       1 M3R430      0.0000 
      3 OPA        28.1990  117.1880   10.6490 O.co2     1 M3R430      0.0000 
      4 OPB        26.8770  117.6000    8.6010 O.co2     1 M3R430      0.0000 
      5 N          29.1240  116.4370    8.4560 N.pl3     1 M3R430      0.0000 
      6 CA         29.7760  117.6810    7.9090 C.3       1 M3R430      0.0000 
      7 C          29.5640  117.7860    6.4100 C.2       1 M3R430      0.0000 
      8 OXT        29.5870  116.7750    5.7160 O.co2     1 M3R430      0.0000 
      9 CB         31.2730  117.7990    8.2400 C.3       1 M3R430      0.0000 
     10 CG         31.9310  119.1310    7.8890 C.3       1 M3R430      0.0000 
     11 CD         33.3250  118.5610    7.8140 C.3       1 M3R430      0.0000 
     12 NE         34.3380  119.6160    7.6730 N.pl3     1 M3R430      0.0000 
     13 CZ         34.9490  120.7240    8.0870 C.cat     1 M3R430      0.0000 
     14 NH2        34.5240  121.2910    9.2010 N.pl3     1 M3R430      0.0000 
     15 NH1        35.9830  121.2500    7.4280 N.pl3     1 M3R430      0.0000 
     16 O          29.3340  118.8510    5.8730 O.co2     1 M3R430      0.0000 
     17 H          29.4858  115.5514    8.3458 H         1 M3R430      0.0000 
     18 H          29.2747  118.5594    8.3636 H         1 M3R430      0.0000 
     19 H          31.8136  116.9827    7.7165 H         1 M3R430      0.0000 
     20 H          31.4088  117.6065    9.3250 H         1 M3R430      0.0000 
     21 H          31.8477  119.7818    8.6828 H         1 M3R430      0.0000 
     22 H          31.6160  119.4421    6.9591 H         1 M3R430      0.0000 
     23 H          33.3770  117.8665    6.9606 H         1 M3R430      0.0000 
     24 H          33.5143  117.9703    8.7242 H         1 M3R430      0.0000 
     25 H          34.9158  119.2765    6.5966 H         1 M3R430      0.0000 
     26 H          33.7825  120.8203    9.6792 H         1 M3R430      0.0000 
     27 H          34.9822  122.1396    9.4654 H         1 M3R430      0.0000 
     28 H          36.2626  120.7727    6.5949 H         1 M3R430      0.0000 
     29 H          36.3854  122.0742    7.8264 H         1 M3R430      0.0000 
     30 H          27.3854  114.3679    9.9627 H         1 M3R430      0.0000 
     31 H          26.0115  115.1983   10.0581 H         1 M3R430      0.0000 
     32 H          26.5375  114.6755    8.6312 H         1 M3R430      0.0000 
@<TRIPOS>BOND
     1    2    1 1    
     2   30    1 1    
     3   31    1 1    
     4   32    1 1    
     5    3    2 ar   
     6    4    2 ar   
     7    5    2 1    
     8    6    5 1    
     9   17    5 1    
    10    7    6 1    
    11    9    6 1    
    12   18    6 1    
    13    8    7 ar   
    14   16    7 ar   
    15   10    9 1    
    16   19    9 1    
    17   20    9 1    
    18   11   10 1    
    19   21   10 1    
    20   22   10 1    
    21   12   11 1    
    22   23   11 1    
    23   24   11 1    
    24   13   12 ar   
    25   25   12 1    
    26   14   13 ar   
    27   15   13 ar   
    28   26   14 1    
    29   27   14 1    
    30   28   15 1    
    31   29   15 1    
@<TRIPOS>SUBSTRUCTURE
     1 M3R430      1 GROUP   
@<TRIPOS>SET

