#    Name: 1wbv_LI3_1_INTS_M
#    Modification time : Tue Mar 25 08:54:01 2014

@<TRIPOS>MOLECULE
1wbv_LI3_1_INTS_M
   71     0     9     0     0
SMALL
NO_CHARGES


@<TRIPOS>ATOM
      1 CA          9.6405   18.7925   38.0355 C.3       3 GLC5        0.0000 
      2 CA          8.4050   18.4910   36.4830 C.3       9 GLL5        0.0000 
      3 CA         10.8760   19.0940   39.5880 C.3       6 GLP5        0.0000 
      4 CA          9.1395   18.1445   38.8845 C.3       3 GLC5        0.0000 
      5 CA          7.4030   17.1950   38.1810 C.3       9 GLL5        0.0000 
      6 CA          6.1625   13.3475   37.9030 C.3       3 GLC5        0.0000 
      7 CA          6.0370   15.2960   37.6020 C.3       9 GLL5        0.0000 
      8 CA          6.2880   11.3990   38.2040 C.3       6 GLP5        0.0000 
      9 CA          4.2425   14.2455   37.9920 C.3       3 GLC5        0.0000 
     10 CA          2.4480   13.1950   38.3820 C.3       6 GLP5        0.0000 
     11 N           3.6970   14.5805   36.3270 N.am      2 SEC2        0.0000 
     12 N           4.7170   13.9150   35.5760 N.am      8 SEL2        0.0000 
     13 N           2.6770   15.2460   37.0780 N.am      5 SEP2        0.0000 
     14 O           7.2510   15.4215   33.2905 O.2       1 ALC1        0.0000 
     15 O           6.2310   14.5220   34.0000 O.2       7 ALL1        0.0000 
     16 O           8.2710   16.3210   32.5810 O.2       4 ALP1        0.0000 
     17 CA          4.7745    9.1235   29.0550 C.3       3 GLC5        0.0000 
     18 CA          6.0630   10.5350   29.5840 C.3       9 GLL5        0.0000 
     19 CA          3.4860    7.7120   28.5260 C.3       6 GLP5        0.0000 
     20 CA          8.7990   11.5535   29.9750 C.3       3 GLC5        0.0000 
     21 CA          6.9810   11.1110   30.3670 C.3       9 GLL5        0.0000 
     22 CA         10.6170   11.9960   29.5830 C.3       6 GLP5        0.0000 
     23 CA          8.4795   13.1885   33.1760 C.3       3 GLC5        0.0000 
     24 CA          6.7100   12.8890   32.2890 C.3       9 GLL5        0.0000 
     25 CA         10.2490   13.4880   34.0630 C.3       6 GLP5        0.0000 
     26 CA          8.6155   13.6210   31.3560 C.3       3 GLC5        0.0000 
     27 CA         10.5210   14.3530   30.4230 C.3       6 GLP5        0.0000 
     28 CA          5.8745   13.0885   39.2585 C.3       3 GLC5        0.0000 
     29 CA          5.4610   14.7780   40.3130 C.3       9 GLL5        0.0000 
     30 CA          3.9545   13.9865   39.3475 C.3       3 GLC5        0.0000 
     31 CA          7.5090   14.0480   42.1780 C.3       3 GLC5        0.0000 
     32 CA          5.5990   14.4920   41.8040 C.3       9 GLL5        0.0000 
     33 CA          9.4190   13.6040   42.5520 C.3       6 GLP5        0.0000 
     34 CA          6.3205   14.1415   43.7775 C.3       3 GLC5        0.0000 
     35 CA          7.0420   13.7910   45.7510 C.3       6 GLP5        0.0000 
     36 CA          7.8815   15.1380   42.3990 C.3       3 GLC5        0.0000 
     37 CA          6.3440   16.6720   42.2460 C.3       9 GLL5        0.0000 
     38 CA          5.7755   16.5230   44.2085 C.3       3 GLC5        0.0000 
     39 CA          5.2070   16.3740   46.1710 C.3       6 GLP5        0.0000 
     40 CA          7.6745   17.4190   43.3550 C.3       3 GLC5        0.0000 
     41 CA          9.0050   18.1660   44.4640 C.3       6 GLP5        0.0000 
     42 CA          5.4195   17.4615   37.3957 C.3       3 GLC5        0.0000 
     43 CA          7.6350   17.4410   36.8400 C.3       9 GLL5        0.0000 
     44 CA          3.3200   17.6050   37.2810 C.3       6 GLP5        0.0000 
     45 CA          4.8155   16.6585   37.6870 C.3       3 GLC5        0.0000 
     46 CA          4.9980   16.8417   36.6688 C.3       3 GLC5        0.0000 
     47 CA          6.2710   15.5390   36.2440 C.3       9 GLL5        0.0000 
     48 CA          8.9232   17.1610   34.9036 C.3       3 GLC5        0.0000 
     49 CA          7.0810   16.6180   35.8690 C.3       9 GLL5        0.0000 
     50 CA         10.2960   17.0300   33.5420 C.3       6 GLP5        0.0000 
     51 CA          5.5425   12.2330   34.0613 C.3       3 GLC5        0.0000 
     52 CA          5.7770   13.6530   32.9750 C.3       9 GLL5        0.0000 
     53 CA          5.9840   10.8550   35.3240 C.3       6 GLP5        0.0000 
     54 CA          6.6385   11.9520   28.5747 C.3       3 GLC5        0.0000 
     55 CA          6.7550   13.0810   27.1740 C.3       6 GLP5        0.0000 
     56 CA          6.2415   11.6570   33.5498 C.3       3 GLC5        0.0000 
     57 CA          6.2880   12.0290   31.2620 C.3       9 GLL5        0.0000 
     58 CA          6.0240   12.8160   41.6947 C.3       3 GLC5        0.0000 
     59 CA          6.5180   10.9970   42.3310 C.3       6 GLP5        0.0000 
     60 CA          3.9910   15.9135   41.5028 C.3       3 GLC5        0.0000 
     61 CA          2.4520   17.1920   41.9470 C.3       6 GLP5        0.0000 
     62 CA          3.6400   14.1900   41.8308 C.3       3 GLC5        0.0000 
     63 CA          1.7500   13.7450   42.6030 C.3       6 GLP5        0.0000 
     64 CA          4.3483   17.0340   41.7323 C.3       3 GLC5        0.0000 
     65 CA          7.9669   14.7586   36.8216 C.3       3 GLC5        0.0000 
     66 CA          6.5850   16.1280   38.5840 C.3       9 GLL5        0.0000 
     67 CA          9.3710   13.5190   36.4470 C.3       6 GLP5        0.0000 
     68 CA          6.3744   13.9505   30.6309 C.3       3 GLC5        0.0000 
     69 CA          6.9930   15.2850   29.4430 C.3       6 GLP5        0.0000 
     70 CA          5.8210    9.8247   31.3904 C.3       3 GLC5        0.0000 
     71 CA          5.5780    8.2470   32.2460 C.3       6 GLP5        0.0000 
@<TRIPOS>BOND
@<TRIPOS>SUBSTRUCTURE
     1 ALC1       14 GROUP        1 X    ALC  0     ROOT ALC X 1
     2 SEC2       11 GROUP        1 X    SEC  0     **** SEC X 2
     3 GLC5        1 GROUP        1 X    GLC  0     **** GLC X 6
     4 ALP1       16 GROUP        1 Y    ALP  0     ROOT ALP Y 8
     5 SEP2       13 GROUP        1 Y    SEP  0     **** SEP Y 9
     6 GLP5        3 GROUP        1 Y    GLP  0     **** GLP Y 13
     7 ALL1       15 GROUP        1 Z    ALL  0     ROOT ALL Z 15
     8 SEL2       12 GROUP        1 Z    SEL  0     **** SEL Z 16
     9 GLL5        2 GROUP        1 Z    GLL  0     **** GLL Z 20
@<TRIPOS>SET

