#    Name: 1wbv_LI3_1_ligand
#    Modification time : Tue Mar 25 08:54:01 2014

@<TRIPOS>MOLECULE
1wbv_LI3_1_ligand
   43    46     1     0     0
SMALL
NO_CHARGES


@<TRIPOS>ATOM
      1 F1          8.4050   18.4910   36.4830 F         1 LI31355     0.0000 
      2 C2          7.6350   17.4410   36.8400 C.ar      1 LI31355     0.0000 
      3 C3          7.4030   17.1950   38.1810 C.ar      1 LI31355     0.0000 
      4 C4          6.5850   16.1280   38.5840 C.ar      1 LI31355     0.0000 
      5 C5          6.0370   15.2960   37.6020 C.ar      1 LI31355     0.0000 
      6 C6          6.2710   15.5390   36.2440 C.ar      1 LI31355     0.0000 
      7 C7          7.0810   16.6180   35.8690 C.ar      1 LI31355     0.0000 
      8 C8          5.6700   14.6100   35.2400 C.2       1 LI31355     0.0000 
      9 O9          4.7170   13.9150   35.5760 O.2       1 LI31355     0.0000 
     10 N10         6.2310   14.5220   34.0000 N.am      1 LI31355     0.0000 
     11 C11         5.7770   13.6530   32.9750 C.ar      1 LI31355     0.0000 
     12 C12         4.4250   13.5690   32.6220 C.ar      1 LI31355     0.0000 
     13 C13         3.9950   12.7190   31.6210 C.ar      1 LI31355     0.0000 
     14 C14         4.9240   11.9350   30.9260 C.ar      1 LI31355     0.0000 
     15 N15         4.8220   11.0180   29.8940 N.pl3     1 LI31355     0.0000 
     16 C17         6.0630   10.5350   29.5840 C.2       1 LI31355     0.0000 
     17 C18         6.9810   11.1110   30.3670 C.2       1 LI31355     0.0000 
     18 C19         6.2880   12.0290   31.2620 C.ar      1 LI31355     0.0000 
     19 C20         6.7100   12.8890   32.2890 C.ar      1 LI31355     0.0000 
     20 N21         6.3750   15.8820   39.9590 N.3       1 LI31355     0.0000 
     21 C22         5.4610   14.7780   40.3130 C.3       1 LI31355     0.0000 
     22 C23         5.5990   14.4920   41.8040 C.3       1 LI31355     0.0000 
     23 O24         5.3600   15.6820   42.5740 O.3       1 LI31355     0.0000 
     24 C25         6.3440   16.6720   42.2460 C.3       1 LI31355     0.0000 
     25 C26         6.1450   17.0800   40.7890 C.3       1 LI31355     0.0000 
     26 H           7.8324   17.7981   38.9010 H         1 LI31355     0.0000 
     27 H           5.4532   14.4934   37.8822 H         1 LI31355     0.0000 
     28 H           7.2620   16.7960   34.8737 H         1 LI31355     0.0000 
     29 H           7.0628   15.1348   33.7651 H         1 LI31355     0.0000 
     30 H           3.7378   14.1602   33.1269 H         1 LI31355     0.0000 
     31 H           2.9984   12.6564   31.3812 H         1 LI31355     0.0000 
     32 H           3.9971   10.7650   29.4655 H         1 LI31355     0.0000 
     33 H           6.2346    9.8710   28.8933 H         1 LI31355     0.0000 
     34 H           7.9176   10.9931   30.3908 H         1 LI31355     0.0000 
     35 H           7.7058   12.9465   32.5252 H         1 LI31355     0.0000 
     36 H           5.7144   13.8784   39.7605 H         1 LI31355     0.0000 
     37 H           4.4311   15.0510   40.1042 H         1 LI31355     0.0000 
     38 H           6.6096   14.0969   41.9800 H         1 LI31355     0.0000 
     39 H           4.8853   13.6970   42.0629 H         1 LI31355     0.0000 
     40 H           7.3571   16.2857   42.3527 H         1 LI31355     0.0000 
     41 H           6.2412   17.5640   42.8631 H         1 LI31355     0.0000 
     42 H           5.1354   17.4457   40.6648 H         1 LI31355     0.0000 
     43 H           6.8545   17.8583   40.5456 H         1 LI31355     0.0000 
@<TRIPOS>BOND
     1    2    1 1    
     2    3    2 ar   
     3    7    2 ar   
     4    4    3 ar   
     5   26    3 1    
     6    5    4 ar   
     7   20    4 1    
     8    6    5 ar   
     9   27    5 1    
    10    7    6 ar   
    11    8    6 1    
    12   28    7 1    
    13    9    8 2    
    14   10    8 am   
    15   11   10 1    
    16   29   10 1    
    17   12   11 ar   
    18   19   11 ar   
    19   13   12 ar   
    20   30   12 1    
    21   14   13 ar   
    22   31   13 1    
    23   15   14 1    
    24   18   14 ar   
    25   16   15 1    
    26   32   15 1    
    27   17   16 2    
    28   33   16 1    
    29   18   17 1    
    30   34   17 1    
    31   19   18 ar   
    32   35   19 1    
    33   21   20 1    
    34   25   20 1    
    35   22   21 1    
    36   36   21 1    
    37   37   21 1    
    38   23   22 1    
    39   38   22 1    
    40   39   22 1    
    41   24   23 1    
    42   25   24 1    
    43   40   24 1    
    44   41   24 1    
    45   42   25 1    
    46   43   25 1    
@<TRIPOS>SUBSTRUCTURE
     1 LI31355     1 GROUP   
@<TRIPOS>SET

