#    Name: 3V78_1_CAVITY_N1_ALL.mol2
#    Modification time : Tue Mar 11 10:15:27 2014

@<TRIPOS>MOLECULE
3V78_1_CAVITY_N1_ALL.mol2
   51     0     4     0     0
SMALL
NO_CHARGES


@<TRIPOS>ATOM
      1 CZ        -32.5484  -14.0923    0.1366 C.ar      3 PHE5        0.0000 
      2 OG        -33.9532  -14.5958   -0.0146 O.2       1 SER1        0.0000 
      3 CA        -34.0506  -13.9225   -1.3515 C.3       4 GLY6        0.0000 
      4 CZ        -29.0451   -9.9931   -1.4200 C.ar      3 PHE5        0.0000 
      5 CZ        -30.3526  -11.1698   -0.2344 C.ar      3 PHE5        0.0000 
      6 CZ        -31.7575  -11.6733   -0.3857 C.ar      3 PHE5        0.0000 
      7 CZ        -33.0650  -12.8501    0.7999 C.ar      3 PHE5        0.0000 
      8 OG        -33.1623  -12.1768   -0.5370 O.2       1 SER1        0.0000 
      9 OG        -34.3725  -14.0268    1.9855 O.2       1 SER1        0.0000 
     10 OG        -34.4699  -13.3535    0.6486 O.2       1 SER1        0.0000 
     11 OG        -34.5672  -12.6802   -0.6883 O.2       1 SER1        0.0000 
     12 CA        -35.8747  -13.8570    0.4973 C.3       4 GLY6        0.0000 
     13 CZ        -30.8692   -9.9276    0.4288 C.ar      3 PHE5        0.0000 
     14 CZ        -30.9666   -9.2543   -0.9080 C.ar      3 PHE5        0.0000 
     15 CZ        -32.1768  -11.1043    1.6144 C.ar      3 PHE5        0.0000 
     16 CZ        -32.2741  -10.4310    0.2775 C.ar      3 PHE5        0.0000 
     17 CA        -33.5816  -11.6078    1.4631 C.3       4 GLY6        0.0000 
     18 OG        -33.6789  -10.9345    0.1263 O.2       1 SER1        0.0000 
     19 CA        -34.8891  -12.7845    2.6487 C.3       4 GLY6        0.0000 
     20 OG        -34.9865  -12.1113    1.3119 O.2       1 SER1        0.0000 
     21 OG        -36.1967  -13.9613    3.8343 O.2       1 SER1        0.0000 
     22 OG        -36.2940  -13.2880    2.4974 O.2       1 SER1        0.0000 
     23 CA        -36.3913  -12.6147    1.1606 C.3       4 GLY6        0.0000 
     24 CA        -36.4887  -11.9415   -0.1763 C.3       4 GLY6        0.0000 
     25 CA        -37.6989  -13.7915    2.3462 C.3       4 GLY6        0.0000 
     26 O         -31.3858   -8.6853    1.0921 O.2       2 ALA2        0.0000 
     27 OG        -31.4832   -8.0120   -0.2448 O.2       1 SER1        0.0000 
     28 CA        -32.6934   -9.8621    2.2777 C.3       4 GLY6        0.0000 
     29 CZ        -32.7907   -9.1888    0.9408 C.ar      3 PHE5        0.0000 
     30 CZ        -32.8880   -8.5155   -0.3961 C.ar      3 PHE5        0.0000 
     31 CZ        -34.0009  -11.0388    3.4632 C.ar      3 PHE5        0.0000 
     32 CZ        -34.0982  -10.3655    2.1264 C.ar      3 PHE5        0.0000 
     33 OG        -34.1956   -9.6923    0.7895 O.2       1 SER1        0.0000 
     34 CZ        -35.4058  -11.5423    3.3120 C.ar      3 PHE5        0.0000 
     35 CZ        -35.5031  -10.8690    1.9751 C.ar      3 PHE5        0.0000 
     36 OG        -35.6004  -10.1957    0.6382 O.2       1 SER1        0.0000 
     37 N         -36.7133  -12.7190    4.4976 N.2       2 ALA2        0.0000 
     38 CZ        -36.8106  -12.0458    3.1607 C.ar      3 PHE5        0.0000 
     39 N         -36.9079  -11.3725    1.8238 N.2       2 ALA2        0.0000 
     40 CA        -38.2155  -12.5492    3.0094 C.3       4 GLY6        0.0000 
     41 CA        -31.9025   -7.4431    1.7553 C.3       4 GLY6        0.0000 
     42 CZ        -33.2100   -8.6198    2.9409 C.ar      3 PHE5        0.0000 
     43 CZ        -33.3073   -7.9465    1.6040 C.ar      3 PHE5        0.0000 
     44 CA        -33.4047   -7.2732    0.2672 C.3       4 GLY6        0.0000 
     45 CZ        -34.7122   -8.4500    1.4528 C.ar      3 PHE5        0.0000 
     46 N         -34.8095   -7.7767    0.1159 N.2       2 ALA2        0.0000 
     47 CA        -36.1170   -8.9535    1.3015 C.3       4 GLY6        0.0000 
     48 CZ        -33.8239   -6.7043    2.2673 C.ar      3 PHE5        0.0000 
     49 CA        -33.9213   -6.0310    0.9304 C.3       4 GLY6        0.0000 
     50 CZ        -35.2288   -7.2077    2.1160 C.ar      3 PHE5        0.0000 
     51 N         -35.3261   -6.5345    0.7791 N.2       2 ALA2        0.0000 
@<TRIPOS>BOND
@<TRIPOS>SUBSTRUCTURE
     1 SER1        2 GROUP   
     2 ALA2       26 GROUP   
     3 PHE5        1 GROUP   
     4 GLY6        3 GROUP   
@<TRIPOS>SET

