#    Name: 3v78_ET_1_INTS_M
#    Modification time : Tue Mar 25 00:06:45 2014

@<TRIPOS>MOLECULE
3v78_ET_1_INTS_M
   51     0     6     0     0
SMALL
NO_CHARGES


@<TRIPOS>ATOM
      1 CA        -27.8750   -8.6975    0.1565 C.3       2 GLC5        0.0000 
      2 CA        -29.4140   -8.7960   -1.2200 C.3       6 GLL5        0.0000 
      3 CA        -26.3360   -8.5990    1.5330 C.3       4 GLP5        0.0000 
      4 CA        -36.4970   -7.1500    0.2305 C.3       2 GLC5        0.0000 
      5 CA        -34.4970   -6.7530    1.0210 C.3       6 GLL5        0.0000 
      6 CA        -38.4970   -7.5470   -0.5600 C.3       4 GLP5        0.0000 
      7 CA        -33.0955   -5.3335    3.8860 C.3       2 GLC5        0.0000 
      8 CA        -32.6990   -6.6140    2.6180 C.3       6 GLL5        0.0000 
      9 CA        -33.4920   -4.0530    5.1540 C.3       4 GLP5        0.0000 
     10 CA        -35.1110  -10.3440    3.4285 C.3       2 GLC5        0.0000 
     11 CA        -34.3570  -10.8850    1.7880 C.3       6 GLL5        0.0000 
     12 CA        -35.8650   -9.8030    5.0690 C.3       4 GLP5        0.0000 
     13 CA        -33.0190  -11.7290    2.8355 C.3       2 GLC5        0.0000 
     14 CA        -31.6810  -12.5730    3.8830 C.3       4 GLP5        0.0000 
     15 CA        -37.4720  -11.3635   -0.0700 C.3       2 GLC5        0.0000 
     16 CA        -35.7110  -10.8620    1.1630 C.3       6 GLL5        0.0000 
     17 CA        -39.2330  -11.8650   -1.3030 C.3       4 GLP5        0.0000 
     18 CA        -36.5060   -9.5890    2.3675 C.3       2 GLC5        0.0000 
     19 CA        -37.3010   -8.3160    3.5720 C.3       4 GLP5        0.0000 
     20 O         -34.4200  -17.1435    0.1800 O.2       1 ALC1        0.0000 
     21 O         -34.0650  -15.7670    0.4140 O.2       5 ALL1        0.0000 
     22 O         -34.7750  -18.5200   -0.0540 O.2       3 ALP1        0.0000 
     23 O         -35.1300  -16.0275    1.2035 O.2       1 ALC1        0.0000 
     24 O         -36.1950  -16.2880    1.9930 O.2       3 ALP1        0.0000 
     25 O         -29.8805   -6.8950   -1.8545 O.2       1 ALC1        0.0000 
     26 O         -28.6640   -7.5920   -1.4580 O.2       5 ALL1        0.0000 
     27 O         -31.0970   -6.1980   -2.2510 O.2       3 ALP1        0.0000 
     28 CA        -32.6785  -14.6831   -2.1236 C.3       2 GLC5        0.0000 
     29 CA        -31.3840  -13.5770   -0.9690 C.3       6 GLL5        0.0000 
     30 CA        -32.8280  -15.0000   -3.9050 C.3       4 GLP5        0.0000 
     31 CA        -30.7920   -7.0023   -1.0657 C.3       2 GLC5        0.0000 
     32 CA        -30.5500   -8.7530   -0.4050 C.3       6 GLL5        0.0000 
     33 CA        -31.6020   -5.2300   -1.3190 C.3       4 GLP5        0.0000 
     34 CA        -27.7927   -8.6180   -2.8600 C.3       2 GLC5        0.0000 
     35 CA        -26.3710   -7.8280   -4.2140 C.3       4 GLP5        0.0000 
     36 CA        -30.0005  -10.5128   -3.7350 C.3       2 GLC5        0.0000 
     37 CA        -29.0150  -10.0200   -1.7920 C.3       6 GLL5        0.0000 
     38 CA        -30.6150  -10.4260   -5.8020 C.3       4 GLP5        0.0000 
     39 CA        -32.9816  -13.2546    2.3941 C.3       2 GLC5        0.0000 
     40 CA        -32.8430  -12.2090    0.3990 C.3       6 GLL5        0.0000 
     41 CA        -32.8090  -13.4160    4.3820 C.3       4 GLP5        0.0000 
     42 CA        -35.0000   -4.9610    2.3187 C.3       2 GLC5        0.0000 
     43 CA        -35.8300   -3.5170    3.1090 C.3       4 GLP5        0.0000 
     44 CA        -35.6743   -7.5160    2.5004 C.3       2 GLC5        0.0000 
     45 CA        -33.8430   -6.0570    2.0360 C.3       6 GLL5        0.0000 
     46 CA        -33.5738   -5.8795   -0.0456 C.3       2 GLC5        0.0000 
     47 CA        -33.1000   -5.0430   -1.5200 C.3       4 GLP5        0.0000 
     48 CA        -33.9660   -5.0602    3.2292 C.3       2 GLC5        0.0000 
     49 CA        -30.9162   -6.5358    3.0322 C.3       2 GLC5        0.0000 
     50 CA        -29.3810   -5.8380    3.6350 C.3       4 GLP5        0.0000 
     51 CA        -32.1111   -6.3185    0.4303 C.3       2 GLC5        0.0000 
@<TRIPOS>BOND
@<TRIPOS>SUBSTRUCTURE
     1 ALC1       20 GROUP        1 X    ALC  0     ROOT ALC X 1
     2 GLC5        1 GROUP        1 X    GLC  0     **** GLC X 6
     3 ALP1       22 GROUP        1 Y    ALP  0     ROOT ALP Y 8
     4 GLP5        3 GROUP        1 Y    GLP  0     **** GLP Y 13
     5 ALL1       21 GROUP        1 Z    ALL  0     ROOT ALL Z 15
     6 GLL5        2 GROUP        1 Z    GLL  0     **** GLL Z 20
@<TRIPOS>SET

