#    Name: 3v78_ET_1_ligand
#    Modification time : Tue Mar 25 00:06:45 2014

@<TRIPOS>MOLECULE
3v78_ET_1_ligand
   44    47     1     0     0
SMALL
NO_CHARGES


@<TRIPOS>ATOM
      1 C1        -31.3840  -13.5770   -0.9690 C.ar      1 ET31        0.0000 
      2 C2        -32.1580  -14.7000   -0.6820 C.ar      1 ET31        0.0000 
      3 C3        -33.2870  -14.5940    0.1410 C.ar      1 ET31        0.0000 
      4 C4        -33.6440  -13.3610    0.6860 C.ar      1 ET31        0.0000 
      5 N5        -33.1930  -10.9760    0.9450 N.ar      1 ET31        0.0000 
      6 C6        -32.4600   -9.8680    0.7000 C.ar      1 ET31        0.0000 
      7 C7        -30.5500   -8.7530   -0.4050 C.ar      1 ET31        0.0000 
      8 C8        -29.4140   -8.7960   -1.2200 C.ar      1 ET31        0.0000 
      9 C9        -29.0150  -10.0200   -1.7920 C.ar      1 ET31        0.0000 
     10 C10       -29.7570  -11.1790   -1.5440 C.ar      1 ET31        0.0000 
     11 C11       -31.3010   -9.9340   -0.1530 C.ar      1 ET31        0.0000 
     12 C12       -30.9110  -11.1320   -0.7170 C.ar      1 ET31        0.0000 
     13 C13       -31.7350  -12.3190   -0.4140 C.ar      1 ET31        0.0000 
     14 C14       -32.8430  -12.2090    0.3990 C.ar      1 ET31        0.0000 
     15 C15       -32.8790   -8.5470    1.2410 C.ar      1 ET31        0.0000 
     16 C16       -34.0070   -7.9970    0.6220 C.ar      1 ET31        0.0000 
     17 C17       -34.4970   -6.7530    1.0210 C.ar      1 ET31        0.0000 
     18 C18       -33.8430   -6.0570    2.0360 C.ar      1 ET31        0.0000 
     19 C19       -32.6990   -6.6140    2.6180 C.ar      1 ET31        0.0000 
     20 C20       -32.2040   -7.8530    2.2410 C.ar      1 ET31        0.0000 
     21 C21       -34.3570  -10.8850    1.7880 C.3       1 ET31        0.0000 
     22 C22       -35.7110  -10.8620    1.1630 C.3       1 ET31        0.0000 
     23 N23       -34.0650  -15.7670    0.4140 N.pl3     1 ET31        0.0000 
     24 N24       -28.6640   -7.5920   -1.4580 N.pl3     1 ET31        0.0000 
     25 H         -30.5650  -13.6474   -1.5752 H         1 ET31        0.0000 
     26 H         -31.9010  -15.6157   -1.0761 H         1 ET31        0.0000 
     27 H         -34.4607  -13.2633    1.2824 H         1 ET31        0.0000 
     28 H         -30.8515   -7.8696    0.0181 H         1 ET31        0.0000 
     29 H         -28.1836  -10.0560   -2.3868 H         1 ET31        0.0000 
     30 H         -29.4742  -12.0736   -1.9574 H         1 ET31        0.0000 
     31 H         -34.4774   -8.5152   -0.1328 H         1 ET31        0.0000 
     32 H         -35.3260   -6.3573    0.5736 H         1 ET31        0.0000 
     33 H         -34.1923   -5.1518    2.3527 H         1 ET31        0.0000 
     34 H         -32.2046   -6.0735    3.3617 H         1 ET31        0.0000 
     35 H         -31.3766   -8.2434    2.6784 H         1 ET31        0.0000 
     36 H         -34.2718   -9.9660    2.4574 H         1 ET31        0.0000 
     37 H         -34.3440  -11.7342    2.5486 H         1 ET31        0.0000 
     38 H         -33.7330  -16.6192    0.0097 H         1 ET31        0.0000 
     39 H         -34.8746  -15.6348    0.9859 H         1 ET31        0.0000 
     40 H         -27.7197   -7.5896   -1.1292 H         1 ET31        0.0000 
     41 H         -29.1495   -6.8578   -1.9325 H         1 ET31        0.0000 
     42 H         -35.8219  -10.0831    0.5457 H         1 ET31        0.0000 
     43 H         -35.8868  -11.6879    0.6273 H         1 ET31        0.0000 
     44 H         -36.4357  -10.7978    1.8491 H         1 ET31        0.0000 
@<TRIPOS>BOND
     1    2    1 ar   
     2   13    1 ar   
     3   25    1 1    
     4    3    2 ar   
     5   26    2 1    
     6    4    3 ar   
     7   23    3 1    
     8   14    4 ar   
     9   27    4 1    
    10    6    5 ar   
    11   14    5 ar   
    12   21    5 1    
    13   11    6 ar   
    14   15    6 1    
    15    8    7 ar   
    16   11    7 ar   
    17   28    7 1    
    18    9    8 ar   
    19   24    8 1    
    20   10    9 ar   
    21   29    9 1    
    22   12   10 ar   
    23   30   10 1    
    24   12   11 ar   
    25   13   12 ar   
    26   14   13 ar   
    27   16   15 ar   
    28   20   15 ar   
    29   17   16 ar   
    30   31   16 1    
    31   18   17 ar   
    32   32   17 1    
    33   19   18 ar   
    34   33   18 1    
    35   20   19 ar   
    36   34   19 1    
    37   35   20 1    
    38   22   21 1    
    39   36   21 1    
    40   37   21 1    
    41   42   22 1    
    42   43   22 1    
    43   44   22 1    
    44   38   23 1    
    45   39   23 1    
    46   40   24 1    
    47   41   24 1    
@<TRIPOS>SUBSTRUCTURE
     1 ET31        1 GROUP   
@<TRIPOS>SET

