#    Name: 3DD8_1_CAVITY_N1_6.mol2
#    Modification time : Tue Mar 11 15:58:44 2014

@<TRIPOS>MOLECULE
3DD8_1_CAVITY_N1_6.mol2
   82     0     6     0     0
SMALL
NO_CHARGES


@<TRIPOS>ATOM
      1 N           1.3546    4.8620   11.7110 N.2       2 ALA2        0.0000 
      2 CA         -0.9755    5.5697   14.4624 C.3       5 GLY6        0.0000 
      3 CA         -2.0884    6.5065   14.0967 C.3       5 GLY6        0.0000 
      4 CZ         -3.2013    7.4434   13.7309 C.ar      4 PHE5        0.0000 
      5 N          -0.8668    5.1395   13.0295 N.2       2 ALA2        0.0000 
      6 DU         -1.9797    6.0763   12.6638 H         6 CUB7        0.0000 
      7 N           0.3548    3.7724   11.9623 N.2       2 ALA2        0.0000 
      8 DU         -0.7581    4.7093   11.5966 H         6 CUB7        0.0000 
      9 CZ          0.4635    3.3422   10.5295 C.ar      4 PHE5        0.0000 
     10 DU         -0.6494    4.2791   10.1638 H         6 CUB7        0.0000 
     11 CA          0.5722    2.9120    9.0966 C.3       5 GLY6        0.0000 
     12 CZ         -4.3098    6.7840   15.4151 C.ar      4 PHE5        0.0000 
     13 OG         -1.9753    4.4801   14.7137 O.2       1 SER1        0.0000 
     14 CA         -3.0882    5.4170   14.3480 C.3       5 GLY6        0.0000 
     15 CZ         -4.2011    6.3538   13.9823 C.ar      4 PHE5        0.0000 
     16 OG         -1.8666    4.0499   13.2808 O.2       1 SER1        0.0000 
     17 DU         -2.9795    4.9867   12.9151 H         6 CUB7        0.0000 
     18 DU         -4.0924    5.9236   12.5494 H         6 CUB7        0.0000 
     19 CZ         -5.2053    6.8605   12.1837 C.ar      4 PHE5        0.0000 
     20 CZ         -6.3182    7.7973   11.8180 C.ar      4 PHE5        0.0000 
     21 OG         -1.7579    3.6197   11.8479 O.2       1 SER1        0.0000 
     22 DU         -2.8708    4.5565   11.4822 H         6 CUB7        0.0000 
     23 DU         -3.9837    5.4934   11.1165 H         6 CUB7        0.0000 
     24 CZ         -0.5363    2.2526   10.7808 C.ar      4 PHE5        0.0000 
     25 O          -1.6492    3.1895   10.4151 O.2       2 ALA2        0.0000 
     26 O          -2.7621    4.1263   10.0494 O.2       2 ALA2        0.0000 
     27 N          -3.8750    5.0632    9.6837 N.2       2 ALA2        0.0000 
     28 N          -3.7664    4.6330    8.2508 N.2       2 ALA2        0.0000 
     29 CA         -5.3096    5.6944   15.6664 C.3       5 GLY6        0.0000 
     30 OG         -2.9751    3.3905   14.9650 O.2       1 SER1        0.0000 
     31 CA         -4.0880    4.3274   14.5993 C.3       5 GLY6        0.0000 
     32 CZ         -5.2009    5.2642   14.2336 C.ar      4 PHE5        0.0000 
     33 CZ         -6.3138    6.2011   13.8679 C.ar      4 PHE5        0.0000 
     34 CZ         -7.4267    7.1380   13.5021 C.ar      4 PHE5        0.0000 
     35 OG         -2.8664    2.9603   13.5321 O.2       1 SER1        0.0000 
     36 DU         -3.9793    3.8972   13.1664 H         6 CUB7        0.0000 
     37 O          -5.0922    4.8340   12.8007 O.2       2 ALA2        0.0000 
     38 O          -6.2051    5.7709   12.4350 O.2       2 ALA2        0.0000 
     39 O          -7.3180    6.7077   12.0693 O.2       2 ALA2        0.0000 
     40 OG         -2.7578    2.5301   12.0992 O.2       1 SER1        0.0000 
     41 O          -3.8707    3.4669   11.7335 O.2       2 ALA2        0.0000 
     42 O          -4.9836    4.4038   11.3678 O.2       2 ALA2        0.0000 
     43 OG         -1.5362    1.1630   11.0321 O.2       1 SER1        0.0000 
     44 O          -2.6491    2.0999   10.6664 O.2       2 ALA2        0.0000 
     45 O          -3.7620    3.0367   10.3007 O.2       2 ALA2        0.0000 
     46 N          -4.8749    3.9736    9.9350 N.2       2 ALA2        0.0000 
     47 CA         -4.0836    2.7311   16.6491 C.3       5 GLY6        0.0000 
     48 CA         -6.3094    4.6049   15.9177 C.3       5 GLY6        0.0000 
     49 OG         -2.8620    1.3641   15.5820 O.2       1 SER1        0.0000 
     50 OG         -3.9749    2.3009   15.2163 O.2       1 SER1        0.0000 
     51 CA         -5.0878    3.2378   14.8506 C.3       5 GLY6        0.0000 
     52 O          -6.2007    4.1746   14.4849 O.2       2 ALA2        0.0000 
     53 CA         -7.3136    5.1115   14.1192 C.3       5 GLY6        0.0000 
     54 OG         -3.8663    1.8707   13.7834 O.2       1 SER1        0.0000 
     55 O          -4.9792    2.8076   13.4177 O.2       2 ALA2        0.0000 
     56 O          -6.0921    3.7444   13.0520 O.2       2 ALA2        0.0000 
     57 CA         -2.6447    0.5036   12.7162 C.3       5 GLY6        0.0000 
     58 OG         -3.7576    1.4405   12.3505 O.2       1 SER1        0.0000 
     59 O          -4.8705    2.3774   11.9848 O.2       2 ALA2        0.0000 
     60 CA         -1.4231   -0.8634   11.6491 C.3       5 GLY6        0.0000 
     61 CA         -2.5360    0.0734   11.2834 C.3       5 GLY6        0.0000 
     62 O          -3.6489    1.0103   10.9177 O.2       2 ALA2        0.0000 
     63 O          -4.7618    1.9471   10.5520 O.2       2 ALA2        0.0000 
     64 CA         -2.4273   -0.3568    9.8505 C.3       5 GLY6        0.0000 
     65 CA         -6.3050    3.0086   17.9676 C.3       5 GLY6        0.0000 
     66 O          -5.0835    1.6415   16.9004 O.2       2 ALA2        0.0000 
     67 CA         -6.1964    2.5784   16.5347 C.3       5 GLY6        0.0000 
     68 CA         -7.3093    3.5153   16.1690 C.3       5 GLY6        0.0000 
     69 OG         -3.8619    0.2745   15.8333 O.2       1 SER1        0.0000 
     70 OD1        -4.9748    1.2113   15.4676 O.3       3 ASP3        0.0000 
     71 N          -6.0877    2.1482   15.1019 N.2       2 ALA2        0.0000 
     72 CA         -7.2006    3.0851   14.7362 C.3       5 GLY6        0.0000 
     73 CA         -3.7532   -0.1557   14.4004 C.3       5 GLY6        0.0000 
     74 N          -4.8661    0.7811   14.0347 N.2       2 ALA2        0.0000 
     75 CA         -3.6445   -0.5860   12.9676 C.3       5 GLY6        0.0000 
     76 N          -4.7574    0.3509   12.6018 N.2       2 ALA2        0.0000 
     77 O          -5.8703    1.2878   12.2361 O.2       2 ALA2        0.0000 
     78 CA         -2.4229   -1.9530   11.9004 C.3       5 GLY6        0.0000 
     79 CA         -3.5358   -1.0162   11.5347 C.3       5 GLY6        0.0000 
     80 CA         -4.6487   -0.0793   11.1690 C.3       5 GLY6        0.0000 
     81 O          -3.4227   -3.0426   12.1517 O.2       2 ALA2        0.0000 
     82 CA         -4.5356   -2.1058   11.7860 C.3       5 GLY6        0.0000 
@<TRIPOS>BOND
@<TRIPOS>SUBSTRUCTURE
     1 SER1       13 GROUP   
     2 ALA2        1 GROUP   
     3 ASP3       70 GROUP   
     4 PHE5        4 GROUP   
     5 GLY6        2 GROUP   
     6 CUB7        6 GROUP   
@<TRIPOS>SET

