#    Name: 3dd8_2C7_1_INTS_M
#    Modification time : Mon Mar 24 23:07:42 2014

@<TRIPOS>MOLECULE
3dd8_2C7_1_INTS_M
   39     0    12     0     0
SMALL
NO_CHARGES


@<TRIPOS>ATOM
      1 CA         -1.5615   10.8205   16.4790 C.3       4 GLC5        0.0000 
      2 CA         -0.7320    9.5540   15.3220 C.3      12 GLL5        0.0000 
      3 CA         -2.3910   12.0870   17.6360 C.3       8 GLP5        0.0000 
      4 CA         -3.3860    9.1895   14.4010 C.3       4 GLC5        0.0000 
      5 CA         -1.3660    8.4160   14.4930 C.3      12 GLL5        0.0000 
      6 CA         -5.4060    9.9630   14.3090 C.3       8 GLP5        0.0000 
      7 CA         -1.7575    7.1785   16.1205 C.3       4 GLC5        0.0000 
      8 CA         -2.1490    5.9410   17.7480 C.3       8 GLP5        0.0000 
      9 CA          0.1410    7.1445   15.0445 C.3       4 GLC5        0.0000 
     10 CA          1.6480    5.8730   15.5960 C.3       8 GLP5        0.0000 
     11 CA         -2.4485    1.0285   14.4705 C.3       4 GLC5        0.0000 
     12 CA         -3.6610    2.9100   14.5680 C.3      12 GLL5        0.0000 
     13 CA         -1.2360   -0.8530   14.3730 C.3       8 GLP5        0.0000 
     14 CA         -7.6295    5.2040   15.0565 C.3       4 GLC5        0.0000 
     15 CA         -5.7400    4.6980   14.1370 C.3      12 GLL5        0.0000 
     16 CA         -9.5190    5.7100   15.9760 C.3       8 GLP5        0.0000 
     17 CA         -7.9010    3.4155   14.9215 C.3       4 GLC5        0.0000 
     18 CA         -5.9870    3.4520   14.7130 C.3      12 GLL5        0.0000 
     19 CA         -9.8150    3.3790   15.1300 C.3       8 GLP5        0.0000 
     20 N          -3.8970    0.9465   18.4940 N.am      2 SEC2        0.0000 
     21 N          -5.1280    1.4430   17.9490 N.am     10 SEL2        0.0000 
     22 N          -2.6660    0.4500   19.0390 N.am      6 SEP2        0.0000 
     23 O          -4.7355   -1.3290   17.2430 O.2       1 ALC1        0.0000 
     24 O          -5.8480   -0.6380   16.7830 O.2       9 ALL1        0.0000 
     25 O          -3.6230   -2.0200   17.7030 O.2       5 ALP1        0.0000 
     26 Zn         -6.3400   -1.1500   16.1290 Zn        3 ZIC7        0.0000 
     27 Zn         -5.8480   -0.6380   16.7830 Zn       11 ZIL7        0.0000 
     28 Zn         -6.8320   -1.6620   15.4750 Zn        7 ZIP7        0.0000 
     29 CA          0.9355    8.4268   15.7747 C.3       4 GLC5        0.0000 
     30 CA          1.9310    7.0350   16.4960 C.3       8 GLP5        0.0000 
     31 CA          0.1255    9.6357   16.9958 C.3       4 GLC5        0.0000 
     32 CA          0.6120   10.0830   14.7850 C.3      12 GLL5        0.0000 
     33 CA          0.3110    9.4530   18.9380 C.3       8 GLP5        0.0000 
     34 CA         -3.9580    4.1753   16.1943 C.3       4 GLC5        0.0000 
     35 CA         -3.4190    4.1590   13.9810 C.3      12 GLL5        0.0000 
     36 CA         -4.3760    4.8160   18.1140 C.3       8 GLP5        0.0000 
     37 CA         -4.7355    4.8542   16.0320 C.3       4 GLC5        0.0000 
     38 CA         -4.4500    5.0870   13.7630 C.3      12 GLL5        0.0000 
     39 CA         -4.9238    3.9090   16.4757 C.3       4 GLC5        0.0000 
@<TRIPOS>BOND
@<TRIPOS>SUBSTRUCTURE
     1 ALC1       23 GROUP        1 X    ALC  0     ROOT ALC X 1
     2 SEC2       20 GROUP        1 X    SEC  0     **** SEC X 2
     3 ZIC7       26 GROUP        1 X    ZIC  0     **** ZIC X 5
     4 GLC5        1 GROUP        1 X    GLC  0     **** GLC X 6
     5 ALP1       25 GROUP        1 Y    ALP  0     ROOT ALP Y 8
     6 SEP2       22 GROUP        1 Y    SEP  0     **** SEP Y 9
     7 ZIP7       28 GROUP        1 Y    ZIP  0     **** ZIP Y 12
     8 GLP5        3 GROUP        1 Y    GLP  0     **** GLP Y 13
     9 ALL1       24 GROUP        1 Z    ALL  0     ROOT ALL Z 15
    10 SEL2       21 GROUP        1 Z    SEL  0     **** SEL Z 16
    11 ZIL7       27 GROUP        1 Z    ZIL  0     **** ZIL Z 19
    12 GLL5        2 GROUP        1 Z    GLL  0     **** GLL Z 20
@<TRIPOS>SET

