#    Name: 3dd8_2C7_1_ligand
#    Modification time : Mon Mar 24 23:07:42 2014

@<TRIPOS>MOLECULE
3dd8_2C7_1_ligand
   44    46     1     0     0
SMALL
NO_CHARGES


@<TRIPOS>ATOM
      1 CAE        -1.2860    9.8490   12.4120 C.3       1 2C7300      0.0000 
      2 CAA         0.0250   10.6530   12.3690 C.3       1 2C7300      0.0000 
      3 CAB         0.4180   11.2100   13.7510 C.3       1 2C7300      0.0000 
      4 CAC         0.6120   10.0830   14.7850 C.3       1 2C7300      0.0000 
      5 CAD        -0.7320    9.5540   15.3220 C.3       1 2C7300      0.0000 
      6 CAG        -1.3660    8.4160   14.4930 C.3       1 2C7300      0.0000 
      7 CAF        -1.0740    8.4340   12.9740 C.3       1 2C7300      0.0000 
      8 CAH        -1.9950    7.5080   12.1680 C.3       1 2C7300      0.0000 
      9 CAI        -2.7500    6.3640   12.8850 C.2       1 2C7300      0.0000 
     10 CAJ        -4.0600    6.2410   13.1690 C.2       1 2C7300      0.0000 
     11 SAP        -1.9980    4.9250   13.4130 S.o2      1 2C7300      0.0000 
     12 OAO        -1.3820    4.2290   12.2230 O.2       1 2C7300      0.0000 
     13 OAW        -1.0200    5.1620   14.5250 O.2       1 2C7300      0.0000 
     14 CAQ        -3.4190    4.1590   13.9810 C.ar      1 2C7300      0.0000 
     15 CAR        -3.6610    2.9100   14.5680 C.ar      1 2C7300      0.0000 
     16 CAK        -4.4500    5.0870   13.7630 C.ar      1 2C7300      0.0000 
     17 CAL        -5.7400    4.6980   14.1370 C.ar      1 2C7300      0.0000 
     18 CAM        -5.9870    3.4520   14.7130 C.ar      1 2C7300      0.0000 
     19 CAS        -4.9560    2.5520   14.9620 C.ar      1 2C7300      0.0000 
     20 OAT        -5.1820    1.2980   15.4940 O.3       1 2C7300      0.0000 
     21 SAU        -5.8730    0.9500   16.7490 S.o2      1 2C7300      0.0000 
     22 OAA        -5.1280    1.4430   17.9490 O.2       1 2C7300      0.0000 
     23 OAN        -7.2650    1.4680   16.7630 O.2       1 2C7300      0.0000 
     24 NAV        -5.8480   -0.6380   16.7830 N.pl3     1 2C7300      0.0000 
     25 H          -1.6915    9.7748   11.4015 H         1 2C7300      0.0000 
     26 H          -2.0074   10.3773   13.0377 H         1 2C7300      0.0000 
     27 H          -0.0897   11.4855   11.6702 H         1 2C7300      0.0000 
     28 H           0.8280   10.0070   12.0051 H         1 2C7300      0.0000 
     29 H          -0.3652   11.8820   14.1001 H         1 2C7300      0.0000 
     30 H           1.3472   11.7711   13.6579 H         1 2C7300      0.0000 
     31 H           1.2037   10.4635   15.6188 H         1 2C7300      0.0000 
     32 H           1.1568    9.2616   14.3176 H         1 2C7300      0.0000 
     33 H          -1.4480   10.3930   15.3746 H         1 2C7300      0.0000 
     34 H          -0.5849    9.1968   16.3565 H         1 2C7300      0.0000 
     35 H          -2.4645    8.4418   14.6398 H         1 2C7300      0.0000 
     36 H          -1.0232    7.4456   14.9050 H         1 2C7300      0.0000 
     37 H          -0.0560    8.1550   12.7973 H         1 2C7300      0.0000 
     38 H          -1.3942    7.0531   11.3312 H         1 2C7300      0.0000 
     39 H          -2.7573    8.1436   11.6358 H         1 2C7300      0.0000 
     40 H          -4.7300    6.9778   12.9496 H         1 2C7300      0.0000 
     41 H          -2.8835    2.2534   14.7100 H         1 2C7300      0.0000 
     42 H          -6.5297    5.3517   13.9820 H         1 2C7300      0.0000 
     43 H          -6.9603    3.1925   14.9603 H         1 2C7300      0.0000 
     44 H          -4.9657   -0.8742   17.1901 H         1 2C7300      0.0000 
@<TRIPOS>BOND
     1    2    1 1    
     2    7    1 1    
     3   25    1 1    
     4   26    1 1    
     5    3    2 1    
     6   27    2 1    
     7   28    2 1    
     8    4    3 1    
     9   29    3 1    
    10   30    3 1    
    11    5    4 1    
    12   31    4 1    
    13   32    4 1    
    14    6    5 1    
    15   33    5 1    
    16   34    5 1    
    17    7    6 1    
    18   35    6 1    
    19   36    6 1    
    20    8    7 1    
    21   37    7 1    
    22    9    8 1    
    23   38    8 1    
    24   39    8 1    
    25   10    9 2    
    26   11    9 1    
    27   16   10 1    
    28   40   10 1    
    29   12   11 2    
    30   13   11 2    
    31   14   11 1    
    32   15   14 ar   
    33   16   14 ar   
    34   19   15 ar   
    35   41   15 1    
    36   17   16 ar   
    37   18   17 ar   
    38   42   17 1    
    39   19   18 ar   
    40   43   18 1    
    41   20   19 1    
    42   21   20 1    
    43   22   21 2    
    44   23   21 2    
    45   24   21 1    
    46   44   24 1    
@<TRIPOS>SUBSTRUCTURE
     1 2C7300      1 GROUP   
@<TRIPOS>SET

