#    Name: 3b25_B2K_1_INTS_M
#    Modification time : Mon Mar 24 18:46:47 2014

@<TRIPOS>MOLECULE
3b25_B2K_1_INTS_M
   47     0     6     0     0
SMALL
NO_CHARGES


@<TRIPOS>ATOM
      1 CA         63.9595   16.6145   24.9470 C.3       2 GLC5        0.0000 
      2 CA         63.1950   14.7200   24.9000 C.3       6 GLL5        0.0000 
      3 CA         64.7240   18.5090   24.9940 C.3       4 GLP5        0.0000 
      4 CA         61.3235   16.2105   25.5815 C.3       2 GLC5        0.0000 
      5 CA         61.5710   16.1120   23.5430 C.3       6 GLL5        0.0000 
      6 CA         61.0760   16.3090   27.6200 C.3       4 GLP5        0.0000 
      7 CA         63.1475   17.3105   24.2685 C.3       2 GLC5        0.0000 
      8 CA         60.5305   17.5070   23.5035 C.3       2 GLC5        0.0000 
      9 CA         59.4900   18.9020   23.4640 C.3       4 GLP5        0.0000 
     10 CA         66.3820   10.1670   26.5270 C.3       2 GLC5        0.0000 
     11 CA         65.6530   10.7280   24.5230 C.3       6 GLL5        0.0000 
     12 CA         67.1110    9.6060   28.5310 C.3       4 GLP5        0.0000 
     13 CA         65.5080   12.2210   23.0555 C.3       2 GLC5        0.0000 
     14 CA         65.3630   13.7140   21.5880 C.3       4 GLP5        0.0000 
     15 CA         65.0070   11.3740   22.0775 C.3       2 GLC5        0.0000 
     16 CA         65.8780   10.2000   23.2470 C.3       6 GLL5        0.0000 
     17 CA         64.1360   12.5480   20.9080 C.3       4 GLP5        0.0000 
     18 CA         63.9495   10.0105   22.2210 C.3       2 GLC5        0.0000 
     19 CA         62.0210    9.8210   21.1950 C.3       4 GLP5        0.0000 
     20 CA         68.4060    8.3095   20.3150 C.3       2 GLC5        0.0000 
     21 CA         67.4740    9.5680   21.3810 C.3       6 GLL5        0.0000 
     22 CA         69.3380    7.0510   19.2490 C.3       4 GLP5        0.0000 
     23 CA         68.5640   10.4880   19.8875 C.3       2 GLC5        0.0000 
     24 CA         69.6540   11.4080   18.3940 C.3       4 GLP5        0.0000 
     25 CA         67.5295   10.4115   26.6270 C.3       2 GLC5        0.0000 
     26 CA         67.9480   11.2170   24.7230 C.3       6 GLL5        0.0000 
     27 CA         69.1840    9.6240   23.9560 C.3       2 GLC5        0.0000 
     28 CA         70.4200    8.0310   23.1890 C.3       4 GLP5        0.0000 
     29 CA         68.3095   13.0770   23.9800 C.3       2 GLC5        0.0000 
     30 CA         68.6710   14.9370   23.2370 C.3       4 GLP5        0.0000 
     31 O          70.4000   11.8800   25.2515 O.2       1 ALC1        0.0000 
     32 O          68.9740   11.6660   25.4190 O.2       5 ALL1        0.0000 
     33 O          71.8260   12.0940   25.0840 O.2       3 ALP1        0.0000 
     34 CA         64.0907   14.0755   23.0544 C.3       2 GLC5        0.0000 
     35 CA         63.7690   13.5020   25.2690 C.3       6 GLL5        0.0000 
     36 CA         62.2422   15.3381   21.7338 C.3       2 GLC5        0.0000 
     37 CA         61.6720   13.5830   23.3850 C.3       6 GLL5        0.0000 
     38 CA         62.7170   16.1660   19.9000 C.3       4 GLP5        0.0000 
     39 CA         63.3754   12.5981   22.5304 C.3       2 GLC5        0.0000 
     40 CA         62.3179   11.2346   22.6739 C.3       2 GLC5        0.0000 
     41 CA         62.7815   13.0375   26.8811 C.3       2 GLC5        0.0000 
     42 CA         63.2840   12.3250   24.7120 C.3       6 GLL5        0.0000 
     43 CA         62.1800   12.8570   28.8640 C.3       4 GLP5        0.0000 
     44 CA         68.8750    8.9483   22.6320 C.3       2 GLC5        0.0000 
     45 CA         67.1860   10.1630   22.7690 C.3       6 GLL5        0.0000 
     46 CA         66.2235   10.8197   20.8500 C.3       2 GLC5        0.0000 
     47 CA         65.1170   11.7740   19.6250 C.3       4 GLP5        0.0000 
@<TRIPOS>BOND
@<TRIPOS>SUBSTRUCTURE
     1 ALC1       31 GROUP        1 X    ALC  0     ROOT ALC X 1
     2 GLC5        1 GROUP        1 X    GLC  0     **** GLC X 6
     3 ALP1       33 GROUP        1 Y    ALP  0     ROOT ALP Y 8
     4 GLP5        3 GROUP        1 Y    GLP  0     **** GLP Y 13
     5 ALL1       32 GROUP        1 Z    ALL  0     ROOT ALL Z 15
     6 GLL5        2 GROUP        1 Z    GLL  0     **** GLL Z 20
@<TRIPOS>SET

