#    Name: 3b25_B2K_1_ligand
#    Modification time : Mon Mar 24 18:46:47 2014

@<TRIPOS>MOLECULE
3b25_B2K_1_ligand
   31    32     1     0     0
SMALL
NO_CHARGES


@<TRIPOS>ATOM
      1 C1         63.7690   13.5020   25.2690 C.ar      1 B2K1        0.0000 
      2 C2         63.1950   14.7200   24.9000 C.ar      1 B2K1        0.0000 
      3 C3         62.1550   14.7630   23.9570 C.ar      1 B2K1        0.0000 
      4 C4         61.5710   16.1120   23.5430 C.3       1 B2K1        0.0000 
      5 C5         61.6720   13.5830   23.3850 C.ar      1 B2K1        0.0000 
      6 C6         62.2190   12.3600   23.8020 C.ar      1 B2K1        0.0000 
      7 C7         63.2840   12.3250   24.7120 C.ar      1 B2K1        0.0000 
      8 S8         64.0120   10.7840   25.1820 S.o2      1 B2K1        0.0000 
      9 O9         63.1540    9.6790   24.6380 O.2       1 B2K1        0.0000 
     10 O10        64.0950   10.7180   26.6780 O.2       1 B2K1        0.0000 
     11 C11        65.6530   10.7280   24.5230 C.ar      1 B2K1        0.0000 
     12 N12        66.6820   11.2610   25.2270 N.ar      1 B2K1        0.0000 
     13 C13        65.8780   10.2000   23.2470 C.ar      1 B2K1        0.0000 
     14 C14        67.1860   10.1630   22.7690 C.ar      1 B2K1        0.0000 
     15 C15        67.4740    9.5680   21.3810 C.3       1 B2K1        0.0000 
     16 N16        68.1910   10.7140   23.4910 N.ar      1 B2K1        0.0000 
     17 C17        67.9480   11.2170   24.7230 C.ar      1 B2K1        0.0000 
     18 N18        68.9740   11.6660   25.4190 N.pl3     1 B2K1        0.0000 
     19 H          64.5383   13.4794   25.9425 H         1 B2K1        0.0000 
     20 H          63.5342   15.5959   25.3204 H         1 B2K1        0.0000 
     21 H          60.9399   13.6074   22.6815 H         1 B2K1        0.0000 
     22 H          61.8330   11.4790   23.4348 H         1 B2K1        0.0000 
     23 H          65.1066    9.8537   22.6865 H         1 B2K1        0.0000 
     24 H          68.7613   12.0540   26.3158 H         1 B2K1        0.0000 
     25 H          69.8714   11.5776   24.9867 H         1 B2K1        0.0000 
     26 H          62.2644   16.7087   23.1392 H         1 B2K1        0.0000 
     27 H          60.8424   16.0092   22.8658 H         1 B2K1        0.0000 
     28 H          61.1800   16.6023   24.3220 H         1 B2K1        0.0000 
     29 H          68.4478    9.6035   21.1565 H         1 B2K1        0.0000 
     30 H          67.1945    8.6097   21.3225 H         1 B2K1        0.0000 
     31 H          66.9884   10.0596   20.6581 H         1 B2K1        0.0000 
@<TRIPOS>BOND
     1    2    1 ar   
     2    7    1 ar   
     3   19    1 1    
     4    3    2 ar   
     5   20    2 1    
     6    4    3 1    
     7    5    3 ar   
     8   26    4 1    
     9   27    4 1    
    10   28    4 1    
    11    6    5 ar   
    12   21    5 1    
    13    7    6 ar   
    14   22    6 1    
    15    8    7 1    
    16    9    8 2    
    17   10    8 2    
    18   11    8 1    
    19   12   11 ar   
    20   13   11 ar   
    21   17   12 ar   
    22   14   13 ar   
    23   23   13 1    
    24   15   14 1    
    25   16   14 ar   
    26   29   15 1    
    27   30   15 1    
    28   31   15 1    
    29   17   16 ar   
    30   18   17 1    
    31   24   18 1    
    32   25   18 1    
@<TRIPOS>SUBSTRUCTURE
     1 B2K1        1 GROUP   
@<TRIPOS>SET

