#    Name: 2r6j_NDP_1_INTS_M
#    Modification time : Mon Mar 24 23:16:37 2014

@<TRIPOS>MOLECULE
2r6j_NDP_1_INTS_M
   85     0    12     0     0
SMALL
NO_CHARGES


@<TRIPOS>ATOM
      1 N           5.4490   -6.5975   25.0205 N.am      2 SEC2        0.0000 
      2 N           5.3350   -6.7150   23.6220 N.am     10 SEL2        0.0000 
      3 N           5.5630   -6.4800   26.4190 N.am      6 SEP2        0.0000 
      4 CA          3.9525   -2.4015   21.5490 C.3       4 GLC5        0.0000 
      5 CA          3.5960   -4.3960   22.5150 C.3      12 GLL5        0.0000 
      6 CA          4.3090   -0.4070   20.5830 C.3       8 GLP5        0.0000 
      7 O           0.1340   -6.1425   24.4275 O.2       1 ALC1        0.0000 
      8 O           1.2870   -6.2570   23.5060 O.2       9 ALL1        0.0000 
      9 O          -1.0190   -6.0280   25.3490 O.2       5 ALP1        0.0000 
     10 CA          0.8310   -2.3575   20.2950 C.3       4 GLC5        0.0000 
     11 CA          0.3640   -4.4250   20.5020 C.3      12 GLL5        0.0000 
     12 CA          1.2980   -0.2900   20.0880 C.3       8 GLP5        0.0000 
     13 CA         -2.8565   -4.1825   17.3300 C.3       4 GLC5        0.0000 
     14 CA         -1.6230   -2.8290   16.9090 C.3      12 GLL5        0.0000 
     15 CA         -4.0900   -5.5360   17.7510 C.3       8 GLP5        0.0000 
     16 CA         -1.6075   -0.7730   16.7105 C.3       4 GLC5        0.0000 
     17 CA         -1.5920    1.2830   16.5120 C.3       8 GLP5        0.0000 
     18 CA          0.2500   -2.4800   16.0980 C.3       4 GLC5        0.0000 
     19 CA          2.1230   -2.1310   15.2870 C.3       8 GLP5        0.0000 
     20 N           7.4465   -4.5760   26.1135 N.am      2 SEC2        0.0000 
     21 N           7.5490   -4.5370   24.5710 N.am     10 SEL2        0.0000 
     22 N           7.3440   -4.6150   27.6560 N.am      6 SEP2        0.0000 
     23 N           6.4470   -3.8365   24.8840 N.am      2 SEC2        0.0000 
     24 N           5.3450   -3.1360   25.1970 N.am      6 SEP2        0.0000 
     25 CA          7.4540   -2.5525   20.9185 C.3       4 GLC5        0.0000 
     26 CA          8.2360   -2.2050   22.9290 C.3      12 GLL5        0.0000 
     27 CA          6.6720   -2.9000   18.9080 C.3       8 GLP5        0.0000 
     28 CA          8.2570   -1.9610   20.1015 C.3       4 GLC5        0.0000 
     29 CA          9.8420   -1.0220   21.2950 C.3      12 GLL5        0.0000 
     30 N          11.3865    0.7975   20.3760 N.am      2 SEC2        0.0000 
     31 N          10.1430    0.3310   21.0160 N.am     10 SEL2        0.0000 
     32 N          12.6300    1.2640   19.7360 N.am      6 SEP2        0.0000 
     33 O           8.9995    0.9770   21.2575 O.2       1 ALC1        0.0000 
     34 O          10.1430    0.3310   21.0160 O.2       9 ALL1        0.0000 
     35 O           7.8560    1.6230   21.4990 O.2       5 ALP1        0.0000 
     36 N          12.2680   -0.1480   19.9860 N.am      2 SEC2        0.0000 
     37 N          11.9060   -1.5600   20.2360 N.am     10 SEL2        0.0000 
     38 CA         11.9290   -2.0050   24.6820 C.3       4 GLC5        0.0000 
     39 CA         11.5980   -1.8160   22.6540 C.3      12 GLL5        0.0000 
     40 CA         12.2600   -2.1940   26.7100 C.3       8 GLP5        0.0000 
     41 N          16.8900   -4.0505   26.6565 N.am      2 SEC2        0.0000 
     42 N          16.5220   -4.1100   25.2750 N.am     10 SEL2        0.0000 
     43 N          17.2580   -3.9910   28.0380 N.am      6 SEP2        0.0000 
     44 O          15.1145   -0.7305   25.0365 O.2       1 ALC1        0.0000 
     45 O          16.0340   -1.9170   25.0530 O.2       9 ALL1        0.0000 
     46 O          14.1950    0.4560   25.0200 O.2       5 ALP1        0.0000 
     47 O          16.8835   -1.2785   25.9460 O.2       1 ALC1        0.0000 
     48 O          17.7330   -0.6400   26.8390 O.2       5 ALP1        0.0000 
     49 CA         12.4410   -6.6180   21.8870 C.3       4 GLC5        0.0000 
     50 CA         12.9070   -5.2960   23.4180 C.3      12 GLL5        0.0000 
     51 CA         11.9750   -7.9400   20.3560 C.3       8 GLP5        0.0000 
     52 NZ         -2.1155   -7.5725   20.7305 N.4       3 LYC4        0.0000 
     53 NZ         -2.4000   -7.1780   22.1330 N.4      11 LYL4        0.0000 
     54 NZ         -2.5440   -7.3540   18.3880 N.4       7 LYP4        0.0000 
     55 N          -2.1155   -7.5725   20.7305 N.am      2 SEC2        0.0000 
     56 N          -2.4000   -7.1780   22.1330 N.am     10 SEL2        0.0000 
     57 N          -1.8310   -7.9670   19.3280 N.am      6 SEP2        0.0000 
     58 N          -3.2645   -7.9350   22.8295 N.am      2 SEC2        0.0000 
     59 N          -4.1290   -8.6920   23.5260 N.am      6 SEP2        0.0000 
     60 N          -1.9945   -5.6230   24.5130 N.am      2 SEC2        0.0000 
     61 N          -2.9700   -5.2180   23.6770 N.am     10 SEL2        0.0000 
     62 N          -1.0190   -6.0280   25.3490 N.am      6 SEP2        0.0000 
     63 N          -4.2500   -5.1925   23.9845 N.am      2 SEC2        0.0000 
     64 N          -5.5300   -5.1670   24.2920 N.am      6 SEP2        0.0000 
     65 NZ         -3.1765   -5.6115   19.9450 N.4       3 LYC4        0.0000 
     66 NZ         -3.0850   -4.9390   21.1910 N.4      11 LYL4        0.0000 
     67 N          -4.5915   -4.5485   21.3205 N.am      2 SEC2        0.0000 
     68 N          -3.0850   -4.9390   21.1910 N.am     10 SEL2        0.0000 
     69 N          -6.0980   -4.1580   21.4500 N.am      6 SEP2        0.0000 
     70 N          -3.1765   -5.6115   19.9450 N.am      2 SEC2        0.0000 
     71 N          -3.2680   -6.2840   18.6990 N.am      6 SEP2        0.0000 
     72 CA          1.8587   -2.8965   23.1515 C.3       4 GLC5        0.0000 
     73 CA          2.1270   -4.4320   22.1970 C.3      12 GLL5        0.0000 
     74 CA          0.8560   -1.3790   23.9470 C.3       8 GLP5        0.0000 
     75 CA          2.7631   -5.3257   24.1190 C.3       4 GLC5        0.0000 
     76 CA          3.3860   -5.5560   25.9700 C.3       8 GLP5        0.0000 
     77 CA         -2.2211   -5.0527   17.4789 C.3       4 GLC5        0.0000 
     78 CA         -0.0740   -5.0720   16.9530 C.3      12 GLL5        0.0000 
     79 CA          0.8854   -3.3502   16.2469 C.3       4 GLC5        0.0000 
     80 CA         -0.3340   -4.2750   18.0730 C.3      12 GLL5        0.0000 
     81 CA          8.5008   -1.6997   24.8287 C.3       4 GLC5        0.0000 
     82 CA          8.1990   -1.6880   26.8120 C.3       8 GLP5        0.0000 
     83 CA         14.7228   -4.7085   26.0838 C.3       4 GLC5        0.0000 
     84 CA         14.5530   -3.5880   24.0610 C.3      12 GLL5        0.0000 
     85 CA         15.0740   -5.1410   28.1860 C.3       8 GLP5        0.0000 
@<TRIPOS>BOND
@<TRIPOS>SUBSTRUCTURE
     1 ALC1        7 GROUP        1 X    ALC  0     ROOT ALC X 1
     2 SEC2        1 GROUP        1 X    SEC  0     **** SEC X 2
     3 LYC4       52 GROUP        1 X    LYC  0     **** LYC X 4
     4 GLC5        4 GROUP        1 X    GLC  0     **** GLC X 6
     5 ALP1        9 GROUP        1 Y    ALP  0     ROOT ALP Y 8
     6 SEP2        3 GROUP        1 Y    SEP  0     **** SEP Y 9
     7 LYP4       54 GROUP        1 Y    LYP  0     **** LYP Y 11
     8 GLP5        6 GROUP        1 Y    GLP  0     **** GLP Y 13
     9 ALL1        8 GROUP        1 Z    ALL  0     ROOT ALL Z 15
    10 SEL2        2 GROUP        1 Z    SEL  0     **** SEL Z 16
    11 LYL4       53 GROUP        1 Z    LYL  0     **** LYL Z 18
    12 GLL5        5 GROUP        1 Z    GLL  0     **** GLL Z 20
@<TRIPOS>SET

