#    Name: 2r6j_NDP_1_ligand
#    Modification time : Mon Mar 24 23:16:37 2014

@<TRIPOS>MOLECULE
2r6j_NDP_1_ligand
   74    78     1     0     0
SMALL
NO_CHARGES


@<TRIPOS>ATOM
      1 PA          5.5370   -6.1560   22.2700 P.3       1 NDP401      0.0000 
      2 O1A         5.9840   -7.0160   21.1500 O.co2     1 NDP401      0.0000 
      3 O2A         5.3350   -6.7150   23.6220 O.co2     1 NDP401      0.0000 
      4 O5B         4.2260   -5.4180   21.7150 O.3       1 NDP401      0.0000 
      5 C5B         3.5960   -4.3960   22.5150 C.3       1 NDP401      0.0000 
      6 C4B         2.1270   -4.4320   22.1970 C.3       1 NDP401      0.0000 
      7 O4B         1.6850   -4.0070   20.8020 O.3       1 NDP401      0.0000 
      8 C3B         1.4190   -5.7770   22.1800 C.3       1 NDP401      0.0000 
      9 O3B         1.2870   -6.2570   23.5060 O.3       1 NDP401      0.0000 
     10 C2B         0.0720   -5.5320   21.5030 C.3       1 NDP401      0.0000 
     11 O2B        -0.9200   -5.1490   22.4260 O.3       1 NDP401      0.0000 
     12 C1B         0.3640   -4.4250   20.5020 C.3       1 NDP401      0.0000 
     13 N9A         0.3220   -4.8630   19.0990 N.pl3     1 NDP401      0.0000 
     14 C8A         0.9550   -5.9790   18.5530 C.2       1 NDP401      0.0000 
     15 N7A         0.7320   -6.1240   17.2630 N.2       1 NDP401      0.0000 
     16 C5A        -0.0740   -5.0720   16.9530 C.ar      1 NDP401      0.0000 
     17 C6A        -0.6670   -4.6560   15.7280 C.ar      1 NDP401      0.0000 
     18 N6A        -0.4860   -5.3430   14.5950 N.pl3     1 NDP401      0.0000 
     19 N1A        -1.4400   -3.5240   15.7530 N.ar      1 NDP401      0.0000 
     20 C2A        -1.6230   -2.8290   16.9090 C.ar      1 NDP401      0.0000 
     21 N3A        -1.1040   -3.1390   18.1290 N.ar      1 NDP401      0.0000 
     22 C4A        -0.3340   -4.2750   18.0730 C.ar      1 NDP401      0.0000 
     23 O3          6.5590   -4.8770   22.3250 O.3       1 NDP401      0.0000 
     24 PN          7.9300   -4.8180   23.1650 P.3       1 NDP401      0.0000 
     25 O1N         8.7500   -6.0390   22.9300 O.co2     1 NDP401      0.0000 
     26 O2N         7.5490   -4.5370   24.5710 O.co2     1 NDP401      0.0000 
     27 O5D         8.6680   -3.5310   22.5820 O.3       1 NDP401      0.0000 
     28 C5D         8.2360   -2.2050   22.9290 C.3       1 NDP401      0.0000 
     29 C4D         9.3690   -1.2180   22.7620 C.3       1 NDP401      0.0000 
     30 O4D        10.4990   -1.6560   23.5640 O.3       1 NDP401      0.0000 
     31 C3D         9.8420   -1.0220   21.2950 C.3       1 NDP401      0.0000 
     32 O3D        10.1430    0.3310   21.0160 O.3       1 NDP401      0.0000 
     33 C2D        11.0210   -1.9450   21.2740 C.3       1 NDP401      0.0000 
     34 O2D        11.9060   -1.5600   20.2360 O.3       1 NDP401      0.0000 
     35 C1D        11.5980   -1.8160   22.6540 C.3       1 NDP401      0.0000 
     36 N1N        12.4840   -2.9500   23.0060 N.pl3     1 NDP401      0.0000 
     37 C2N        13.7250   -2.6080   23.5170 C.2       1 NDP401      0.0000 
     38 C3N        14.5530   -3.5880   24.0610 C.2       1 NDP401      0.0000 
     39 C7N        15.7900   -3.2220   24.8490 C.2       1 NDP401      0.0000 
     40 O7N        16.5220   -4.1100   25.2750 O.2       1 NDP401      0.0000 
     41 N7N        16.0340   -1.9170   25.0530 N.am      1 NDP401      0.0000 
     42 C4N        14.1900   -4.9640   23.9020 C.3       1 NDP401      0.0000 
     43 C5N        12.9070   -5.2960   23.4180 C.2       1 NDP401      0.0000 
     44 C6N        12.0260   -4.2780   23.0300 C.2       1 NDP401      0.0000 
     45 P2B        -2.4420   -5.6780   22.3520 P.3       1 NDP401      0.0000 
     46 O1X        -2.4000   -7.1780   22.1330 O.co2     1 NDP401      0.0000 
     47 O2X        -2.9700   -5.2180   23.6770 O.co2     1 NDP401      0.0000 
     48 O3X        -3.0850   -4.9390   21.1910 O.co2     1 NDP401      0.0000 
     49 H           3.9831   -3.4109   22.2735 H         1 NDP401      0.0000 
     50 H           3.7301   -4.5860   23.5754 H         1 NDP401      0.0000 
     51 H           1.5394   -3.8043   22.8860 H         1 NDP401      0.0000 
     52 H           1.9925   -6.4354   21.5534 H         1 NDP401      0.0000 
     53 H          -0.1740   -6.4153   20.9466 H         1 NDP401      0.0000 
     54 H          -0.3261   -3.6229   20.6753 H         1 NDP401      0.0000 
     55 H           1.5117   -6.5816   19.1164 H         1 NDP401      0.0000 
     56 H           0.1060   -6.1465   14.6574 H         1 NDP401      0.0000 
     57 H          -0.9589   -4.9916   13.7870 H         1 NDP401      0.0000 
     58 H          -2.2420   -1.9426   16.8530 H         1 NDP401      0.0000 
     59 H           7.8912   -2.1590   23.9723 H         1 NDP401      0.0000 
     60 H           7.4001   -1.8795   22.2928 H         1 NDP401      0.0000 
     61 H           9.0358   -0.2412   23.1276 H         1 NDP401      0.0000 
     62 H           9.0739   -1.4453   20.6813 H         1 NDP401      0.0000 
     63 H          10.6443   -2.9451   21.1550 H         1 NDP401      0.0000 
     64 H          12.1980   -0.8856   22.6581 H         1 NDP401      0.0000 
     65 H          14.0403   -1.6276   23.4967 H         1 NDP401      0.0000 
     66 H          16.8570   -1.7001   25.5780 H         1 NDP401      0.0000 
     67 H          15.3709   -1.2789   24.6617 H         1 NDP401      0.0000 
     68 H          14.3658   -5.5024   24.9040 H         1 NDP401      0.0000 
     69 H          14.9847   -5.4738   23.2438 H         1 NDP401      0.0000 
     70 H          12.6258   -6.2755   23.3524 H         1 NDP401      0.0000 
     71 H          11.0667   -4.4958   22.7687 H         1 NDP401      0.0000 
     72 H           0.3818   -5.9526   23.8024 H         1 NDP401      0.0000 
     73 H           9.2804    0.7287   20.7034 H         1 NDP401      0.0000 
     74 H          11.8575   -2.3013   19.5665 H         1 NDP401      0.0000 
@<TRIPOS>BOND
     1    2    1 ar   
     2    3    1 ar   
     3    4    1 1    
     4   23    1 1    
     5    5    4 1    
     6    6    5 1    
     7   49    5 1    
     8   50    5 1    
     9    7    6 1    
    10    8    6 1    
    11   51    6 1    
    12   12    7 1    
    13    9    8 1    
    14   10    8 1    
    15   52    8 1    
    16   72    9 1    
    17   11   10 1    
    18   12   10 1    
    19   53   10 1    
    20   45   11 1    
    21   13   12 1    
    22   54   12 1    
    23   14   13 1    
    24   22   13 1    
    25   15   14 2    
    26   55   14 1    
    27   16   15 1    
    28   17   16 ar   
    29   22   16 ar   
    30   18   17 1    
    31   19   17 ar   
    32   56   18 1    
    33   57   18 1    
    34   20   19 ar   
    35   21   20 ar   
    36   58   20 1    
    37   22   21 ar   
    38   24   23 1    
    39   25   24 ar   
    40   26   24 ar   
    41   27   24 1    
    42   28   27 1    
    43   29   28 1    
    44   59   28 1    
    45   60   28 1    
    46   30   29 1    
    47   31   29 1    
    48   61   29 1    
    49   35   30 1    
    50   32   31 1    
    51   33   31 1    
    52   62   31 1    
    53   73   32 1    
    54   34   33 1    
    55   35   33 1    
    56   63   33 1    
    57   74   34 1    
    58   36   35 1    
    59   64   35 1    
    60   37   36 1    
    61   44   36 1    
    62   38   37 2    
    63   65   37 1    
    64   39   38 1    
    65   42   38 1    
    66   40   39 2    
    67   41   39 am   
    68   66   41 1    
    69   67   41 1    
    70   43   42 1    
    71   68   42 1    
    72   69   42 1    
    73   44   43 2    
    74   70   43 1    
    75   71   44 1    
    76   46   45 ar   
    77   47   45 ar   
    78   48   45 ar   
@<TRIPOS>SUBSTRUCTURE
     1 NDP401      1 GROUP   
@<TRIPOS>SET

