#    Name: 3RLY_1_CAVITY_N1_6.mol2
#    Modification time : Mon Mar 10 20:48:46 2014

@<TRIPOS>MOLECULE
3RLY_1_CAVITY_N1_6.mol2
   79     0     7     0     0
SMALL
NO_CHARGES


@<TRIPOS>ATOM
      1 N          15.3564  -17.2149   21.8794 N.2       2 ALA2        0.0000 
      2 DU         14.1262  -17.4284   21.0482 H         7 CUB7        0.0000 
      3 N          17.7020  -15.3072   23.3317 N.2       2 ALA2        0.0000 
      4 DU         18.5524  -15.4157   22.1008 H         7 CUB7        0.0000 
      5 N          16.4717  -15.5207   22.5005 N.2       2 ALA2        0.0000 
      6 CZ         17.3221  -15.6292   21.2697 C.ar      5 PHE5        0.0000 
      7 N          15.2414  -15.7342   21.6694 N.2       2 ALA2        0.0000 
      8 CZ         16.0918  -15.8427   20.4385 C.ar      5 PHE5        0.0000 
      9 N          13.1607  -15.8391   22.0691 N.2       2 ALA2        0.0000 
     10 N          14.0111  -15.9476   20.8382 N.2       2 ALA2        0.0000 
     11 DU         14.8615  -16.0561   19.6073 H         7 CUB7        0.0000 
     12 N          11.9304  -16.0526   21.2379 N.2       2 ALA2        0.0000 
     13 DU         12.7808  -16.1611   20.0070 H         7 CUB7        0.0000 
     14 NZ         14.4816  -16.3781   17.5453 N.2       4 LYS4        0.0000 
     15 CA         17.5869  -13.8265   23.1217 C.3       6 GLY6        0.0000 
     16 CA         18.4373  -13.9350   21.8908 C.3       6 GLY6        0.0000 
     17 N          16.3566  -14.0399   22.2905 N.2       2 ALA2        0.0000 
     18 DU         17.2070  -14.1484   21.0596 H         7 CUB7        0.0000 
     19 CZ         18.0574  -14.2570   19.8288 C.ar      5 PHE5        0.0000 
     20 N          15.1264  -14.2534   21.4593 N.2       2 ALA2        0.0000 
     21 DU         15.9768  -14.3619   20.2285 H         7 CUB7        0.0000 
     22 CZ         16.8272  -14.4704   18.9976 C.ar      5 PHE5        0.0000 
     23 N          13.0457  -14.3583   21.8590 N.2       2 ALA2        0.0000 
     24 N          13.8961  -14.4669   20.6282 N.2       2 ALA2        0.0000 
     25 DU         14.7465  -14.5754   19.3973 H         7 CUB7        0.0000 
     26 CZ         15.5969  -14.6839   18.1664 C.ar      5 PHE5        0.0000 
     27 CZ         16.4473  -14.7924   16.9355 C.ar      5 PHE5        0.0000 
     28 CA         11.8154  -14.5718   21.0279 C.3       6 GLY6        0.0000 
     29 O          12.6658  -14.6803   19.7970 O.2       2 ALA2        0.0000 
     30 CA         13.5162  -14.7888   18.5661 C.3       6 GLY6        0.0000 
     31 NZ         15.2170  -15.0059   16.1044 N.2       4 LYS4        0.0000 
     32 O          11.4355  -14.8938   18.9658 O.2       2 ALA2        0.0000 
     33 CA         18.3223  -12.4542   21.6808 C.3       6 GLY6        0.0000 
     34 CA         16.2416  -12.5592   22.0805 C.3       6 GLY6        0.0000 
     35 N          17.0920  -12.6677   20.8496 N.2       2 ALA2        0.0000 
     36 N          17.9424  -12.7762   19.6187 N.2       2 ALA2        0.0000 
     37 CZ         18.7928  -12.8847   18.3879 C.ar      5 PHE5        0.0000 
     38 O          14.1609  -12.6641   22.4802 O.2       2 ALA2        0.0000 
     39 CA         15.0113  -12.7726   21.2493 C.3       6 GLY6        0.0000 
     40 DU         15.8617  -12.8811   20.0184 H         7 CUB7        0.0000 
     41 CZ         16.7121  -12.9897   18.7876 C.ar      5 PHE5        0.0000 
     42 CZ         17.5625  -13.0982   17.5567 C.ar      5 PHE5        0.0000 
     43 N          12.0802  -12.7691   22.8799 N.2       2 ALA2        0.0000 
     44 O          12.9306  -12.8776   21.6490 O.2       2 ALA2        0.0000 
     45 O          13.7810  -12.9861   20.4181 O.2       2 ALA2        0.0000 
     46 CA         14.6314  -13.0946   19.1873 C.3       6 GLY6        0.0000 
     47 OG         15.4818  -13.2031   17.9564 O.2       1 SER1        0.0000 
     48 CZ         16.3322  -13.3116   16.7255 C.ar      5 PHE5        0.0000 
     49 CZ         17.1826  -13.4202   15.4946 C.ar      5 PHE5        0.0000 
     50 OD1        18.0330  -13.5287   14.2638 O.3       3 ASP3        0.0000 
     51 CA         10.8500  -12.9825   22.0487 C.3       6 GLY6        0.0000 
     52 O          11.7004  -13.0911   20.8178 O.2       2 ALA2        0.0000 
     53 CA         14.2516  -13.4166   17.1252 C.3       6 GLY6        0.0000 
     54 CA         15.1020  -13.5251   15.8944 C.3       6 GLY6        0.0000 
     55 NZ         15.9524  -13.6336   14.6635 N.2       4 LYS4        0.0000 
     56 NZ         14.7221  -13.8471   13.8323 N.2       4 LYS4        0.0000 
     57 CA         14.0459  -11.1834   22.2702 C.3       6 GLY6        0.0000 
     58 N          14.8963  -11.2919   21.0393 N.2       2 ALA2        0.0000 
     59 OG         15.7467  -11.4004   19.8084 O.2       1 SER1        0.0000 
     60 OG         16.5971  -11.5089   18.5775 O.2       1 SER1        0.0000 
     61 N          17.4475  -11.6174   17.3467 N.2       2 ALA2        0.0000 
     62 OD1        18.2979  -11.7259   16.1158 O.3       3 ASP3        0.0000 
     63 N          11.9652  -11.2883   22.6699 N.2       2 ALA2        0.0000 
     64 N          12.8156  -11.3968   21.4390 N.2       2 ALA2        0.0000 
     65 OG         13.6660  -11.5053   20.2081 O.2       1 SER1        0.0000 
     66 OG         14.5164  -11.6139   18.9772 O.2       1 SER1        0.0000 
     67 OG         16.2172  -11.8309   16.5155 O.2       1 SER1        0.0000 
     68 OD1        17.0676  -11.9394   15.2846 O.3       3 ASP3        0.0000 
     69 CA         10.7349  -11.5018   21.8387 C.3       6 GLY6        0.0000 
     70 CA         14.1365  -11.9358   16.9152 C.3       6 GLY6        0.0000 
     71 O          14.9869  -12.0443   15.6843 O.2       2 ALA2        0.0000 
     72 DU         15.8373  -12.1529   14.4535 H         7 CUB7        0.0000 
     73 O          13.9308   -9.7026   22.0601 O.2       2 ALA2        0.0000 
     74 N          14.7812   -9.8111   20.8293 N.2       2 ALA2        0.0000 
     75 CA         12.7006   -9.9161   21.2290 C.3       6 GLY6        0.0000 
     76 OG         13.5510  -10.0246   19.9981 O.2       1 SER1        0.0000 
     77 OG         16.9526  -10.4586   15.0746 O.2       1 SER1        0.0000 
     78 OG         14.8719  -10.5636   15.4743 O.2       1 SER1        0.0000 
     79 N          15.7223  -10.6721   14.2434 N.2       2 ALA2        0.0000 
@<TRIPOS>BOND
@<TRIPOS>SUBSTRUCTURE
     1 SER1       47 GROUP   
     2 ALA2        1 GROUP   
     3 ASP3       50 GROUP   
     4 LYS4       14 GROUP   
     5 PHE5        6 GROUP   
     6 GLY6       15 GROUP   
     7 CUB7        2 GROUP   
@<TRIPOS>SET

