#    Name: 3rly_S29_1_INTS_M
#    Modification time : Tue Mar 25 11:40:25 2014

@<TRIPOS>MOLECULE
3rly_S29_1_INTS_M
   74     0     9     0     0
SMALL
NO_CHARGES


@<TRIPOS>ATOM
      1 CA          9.9175  -18.0595   20.3120 C.3       3 GLC5        0.0000 
      2 CA         11.5750  -16.8930   19.6290 C.3       9 GLL5        0.0000 
      3 CA          8.2600  -19.2260   20.9950 C.3       6 GLP5        0.0000 
      4 CA          9.8460  -15.5730   19.4600 C.3       3 GLC5        0.0000 
      5 CA          8.1170  -14.2530   19.2910 C.3       6 GLP5        0.0000 
      6 N          13.2280  -17.8365   23.6550 N.am      2 SEC2        0.0000 
      7 N          14.4690  -18.0100   22.7920 N.am      8 SEL2        0.0000 
      8 N          11.9870  -17.6630   24.5180 N.am      5 SEP2        0.0000 
      9 CA         18.9040  -16.0035   26.6855 C.3       3 GLC5        0.0000 
     10 CA         18.3930  -15.8710   24.5810 C.3       9 GLL5        0.0000 
     11 CA         19.4150  -16.1360   28.7900 C.3       6 GLP5        0.0000 
     12 CA         17.8280  -14.4365   26.0345 C.3       3 GLC5        0.0000 
     13 CA         17.2630  -13.0020   27.4880 C.3       6 GLP5        0.0000 
     14 N          15.7375  -13.2800   23.9220 N.am      2 SEC2        0.0000 
     15 N          16.6550  -13.9400   22.8650 N.am      8 SEL2        0.0000 
     16 N          14.8200  -12.6200   24.9790 N.am      5 SEP2        0.0000 
     17 CA         18.0130  -12.1975   22.8410 C.3       3 GLC5        0.0000 
     18 CA         18.4710  -13.0180   21.0670 C.3       9 GLL5        0.0000 
     19 CA         17.5550  -11.3770   24.6150 C.3       6 GLP5        0.0000 
     20 CA         19.4785  -11.3295   19.0695 C.3       3 GLC5        0.0000 
     21 CA         19.6560  -13.0010   20.1060 C.3       9 GLL5        0.0000 
     22 CA         19.3010   -9.6580   18.0330 C.3       6 GLP5        0.0000 
     23 O          16.9025  -10.5685   21.2785 O.2       1 ALC1        0.0000 
     24 O          16.5130  -11.7430   20.4120 O.2       7 ALL1        0.0000 
     25 O          17.2920   -9.3940   22.1450 O.2       4 ALP1        0.0000 
     26 CA         15.2945   -9.7375   18.4815 C.3       3 GLC5        0.0000 
     27 CA         15.2360  -11.4580   19.7580 C.3       9 GLL5        0.0000 
     28 CA         15.3530   -8.0170   17.2050 C.3       6 GLP5        0.0000 
     29 CA         12.4755  -12.6255   19.0520 C.3       3 GLC5        0.0000 
     30 CA         13.4310  -12.6390   21.0600 C.3       9 GLL5        0.0000 
     31 CA         11.5200  -12.6120   17.0440 C.3       6 GLP5        0.0000 
     32 CA         10.6985  -13.7360   21.5585 C.3       3 GLC5        0.0000 
     33 CA         12.4350  -12.6830   22.0300 C.3       9 GLL5        0.0000 
     34 CA          8.9620  -14.7890   21.0870 C.3       6 GLP5        0.0000 
     35 CA         10.0910   -9.7275   22.9740 C.3       3 GLC5        0.0000 
     36 CA         11.0580  -11.5370   23.8160 C.3       9 GLL5        0.0000 
     37 CA          9.1240   -7.9180   22.1320 C.3       6 GLP5        0.0000 
     38 CA         11.1050  -10.5845   25.8350 C.3       3 GLC5        0.0000 
     39 CA         11.1520   -9.6320   27.8540 C.3       6 GLP5        0.0000 
     40 O           9.2370  -12.4875   24.8630 O.2       1 ALC1        0.0000 
     41 O          10.4210  -12.5900   24.1340 O.2       7 ALL1        0.0000 
     42 O           8.0530  -12.3850   25.5920 O.2       4 ALP1        0.0000 
     43 O          10.5160  -14.0170   23.9640 O.2       1 ALC1        0.0000 
     44 O          10.6110  -15.4440   23.7940 O.2       4 ALP1        0.0000 
     45 O           9.5000  -10.3005   25.0600 O.2       1 ALC1        0.0000 
     46 O          10.8000  -10.4030   24.4600 O.2       7 ALL1        0.0000 
     47 O           8.2000  -10.1980   25.6600 O.2       4 ALP1        0.0000 
     48 CA         10.9805   -9.1490   22.3130 C.3       3 GLC5        0.0000 
     49 CA         12.8370  -10.3800   22.4940 C.3       9 GLL5        0.0000 
     50 CA         11.8583  -15.5437   17.6990 C.3       3 GLC5        0.0000 
     51 CA         13.3670  -17.1480   18.0440 C.3       9 GLL5        0.0000 
     52 CA         11.5830  -14.0460   16.4840 C.3       6 GLP5        0.0000 
     53 CA         11.3667  -17.2638   21.9838 C.3       3 GLC5        0.0000 
     54 CA         10.7050  -17.8430   23.8540 C.3       6 GLP5        0.0000 
     55 CA         10.4952  -15.7368   20.6003 C.3       3 GLC5        0.0000 
     56 CA         12.4820  -16.4760   20.5980 C.3       9 GLL5        0.0000 
     57 CA         21.9928  -14.7630   20.3655 C.3       3 GLC5        0.0000 
     58 CA         20.5850  -14.1070   20.5770 C.3       9 GLL5        0.0000 
     59 CA         23.8400  -14.9190   19.7870 C.3       6 GLP5        0.0000 
     60 CA         20.3651  -11.9941   21.6399 C.3       3 GLC5        0.0000 
     61 CA         20.9060  -10.4300   22.6980 C.3       6 GLP5        0.0000 
     62 CA         19.3931  -15.2797   19.3481 C.3       3 GLC5        0.0000 
     63 CA         18.8730  -16.2290   17.8700 C.3       6 GLP5        0.0000 
     64 CA         15.0895  -10.8517   22.6780 C.3       3 GLC5        0.0000 
     65 CA         14.1410  -11.4770   20.8000 C.3       9 GLL5        0.0000 
     66 CA         16.1910  -10.7980   24.1940 C.3       6 GLP5        0.0000 
     67 CA         14.3360  -10.8788   23.4108 C.3       3 GLC5        0.0000 
     68 CA         12.1250  -11.5390   22.7610 C.3       9 GLL5        0.0000 
     69 CA         10.4060  -11.7375   21.4854 C.3       3 GLC5        0.0000 
     70 CA          9.1430  -11.6510   19.8650 C.3       6 GLP5        0.0000 
     71 CA         12.9905   -8.6045   21.6580 C.3       3 GLC5        0.0000 
     72 CA         12.6450   -6.8520   21.3070 C.3       6 GLP5        0.0000 
     73 CA         13.0185  -12.1775   24.2824 C.3       3 GLC5        0.0000 
     74 CA         13.7840  -13.2530   25.7650 C.3       6 GLP5        0.0000 
@<TRIPOS>BOND
@<TRIPOS>SUBSTRUCTURE
     1 ALC1       23 GROUP        1 X    ALC  0     ROOT ALC X 1
     2 SEC2        6 GROUP        1 X    SEC  0     **** SEC X 2
     3 GLC5        1 GROUP        1 X    GLC  0     **** GLC X 6
     4 ALP1       25 GROUP        1 Y    ALP  0     ROOT ALP Y 8
     5 SEP2        8 GROUP        1 Y    SEP  0     **** SEP Y 9
     6 GLP5        3 GROUP        1 Y    GLP  0     **** GLP Y 13
     7 ALL1       24 GROUP        1 Z    ALL  0     ROOT ALL Z 15
     8 SEL2        7 GROUP        1 Z    SEL  0     **** SEL Z 16
     9 GLL5        2 GROUP        1 Z    GLL  0     **** GLL Z 20
@<TRIPOS>SET

