#    Name: 3rly_S29_1_ligand
#    Modification time : Tue Mar 25 11:40:25 2014

@<TRIPOS>MOLECULE
3rly_S29_1_ligand
   63    65     1     0     0
SMALL
NO_CHARGES


@<TRIPOS>ATOM
      1 C7         14.8440  -15.9480   21.3330 C.3       1 S291        0.0000 
      2 S8         15.5110  -17.2430   22.1730 S.o2      1 S291        0.0000 
      3 C6         13.8360  -16.3970   20.2930 C.ar      1 S291        0.0000 
      4 C1         14.2760  -16.7320   19.0150 C.ar      1 S291        0.0000 
      5 C2         13.3670  -17.1480   18.0440 C.ar      1 S291        0.0000 
      6 C3         12.0170  -17.2320   18.3540 C.ar      1 S291        0.0000 
      7 C4         11.5750  -16.8930   19.6290 C.ar      1 S291        0.0000 
      8 C5         12.4820  -16.4760   20.5980 C.ar      1 S291        0.0000 
      9 O13        16.3350  -18.0200   21.2800 O.2       1 S291        0.0000 
     10 O14        14.4690  -18.0100   22.7920 O.2       1 S291        0.0000 
     11 N9         16.4240  -16.6870   23.3810 N.pl3     1 S291        0.0000 
     12 C10        17.7130  -16.0290   23.2180 C.3       1 S291        0.0000 
     13 C33        18.3930  -15.8710   24.5810 C.3       1 S291        0.0000 
     14 C11        17.5980  -14.6740   22.5860 C.2       1 S291        0.0000 
     15 O15        16.6550  -13.9400   22.8650 O.2       1 S291        0.0000 
     16 N12        18.5400  -14.3170   21.7250 N.am      1 S291        0.0000 
     17 C16        18.4710  -13.0180   21.0670 C.3       1 S291        0.0000 
     18 C17        17.1700  -12.8970   20.3150 C.2       1 S291        0.0000 
     19 O18        16.7150  -13.8320   19.6660 O.2       1 S291        0.0000 
     20 C21        19.6560  -13.0010   20.1060 C.3       1 S291        0.0000 
     21 C22        20.5850  -14.1070   20.5770 C.3       1 S291        0.0000 
     22 C23        19.7060  -15.1070   21.3110 C.3       1 S291        0.0000 
     23 N19        16.5130  -11.7430   20.4120 N.am      1 S291        0.0000 
     24 C20        15.2360  -11.4580   19.7580 C.3       1 S291        0.0000 
     25 C24        14.1410  -11.4770   20.8000 C.ar      1 S291        0.0000 
     26 C31        13.4310  -12.6390   21.0600 C.ar      1 S291        0.0000 
     27 C29        12.4350  -12.6830   22.0300 C.ar      1 S291        0.0000 
     28 C28        12.1250  -11.5390   22.7610 C.ar      1 S291        0.0000 
     29 C26        11.0580  -11.5370   23.8160 C.2       1 S291        0.0000 
     30 N30        10.4210  -12.5900   24.1340 N.pl3     1 S291        0.0000 
     31 N32        10.8000  -10.4030   24.4600 N.pl3     1 S291        0.0000 
     32 C27        12.8370  -10.3800   22.4940 C.ar      1 S291        0.0000 
     33 C25        13.8350  -10.3340   21.5240 C.ar      1 S291        0.0000 
     34 H          15.6842  -15.4362   20.8837 H         1 S291        0.0000 
     35 H          14.3899  -15.3213   22.0885 H         1 S291        0.0000 
     36 H          15.2782  -16.6722   18.7857 H         1 S291        0.0000 
     37 H          13.6978  -17.3910   17.1028 H         1 S291        0.0000 
     38 H          11.3427  -17.5442   17.6434 H         1 S291        0.0000 
     39 H          10.5721  -16.9510   19.8564 H         1 S291        0.0000 
     40 H          12.1508  -16.2266   21.5385 H         1 S291        0.0000 
     41 H          16.0158  -16.8361   24.3051 H         1 S291        0.0000 
     42 H          18.3749  -16.6412   22.6053 H         1 S291        0.0000 
     43 H          18.5804  -12.2340   21.7641 H         1 S291        0.0000 
     44 H          20.1543  -12.0571   20.1675 H         1 S291        0.0000 
     45 H          19.3164  -13.2095   19.1139 H         1 S291        0.0000 
     46 H          21.3146  -13.7053   21.2495 H         1 S291        0.0000 
     47 H          21.0427  -14.5797   19.7325 H         1 S291        0.0000 
     48 H          19.4251  -15.8864   20.6357 H         1 S291        0.0000 
     49 H          20.2382  -15.4840   22.1578 H         1 S291        0.0000 
     50 H          16.8984  -10.9429   20.9907 H         1 S291        0.0000 
     51 H          15.0133  -12.2089   19.0008 H         1 S291        0.0000 
     52 H          15.2542  -10.4766   19.2855 H         1 S291        0.0000 
     53 H          13.6468  -13.4999   20.5176 H         1 S291        0.0000 
     54 H          11.9278  -13.5589   22.2076 H         1 S291        0.0000 
     55 H           9.7563  -12.4953   24.8751 H         1 S291        0.0000 
     56 H          10.6446  -13.4138   23.6131 H         1 S291        0.0000 
     57 H          10.0931  -10.4488   25.1658 H         1 S291        0.0000 
     58 H          11.3361   -9.6065   24.1805 H         1 S291        0.0000 
     59 H          12.6207   -9.5149   23.0345 H         1 S291        0.0000 
     60 H          14.3398   -9.4584   21.3476 H         1 S291        0.0000 
     61 H          19.2843  -15.4245   24.5019 H         1 S291        0.0000 
     62 H          17.8435  -15.3193   25.2085 H         1 S291        0.0000 
     63 H          18.5459  -16.7542   25.0244 H         1 S291        0.0000 
@<TRIPOS>BOND
     1    2    1 1    
     2    3    1 1    
     3   34    1 1    
     4   35    1 1    
     5    9    2 2    
     6   10    2 2    
     7   11    2 1    
     8    4    3 ar   
     9    8    3 ar   
    10    5    4 ar   
    11   36    4 1    
    12    6    5 ar   
    13   37    5 1    
    14    7    6 ar   
    15   38    6 1    
    16    8    7 ar   
    17   39    7 1    
    18   40    8 1    
    19   12   11 1    
    20   41   11 1    
    21   13   12 1    
    22   14   12 1    
    23   42   12 1    
    24   61   13 1    
    25   62   13 1    
    26   63   13 1    
    27   15   14 2    
    28   16   14 am   
    29   17   16 1    
    30   22   16 1    
    31   18   17 1    
    32   20   17 1    
    33   43   17 1    
    34   19   18 2    
    35   23   18 am   
    36   21   20 1    
    37   44   20 1    
    38   45   20 1    
    39   22   21 1    
    40   46   21 1    
    41   47   21 1    
    42   48   22 1    
    43   49   22 1    
    44   24   23 1    
    45   50   23 1    
    46   25   24 1    
    47   51   24 1    
    48   52   24 1    
    49   26   25 ar   
    50   33   25 ar   
    51   27   26 ar   
    52   53   26 1    
    53   28   27 ar   
    54   54   27 1    
    55   29   28 1    
    56   32   28 ar   
    57   30   29 2    
    58   31   29 1    
    59   55   30 1    
    60   56   30 1    
    61   57   31 1    
    62   58   31 1    
    63   33   32 ar   
    64   59   32 1    
    65   60   33 1    
@<TRIPOS>SUBSTRUCTURE
     1 S291        1 GROUP   
@<TRIPOS>SET

