#    Name: 2yfe_YFE_1_INTS_M
#    Modification time : Tue Mar 25 09:14:53 2014

@<TRIPOS>MOLECULE
2yfe_YFE_1_INTS_M
   74     0     6     0     0
SMALL
NO_CHARGES


@<TRIPOS>ATOM
      1 CA         16.0435   15.8130   44.1035 C.3       2 GLC5        0.0000 
      2 CA         16.2080   17.7330   43.3220 C.3       6 GLL5        0.0000 
      3 CA         15.8790   13.8930   44.8850 C.3       4 GLP5        0.0000 
      4 CA         17.0850   16.5985   48.5435 C.3       2 GLC5        0.0000 
      5 CA         17.2270   18.2660   47.0780 C.3       6 GLL5        0.0000 
      6 CA         16.9430   14.9310   50.0090 C.3       4 GLP5        0.0000 
      7 CA         13.3015   22.3430   48.5610 C.3       2 GLC5        0.0000 
      8 CA         15.3210   21.4570   48.1940 C.3       6 GLL5        0.0000 
      9 CA         11.2820   23.2290   48.9280 C.3       4 GLP5        0.0000 
     10 CA         12.3475   21.4295   48.6020 C.3       2 GLC5        0.0000 
     11 CA         13.4130   19.6300   48.2760 C.3       6 GLL5        0.0000 
     12 CA         13.7850   20.7755   46.3960 C.3       2 GLC5        0.0000 
     13 CA         14.1570   21.9210   44.5160 C.3       4 GLP5        0.0000 
     14 CA         11.6495   19.5875   49.1410 C.3       2 GLC5        0.0000 
     15 CA          9.8860   19.5450   50.0060 C.3       4 GLP5        0.0000 
     16 CA         11.7135   20.0160   47.1115 C.3       2 GLC5        0.0000 
     17 CA         10.0140   20.4020   45.9470 C.3       4 GLP5        0.0000 
     18 CA         12.6695   18.1605   47.0430 C.3       2 GLC5        0.0000 
     19 CA         11.9260   16.6910   45.8100 C.3       4 GLP5        0.0000 
     20 CA         19.0455   21.1285   46.1660 C.3       2 GLC5        0.0000 
     21 CA         17.9230   20.5690   47.9840 C.3       6 GLL5        0.0000 
     22 CA         20.1680   21.6880   44.3480 C.3       4 GLP5        0.0000 
     23 N          20.6495   21.8940   50.0025 N.am      1 SEC2        0.0000 
     24 N          19.9900   22.2040   48.8470 N.am      5 SEL2        0.0000 
     25 N          21.3090   21.5840   51.1580 N.am      3 SEP2        0.0000 
     26 CA         15.9110   22.4970   46.4800 C.3       2 GLC5        0.0000 
     27 CA         16.3410   22.3180   48.5690 C.3       6 GLL5        0.0000 
     28 CA         15.4810   22.6760   44.3910 C.3       4 GLP5        0.0000 
     29 CA         15.9885   24.9220   47.4365 C.3       2 GLC5        0.0000 
     30 CA         15.9040   23.7170   49.0390 C.3       6 GLL5        0.0000 
     31 CA         16.0730   26.1270   45.8340 C.3       4 GLP5        0.0000 
     32 CA         13.0080   25.1890   50.7340 C.3       2 GLC5        0.0000 
     33 CA         15.1980   25.2300   50.9540 C.3       6 GLL5        0.0000 
     34 CA         10.8180   25.1480   50.5140 C.3       4 GLP5        0.0000 
     35 CA         15.4375   26.1510   47.9215 C.3       2 GLC5        0.0000 
     36 CA         14.8020   26.1750   50.0090 C.3       6 GLL5        0.0000 
     37 CA         12.8400   28.7190   49.6690 C.3       2 GLC5        0.0000 
     38 CA         14.3350   27.4320   50.4130 C.3       6 GLL5        0.0000 
     39 CA         11.3450   30.0060   48.9250 C.3       4 GLP5        0.0000 
     40 CA         12.5440   26.4445   51.1425 C.3       2 GLC5        0.0000 
     41 CA         14.2700   27.7410   51.7710 C.3       6 GLL5        0.0000 
     42 CA         15.1725   24.6660   54.2270 C.3       2 GLC5        0.0000 
     43 CA         15.1300   25.5470   52.3130 C.3       6 GLL5        0.0000 
     44 CA         15.2150   23.7850   56.1410 C.3       4 GLP5        0.0000 
     45 CA         19.3727   18.9932   44.4935 C.3       2 GLC5        0.0000 
     46 CA         17.1790   17.8100   44.5240 C.3       6 GLL5        0.0000 
     47 CA         20.8240   20.3260   44.6010 C.3       4 GLP5        0.0000 
     48 CA         17.9017   16.1043   45.3510 C.3       2 GLC5        0.0000 
     49 CA         18.6640   17.5110   44.2480 C.3       6 GLL5        0.0000 
     50 CA         17.8820   14.5480   46.3160 C.3       4 GLP5        0.0000 
     51 CA         15.3779   19.1394   44.2712 C.3       2 GLC5        0.0000 
     52 CA         14.0790   20.3340   43.6810 C.3       4 GLP5        0.0000 
     53 CA         17.4128   16.3700   46.3775 C.3       2 GLC5        0.0000 
     54 CA         16.6600   18.1180   45.8000 C.3       6 GLL5        0.0000 
     55 CA         16.7873   19.8462   49.5370 C.3       2 GLC5        0.0000 
     56 CA         16.9040   19.6930   47.6090 C.3       6 GLL5        0.0000 
     57 CA         17.3240   19.7620   51.4010 C.3       4 GLP5        0.0000 
     58 CA         14.8080   21.3667   46.2408 C.3       2 GLC5        0.0000 
     59 CA         15.5970   20.1680   47.7370 C.3       6 GLL5        0.0000 
     60 CA         16.5775   20.8248   49.8912 C.3       2 GLC5        0.0000 
     61 CA         17.5585   20.4890   49.8068 C.3       2 GLC5        0.0000 
     62 CA         17.6630   21.8630   48.4410 C.3       6 GLL5        0.0000 
     63 CA         13.1638   26.2082   49.2100 C.3       2 GLC5        0.0000 
     64 CA         11.7590   25.6130   48.2090 C.3       4 GLP5        0.0000 
     65 CA         12.8317   26.7105   53.3967 C.3       2 GLC5        0.0000 
     66 CA         11.1950   26.1530   54.5440 C.3       4 GLP5        0.0000 
     67 CA         14.7462   28.7290   53.7127 C.3       2 GLC5        0.0000 
     68 CA         14.6670   26.7950   52.7280 C.3       6 GLL5        0.0000 
     69 CA         15.0240   30.1900   55.1760 C.3       4 GLP5        0.0000 
     70 CA         16.3148   23.6401   52.4480 C.3       2 GLC5        0.0000 
     71 CA         17.3370   22.2400   53.3660 C.3       4 GLP5        0.0000 
     72 CA         14.2728   23.7606   52.2380 C.3       2 GLC5        0.0000 
     73 CA         15.7120   23.8370   50.5400 C.3       6 GLL5        0.0000 
     74 CA         13.2530   22.4810   52.9460 C.3       4 GLP5        0.0000 
@<TRIPOS>BOND
@<TRIPOS>SUBSTRUCTURE
     1 SEC2       23 GROUP        1 X    SEC  0     ROOT SEC X 2
     2 GLC5        1 GROUP        1 X    GLC  0     **** GLC X 6
     3 SEP2       25 GROUP        1 Y    SEP  0     ROOT SEP Y 9
     4 GLP5        3 GROUP        1 Y    GLP  0     **** GLP Y 13
     5 SEL2       24 GROUP        1 Z    SEL  0     ROOT SEL Z 16
     6 GLL5        2 GROUP        1 Z    GLL  0     **** GLL Z 20
@<TRIPOS>SET

