#    Name: 2yfe_YFE_1_ligand
#    Modification time : Tue Mar 25 09:14:53 2014

@<TRIPOS>MOLECULE
2yfe_YFE_1_ligand
   48    49     1     0     0
SMALL
NO_CHARGES


@<TRIPOS>ATOM
      1 CAB        18.6640   17.5110   44.2480 C.3       1 YFE999      0.0000 
      2 CAR        17.1790   17.8100   44.5240 C.2       1 YFE999      0.0000 
      3 CAC        16.2080   17.7330   43.3220 C.3       1 YFE999      0.0000 
      4 CAG        16.6600   18.1180   45.8000 C.2       1 YFE999      0.0000 
      5 CAN        17.2270   18.2660   47.0780 C.3       1 YFE999      0.0000 
      6 CAX        16.9040   19.6930   47.6090 C.ar      1 YFE999      0.0000 
      7 CAW        15.5970   20.1680   47.7370 C.ar      1 YFE999      0.0000 
      8 CAM        15.3210   21.4570   48.1940 C.ar      1 YFE999      0.0000 
      9 OAQ        14.5520   19.3570   47.4130 O.3       1 YFE999      0.0000 
     10 CAA        13.4130   19.6300   48.2760 C.3       1 YFE999      0.0000 
     11 CAU        17.9230   20.5690   47.9840 C.ar      1 YFE999      0.0000 
     12 OAF        19.2160   20.1590   47.8900 O.3       1 YFE999      0.0000 
     13 CAY        17.6630   21.8630   48.4410 C.ar      1 YFE999      0.0000 
     14 CAS        18.8620   22.7510   48.8280 C.2       1 YFE999      0.0000 
     15 OAE        19.9900   22.2040   48.8470 O.co2     1 YFE999      0.0000 
     16 OAD        18.6550   23.9480   49.1340 O.co2     1 YFE999      0.0000 
     17 CAV        16.3410   22.3180   48.5690 C.ar      1 YFE999      0.0000 
     18 CAP        15.9040   23.7170   49.0390 C.3       1 YFE999      0.0000 
     19 CAO        15.7120   23.8370   50.5400 C.3       1 YFE999      0.0000 
     20 CAT        15.1980   25.2300   50.9540 C.ar      1 YFE999      0.0000 
     21 CAK        14.8020   26.1750   50.0090 C.ar      1 YFE999      0.0000 
     22 CAI        14.3350   27.4320   50.4130 C.ar      1 YFE999      0.0000 
     23 CAH        14.2700   27.7410   51.7710 C.ar      1 YFE999      0.0000 
     24 CAJ        14.6670   26.7950   52.7280 C.ar      1 YFE999      0.0000 
     25 CAL        15.1300   25.5470   52.3130 C.ar      1 YFE999      0.0000 
     26 H          15.5460   18.2808   45.7905 H         1 YFE999      0.0000 
     27 H          18.3155   18.1699   47.0734 H         1 YFE999      0.0000 
     28 H          16.8224   17.5592   47.8065 H         1 YFE999      0.0000 
     29 H          14.3359   21.7726   48.2528 H         1 YFE999      0.0000 
     30 H          14.9615   23.9785   48.5287 H         1 YFE999      0.0000 
     31 H          16.6605   24.4489   48.7084 H         1 YFE999      0.0000 
     32 H          16.6639   23.6505   51.0473 H         1 YFE999      0.0000 
     33 H          14.9933   23.0841   50.8789 H         1 YFE999      0.0000 
     34 H          14.8521   25.9500   49.0055 H         1 YFE999      0.0000 
     35 H          14.0433   28.1190   49.7121 H         1 YFE999      0.0000 
     36 H          13.9317   28.6611   52.0751 H         1 YFE999      0.0000 
     37 H          14.6156   27.0234   53.7239 H         1 YFE999      0.0000 
     38 H          15.4250   24.8514   53.0140 H         1 YFE999      0.0000 
     39 H          19.0516   18.1429   43.5768 H         1 YFE999      0.0000 
     40 H          19.2185   17.5873   45.0767 H         1 YFE999      0.0000 
     41 H          18.7965   16.5864   43.8908 H         1 YFE999      0.0000 
     42 H          16.4569   18.3801   42.6014 H         1 YFE999      0.0000 
     43 H          16.2004   16.8225   42.9085 H         1 YFE999      0.0000 
     44 H          15.2674   17.9409   43.5905 H         1 YFE999      0.0000 
     45 H          13.6317   19.4758   49.2395 H         1 YFE999      0.0000 
     46 H          13.1033   20.5773   48.1937 H         1 YFE999      0.0000 
     47 H          12.6317   19.0460   48.0557 H         1 YFE999      0.0000 
     48 H          19.7480   21.0005   47.7953 H         1 YFE999      0.0000 
@<TRIPOS>BOND
     1    2    1 1    
     2   39    1 1    
     3   40    1 1    
     4   41    1 1    
     5    3    2 1    
     6    4    2 2    
     7   42    3 1    
     8   43    3 1    
     9   44    3 1    
    10    5    4 1    
    11   26    4 1    
    12    6    5 1    
    13   27    5 1    
    14   28    5 1    
    15    7    6 ar   
    16   11    6 ar   
    17    8    7 ar   
    18    9    7 1    
    19   17    8 ar   
    20   29    8 1    
    21   10    9 1    
    22   45   10 1    
    23   46   10 1    
    24   47   10 1    
    25   12   11 1    
    26   13   11 ar   
    27   48   12 1    
    28   14   13 1    
    29   17   13 ar   
    30   15   14 ar   
    31   16   14 ar   
    32   18   17 1    
    33   19   18 1    
    34   30   18 1    
    35   31   18 1    
    36   20   19 1    
    37   32   19 1    
    38   33   19 1    
    39   21   20 ar   
    40   25   20 ar   
    41   22   21 ar   
    42   34   21 1    
    43   23   22 ar   
    44   35   22 1    
    45   24   23 ar   
    46   36   23 1    
    47   25   24 ar   
    48   37   24 1    
    49   38   25 1    
@<TRIPOS>SUBSTRUCTURE
     1 YFE999      1 GROUP   
@<TRIPOS>SET

