#    Name: 4nak_PBQ_1_INTS_M
#    Modification time : Tue Mar 25 12:52:48 2014

@<TRIPOS>MOLECULE
4nak_PBQ_1_INTS_M
   65     0     6     0     0
SMALL
NO_CHARGES


@<TRIPOS>ATOM
      1 N           3.4600   21.8410  -22.4690 N.am      1 SEC2        0.0000 
      2 N           4.6030   22.4720  -22.6150 N.am      5 SEL2        0.0000 
      3 N           2.3170   21.2100  -22.3230 N.am      3 SEP2        0.0000 
      4 CA          5.1185   27.4175  -23.1905 C.3       2 GLC5        0.0000 
      5 CA          4.0310   26.0940  -22.1150 C.3       6 GLL5        0.0000 
      6 CA          6.2060   28.7410  -24.2660 C.3       4 GLP5        0.0000 
      7 CA          2.7210   27.4450  -22.8755 C.3       2 GLC5        0.0000 
      8 CA          1.4110   28.7960  -23.6360 C.3       4 GLP5        0.0000 
      9 CA          4.4995   20.4735  -20.3780 C.3       2 GLC5        0.0000 
     10 CA          6.1550   20.9500  -18.9440 C.3       6 GLL5        0.0000 
     11 CA          2.8440   19.9970  -21.8120 C.3       4 GLP5        0.0000 
     12 CA          6.0760   23.5820  -17.1945 C.3       2 GLC5        0.0000 
     13 CA          4.5660   22.4260  -18.3930 C.3       6 GLL5        0.0000 
     14 CA          7.5860   24.7380  -15.9960 C.3       4 GLP5        0.0000 
     15 CA          2.4455   28.9620  -19.6640 C.3       2 GLC5        0.0000 
     16 CA          4.0730   27.8870  -20.0050 C.3       6 GLL5        0.0000 
     17 CA          0.8180   30.0370  -19.3230 C.3       4 GLP5        0.0000 
     18 CA          5.9575   27.2840  -20.2910 C.3       2 GLC5        0.0000 
     19 CA          7.8420   26.6810  -20.5770 C.3       4 GLP5        0.0000 
     20 CA          3.7450   28.1510  -17.9505 C.3       2 GLC5        0.0000 
     21 CA          3.4170   28.4150  -15.8960 C.3       4 GLP5        0.0000 
     22 CA          2.3050   26.5615  -19.6395 C.3       2 GLC5        0.0000 
     23 CA          0.5370   25.2360  -19.2740 C.3       4 GLP5        0.0000 
     24 CA          4.4750   26.8145  -24.9175 C.3       2 GLC5        0.0000 
     25 CA          3.8530   24.7760  -24.5220 C.3       6 GLL5        0.0000 
     26 CA          5.0970   28.8530  -25.3130 C.3       4 GLP5        0.0000 
     27 CA          4.6830   25.7105  -26.3380 C.3       2 GLC5        0.0000 
     28 CA          5.5130   26.6450  -28.1540 C.3       4 GLP5        0.0000 
     29 CA          2.4000   24.4505  -23.0065 C.3       2 GLC5        0.0000 
     30 CA          0.9470   24.1250  -21.4910 C.3       4 GLP5        0.0000 
     31 CA          2.2855   25.1305  -16.8010 C.3       2 GLC5        0.0000 
     32 CA          3.2230   23.3480  -17.5010 C.3       6 GLL5        0.0000 
     33 CA          1.3480   26.9130  -16.1010 C.3       4 GLP5        0.0000 
     34 CA          3.2280   23.4290  -15.7250 C.3       2 GLC5        0.0000 
     35 CA          3.2330   23.5100  -13.9490 C.3       4 GLP5        0.0000 
     36 CA          1.8800   24.2920  -18.3875 C.3       2 GLC5        0.0000 
     37 CA          5.2570   18.3890  -16.3325 C.3       2 GLC5        0.0000 
     38 CA          5.0490   20.4360  -16.3050 C.3       6 GLL5        0.0000 
     39 CA          5.4650   16.3420  -16.3600 C.3       4 GLP5        0.0000 
     40 CA          6.2855   21.0225  -15.0520 C.3       2 GLC5        0.0000 
     41 CA          7.5220   21.6090  -13.7990 C.3       4 GLP5        0.0000 
     42 CA          4.1410   21.9730  -15.1270 C.3       2 GLC5        0.0000 
     43 CA          4.6705   19.8635  -14.5525 C.3       2 GLC5        0.0000 
     44 CA          4.2920   19.2910  -12.8000 C.3       4 GLP5        0.0000 
     45 CA          8.9935   18.6830  -18.9335 C.3       2 GLC5        0.0000 
     46 CA          7.3340   19.5270  -18.8990 C.3       6 GLL5        0.0000 
     47 CA         10.6530   17.8390  -18.9680 C.3       4 GLP5        0.0000 
     48 CA          7.1160   18.0890  -17.3960 C.3       2 GLC5        0.0000 
     49 CA          6.8980   16.6510  -15.8930 C.3       4 GLP5        0.0000 
     50 CA          8.2510   20.0660  -17.1430 C.3       2 GLC5        0.0000 
     51 CA          9.1680   20.6050  -15.3870 C.3       4 GLP5        0.0000 
     52 CA          2.6330   24.1988  -21.9095 C.3       2 GLC5        0.0000 
     53 CA          4.4840   23.7010  -21.9550 C.3       6 GLL5        0.0000 
     54 CA          6.2323   25.5753  -20.4258 C.3       2 GLC5        0.0000 
     55 CA          4.6760   23.8350  -20.5670 C.3       6 GLL5        0.0000 
     56 CA          2.7847   24.2972  -20.8828 C.3       2 GLC5        0.0000 
     57 CA          5.9878   26.4183  -21.0057 C.3       2 GLC5        0.0000 
     58 CA          4.2360   26.2170  -20.7540 C.3       6 GLL5        0.0000 
     59 CA          2.5402   25.1403  -21.4627 C.3       2 GLC5        0.0000 
     60 CA          3.7595   21.7425  -21.4246 C.3       2 GLC5        0.0000 
     61 CA          3.3255   20.1205  -16.8090 C.3       2 GLC5        0.0000 
     62 CA          5.2550   21.3000  -17.9350 C.3       6 GLL5        0.0000 
     63 CA          1.4990   19.3730  -16.4980 C.3       4 GLP5        0.0000 
     64 CA          2.3662   21.7185  -17.5965 C.3       2 GLC5        0.0000 
     65 CA          0.8380   20.5500  -17.2460 C.3       4 GLP5        0.0000 
@<TRIPOS>BOND
@<TRIPOS>SUBSTRUCTURE
     1 SEC2        1 GROUP        1 X    SEC  0     ROOT SEC X 2
     2 GLC5        4 GROUP        1 X    GLC  0     **** GLC X 6
     3 SEP2        3 GROUP        1 Y    SEP  0     ROOT SEP Y 9
     4 GLP5        6 GROUP        1 Y    GLP  0     **** GLP Y 13
     5 SEL2        2 GROUP        1 Z    SEL  0     ROOT SEL Z 16
     6 GLL5        5 GROUP        1 Z    GLL  0     **** GLL Z 20
@<TRIPOS>SET

