#    Name: 2OQI_1_CAVITY_N1_ALL.mol2
#    Modification time : Tue Mar 11 03:43:24 2014

@<TRIPOS>MOLECULE
2OQI_1_CAVITY_N1_ALL.mol2
   94     0     7     0     0
SMALL
NO_CHARGES


@<TRIPOS>ATOM
      1 O          41.0295    3.2447   64.2497 O.2       2 ALA2        0.0000 
      2 OD1        41.2108    2.1916   65.3024 O.3       3 ASP3        0.0000 
      3 DU         39.6824    3.5379   62.6375 H         7 CUB7        0.0000 
      4 CA         39.8637    2.4848   63.6901 C.3       6 GLY6        0.0000 
      5 CA         40.0449    1.4316   64.7428 C.3       6 GLY6        0.0000 
      6 OG         38.5166    2.7779   62.0779 O.2       1 SER1        0.0000 
      7 OG         36.1848    1.2579   60.9587 O.2       1 SER1        0.0000 
      8 CZ         37.6488    6.0921   63.4055 C.ar      5 PHE5        0.0000 
      9 CZ         37.8300    5.0390   64.4582 C.ar      5 PHE5        0.0000 
     10 N          38.0112    3.9859   65.5108 N.2       2 ALA2        0.0000 
     11 CZ         35.9392    8.4915   59.6879 C.ar      5 PHE5        0.0000 
     12 CZ         36.1204    7.4384   60.7406 C.ar      5 PHE5        0.0000 
     13 CZ         36.3017    6.3853   61.7933 C.ar      5 PHE5        0.0000 
     14 CZ         36.4829    5.3322   62.8459 C.ar      5 PHE5        0.0000 
     15 DU         36.6641    4.2790   63.8986 H         7 CUB7        0.0000 
     16 N          36.8453    3.2259   64.9512 N.2       2 ALA2        0.0000 
     17 CZ         34.5921    8.7847   58.0757 C.ar      5 PHE5        0.0000 
     18 OG         34.7733    7.7315   59.1283 O.2       1 SER1        0.0000 
     19 DU         34.9546    6.6784   60.1810 H         7 CUB7        0.0000 
     20 DU         35.1358    5.6253   61.2337 H         7 CUB7        0.0000 
     21 DU         35.3170    4.5722   62.2863 H         7 CUB7        0.0000 
     22 N          35.4982    3.5191   63.3390 N.2       2 ALA2        0.0000 
     23 OG         33.7887    5.9184   59.6214 O.2       1 SER1        0.0000 
     24 DU         33.9699    4.8653   60.6741 H         7 CUB7        0.0000 
     25 O          34.1511    3.8122   61.7267 O.2       2 ALA2        0.0000 
     26 N          34.3324    2.7591   62.7794 N.2       2 ALA2        0.0000 
     27 O          32.8040    4.1053   60.1145 O.2       2 ALA2        0.0000 
     28 O          31.4569    4.3985   58.5022 O.2       2 ALA2        0.0000 
     29 CA         39.9221    5.0484   64.1074 C.3       6 GLY6        0.0000 
     30 CA         40.1033    3.9953   65.1601 C.3       6 GLY6        0.0000 
     31 CA         40.2845    2.9422   66.2127 C.3       6 GLY6        0.0000 
     32 CZ         38.5750    5.3416   62.4952 C.ar      5 PHE5        0.0000 
     33 CZ         38.7562    4.2885   63.5478 C.ar      5 PHE5        0.0000 
     34 N          38.9374    3.2353   64.6005 N.2       2 ALA2        0.0000 
     35 N          39.1187    2.1822   65.6531 N.2       2 ALA2        0.0000 
     36 DU         37.4091    4.5816   61.9356 H         7 CUB7        0.0000 
     37 OG         37.5903    3.5285   62.9882 O.2       1 SER1        0.0000 
     38 OG         37.7716    2.4753   64.0409 O.2       1 SER1        0.0000 
     39 DU         36.2432    3.8216   61.3760 H         7 CUB7        0.0000 
     40 OG         36.4245    2.7685   62.4286 O.2       1 SER1        0.0000 
     41 DU         35.0774    3.0616   60.8164 H         7 CUB7        0.0000 
     42 OG         35.2586    2.0085   61.8690 O.2       1 SER1        0.0000 
     43 OD1        33.9115    2.3016   60.2568 O.3       3 ASP3        0.0000 
     44 O          34.0927    1.2485   61.3094 O.2       2 ALA2        0.0000 
     45 OG         29.1576    9.6713   64.1732 O.2       1 SER1        0.0000 
     46 CZ         27.9917    8.9113   63.6136 C.ar      5 PHE5        0.0000 
     47 CZ         28.1729    7.8582   64.6662 C.ar      5 PHE5        0.0000 
     48 CA         26.8258    8.1513   63.0540 C.3       6 GLY6        0.0000 
     49 OG         30.0838    8.9207   63.2628 O.2       1 SER1        0.0000 
     50 CZ         30.2650    7.8676   64.3155 C.ar      5 PHE5        0.0000 
     51 O          28.7367    9.2139   61.6506 O.2       2 ALA2        0.0000 
     52 O          28.9179    8.1607   62.7032 O.2       2 ALA2        0.0000 
     53 OG         29.0991    7.1076   63.7559 O.2       1 SER1        0.0000 
     54 CA         27.7520    7.4008   62.1436 C.3       6 GLY6        0.0000 
     55 OG         27.9333    6.3476   63.1963 O.2       1 SER1        0.0000 
     56 OG         35.0130    9.2421   60.5983 O.2       1 SER1        0.0000 
     57 CZ         35.1942    8.1890   61.6510 C.ar      5 PHE5        0.0000 
     58 CZ         35.3754    7.1359   62.7036 C.ar      5 PHE5        0.0000 
     59 CZ         35.5567    6.0827   63.7563 C.ar      5 PHE5        0.0000 
     60 NZ         35.7379    5.0296   64.8089 N.2       4 LYS4        0.0000 
     61 OG         34.0283    7.4290   61.0914 O.2       1 SER1        0.0000 
     62 DU         34.2096    6.3759   62.1440 H         7 CUB7        0.0000 
     63 DU         34.3908    5.3227   63.1967 H         7 CUB7        0.0000 
     64 N          34.5720    4.2696   64.2493 N.2       2 ALA2        0.0000 
     65 OG         32.8625    6.6690   60.5318 O.2       1 SER1        0.0000 
     66 DU         33.0437    5.6159   61.5844 H         7 CUB7        0.0000 
     67 NZ         33.2249    4.5628   62.6371 N.2       4 LYS4        0.0000 
     68 NZ         33.4061    3.5096   63.6897 N.2       4 LYS4        0.0000 
     69 OG         31.6966    5.9090   59.9722 O.2       1 SER1        0.0000 
     70 O          31.8778    4.8559   61.0248 O.2       2 ALA2        0.0000 
     71 OG         30.3495    6.2022   58.3599 O.2       1 SER1        0.0000 
     72 O          30.5307    5.1490   59.4125 O.2       2 ALA2        0.0000 
     73 OG         32.1759    8.9301   62.9121 O.2       1 SER1        0.0000 
     74 OG         31.0100    8.1702   62.3525 O.2       1 SER1        0.0000 
     75 CZ         31.1912    7.1170   63.4051 C.ar      5 PHE5        0.0000 
     76 CZ         31.3725    6.0639   64.4578 C.ar      5 PHE5        0.0000 
     77 OG         29.8441    7.4102   61.7929 O.2       1 SER1        0.0000 
     78 OG         30.0254    6.3570   62.8455 O.2       1 SER1        0.0000 
     79 CA         28.6783    6.6502   61.2333 C.3       6 GLY6        0.0000 
     80 OG         28.8595    5.5971   62.2859 O.2       1 SER1        0.0000 
     81 CZ         34.2680    8.9396   62.5613 C.ar      5 PHE5        0.0000 
     82 CZ         34.4492    7.8864   63.6140 C.ar      5 PHE5        0.0000 
     83 CZ         34.6304    6.8333   64.6666 C.ar      5 PHE5        0.0000 
     84 OG         33.1021    8.1796   62.0017 O.2       1 SER1        0.0000 
     85 CZ         33.2833    7.1264   63.0544 C.ar      5 PHE5        0.0000 
     86 CZ         33.4646    6.0733   64.1070 C.ar      5 PHE5        0.0000 
     87 OG         32.1175    6.3665   62.4948 O.2       1 SER1        0.0000 
     88 NZ         32.2987    5.3133   63.5474 N.2       4 LYS4        0.0000 
     89 OG         30.7704    6.6596   60.8825 O.2       1 SER1        0.0000 
     90 O          30.9516    5.6065   61.9352 O.2       2 ALA2        0.0000 
     91 OG         29.6045    5.8996   60.3229 O.2       1 SER1        0.0000 
     92 O          29.7857    4.8465   61.3756 O.2       2 ALA2        0.0000 
     93 CZ         36.9038    5.7896   65.3685 C.ar      5 PHE5        0.0000 
     94 CA         40.9711    0.6811   63.8324 C.3       6 GLY6        0.0000 
@<TRIPOS>BOND
@<TRIPOS>SUBSTRUCTURE
     1 SER1        6 GROUP   
     2 ALA2        1 GROUP   
     3 ASP3        2 GROUP   
     4 LYS4       60 GROUP   
     5 PHE5        8 GROUP   
     6 GLY6        4 GROUP   
     7 CUB7        3 GROUP   
@<TRIPOS>SET

