#    Name: 2oqi_GGO_1_INTS_M
#    Modification time : Mon Mar 24 17:48:45 2014

@<TRIPOS>MOLECULE
2oqi_GGO_1_INTS_M
   59     0     9     0     0
SMALL
NO_CHARGES


@<TRIPOS>ATOM
      1 CA         36.9210    6.5990   64.3550 C.3       3 GLC5        0.0000 
      2 CA         36.0190    4.9470   63.8040 C.3       9 GLL5        0.0000 
      3 CA         37.8230    8.2510   64.9060 C.3       6 GLP5        0.0000 
      4 CA         28.9275    9.9215   62.0700 C.3       3 GLC5        0.0000 
      5 CA         28.9460    8.1770   63.1790 C.3       9 GLL5        0.0000 
      6 CA         28.9090   11.6660   60.9610 C.3       6 GLP5        0.0000 
      7 OD1        31.0760    3.0625   63.7600 O.co2     2 ASC3        0.0000 
      8 OD1        31.1100    4.1880   64.1890 O.co2     8 ASL3        0.0000 
      9 OD1        31.0420    1.9370   63.3310 O.co2     5 ASP3        0.0000 
     10 OD1        32.2530    4.2905   65.7990 O.co2     2 ASC3        0.0000 
     11 OD1        33.3960    4.3930   67.4090 O.co2     5 ASP3        0.0000 
     12 OD1        31.2985    3.8160   65.5685 O.co2     2 ASC3        0.0000 
     13 OD1        31.4870    3.4440   66.9480 O.co2     5 ASP3        0.0000 
     14 O          31.0760    3.0625   63.7600 O.2       1 ALC1        0.0000 
     15 O          31.1100    4.1880   64.1890 O.2       7 ALL1        0.0000 
     16 O          31.0420    1.9370   63.3310 O.2       4 ALP1        0.0000 
     17 O          31.2985    3.8160   65.5685 O.2       1 ALC1        0.0000 
     18 O          31.4870    3.4440   66.9480 O.2       4 ALP1        0.0000 
     19 O          29.8860    4.4205   64.6900 O.2       1 ALC1        0.0000 
     20 O          28.6620    4.6530   65.1910 O.2       4 ALP1        0.0000 
     21 CA         32.3440    6.4030   65.2665 C.3       3 GLC5        0.0000 
     22 CA         32.1800    5.0560   63.8270 C.3       9 GLL5        0.0000 
     23 CA         32.5080    7.7500   66.7060 C.3       6 GLP5        0.0000 
     24 CA         29.0560   10.9795   63.4820 C.3       3 GLC5        0.0000 
     25 CA         28.7790    9.3890   63.6880 C.3       9 GLL5        0.0000 
     26 CA         29.3330   12.5700   63.2760 C.3       6 GLP5        0.0000 
     27 CA         27.9975   10.8145   65.0260 C.3       3 GLC5        0.0000 
     28 CA         27.2160   12.2400   66.3640 C.3       6 GLP5        0.0000 
     29 CA         28.6380    7.8605   65.2680 C.3       3 GLC5        0.0000 
     30 CA         28.4970    6.3320   66.8480 C.3       6 GLP5        0.0000 
     31 CA         30.2960    9.5855   64.7055 C.3       3 GLC5        0.0000 
     32 CA         31.8130    9.7820   65.7230 C.3       6 GLP5        0.0000 
     33 CA         27.0250    9.7245   61.7050 C.3       3 GLC5        0.0000 
     34 CA         26.6130    7.8980   62.8320 C.3       9 GLL5        0.0000 
     35 CA         27.4370   11.5510   60.5780 C.3       6 GLP5        0.0000 
     36 CA         25.4035    8.6175   63.7300 C.3       3 GLC5        0.0000 
     37 CA         24.1940    9.3370   64.6280 C.3       6 GLP5        0.0000 
     38 CA         26.5685    6.5695   64.4595 C.3       3 GLC5        0.0000 
     39 CA         26.5240    5.2410   66.0870 C.3       6 GLP5        0.0000 
     40 CA         41.5953    2.6975   66.4770 C.3       3 GLC5        0.0000 
     41 CA         40.9510    3.3700   64.3700 C.3       9 GLL5        0.0000 
     42 CA         42.7160    2.3890   68.2050 C.3       6 GLP5        0.0000 
     43 CA         27.9603    6.9532   60.6170 C.3       3 GLC5        0.0000 
     44 CA         28.0050    6.1380   62.2260 C.3       9 GLL5        0.0000 
     45 CA         27.2600    8.0140   59.0330 C.3       6 GLP5        0.0000 
     46 CA         38.9313    1.0474   64.1246 C.3       3 GLC5        0.0000 
     47 CA         38.2660    3.5840   63.6100 C.3       9 GLL5        0.0000 
     48 CA         38.6360   -0.8110   63.5930 C.3       6 GLP5        0.0000 
     49 CA         32.5228    7.4738   64.0067 C.3       3 GLC5        0.0000 
     50 CA         32.9980    6.7410   62.0970 C.3       9 GLL5        0.0000 
     51 CA         32.6190    8.6850   65.7110 C.3       6 GLP5        0.0000 
     52 CA         27.3825    7.9319   60.9642 C.3       3 GLC5        0.0000 
     53 CA         25.8539    6.4140   62.7431 C.3       3 GLC5        0.0000 
     54 CA         27.8480    7.4260   62.7390 C.3       9 GLL5        0.0000 
     55 CA         24.4380    5.4880   62.8290 C.3       6 GLP5        0.0000 
     56 CA         27.7971    4.3029   60.7558 C.3       3 GLC5        0.0000 
     57 CA         26.5260    3.4580   59.5640 C.3       6 GLP5        0.0000 
     58 CA         39.9604    5.2925   64.9322 C.3       3 GLC5        0.0000 
     59 CA         39.8480    7.0630   65.8470 C.3       6 GLP5        0.0000 
@<TRIPOS>BOND
@<TRIPOS>SUBSTRUCTURE
     1 ALC1       14 GROUP        1 X    ALC  0     ROOT ALC X 1
     2 ASC3        7 GROUP        1 X    ASC  0     **** ASC X 3
     3 GLC5        1 GROUP        1 X    GLC  0     **** GLC X 6
     4 ALP1       16 GROUP        1 Y    ALP  0     ROOT ALP Y 8
     5 ASP3        9 GROUP        1 Y    ASP  0     **** ASP Y 10
     6 GLP5        3 GROUP        1 Y    GLP  0     **** GLP Y 13
     7 ALL1       15 GROUP        1 Z    ALL  0     ROOT ALL Z 15
     8 ASL3        8 GROUP        1 Z    ASL  0     **** ASL Z 17
     9 GLL5        2 GROUP        1 Z    GLL  0     **** GLL Z 20
@<TRIPOS>SET

