#    Name: 2oqi_GGO_1_ligand
#    Modification time : Mon Mar 24 17:48:46 2014

@<TRIPOS>MOLECULE
2oqi_GGO_1_ligand
   48    51     1     0     0
SMALL
NO_CHARGES


@<TRIPOS>ATOM
      1 C5         36.0190    4.9470   63.8040 C.3       1 GGO901      0.0000 
      2 C6         36.7930    3.7360   63.1500 C.3       1 GGO901      0.0000 
      3 C7         38.2660    3.5840   63.6100 C.ar      1 GGO901      0.0000 
      4 C8         38.6440    2.7550   64.7590 C.ar      1 GGO901      0.0000 
      5 C10        40.9510    3.3700   64.3700 C.ar      1 GGO901      0.0000 
      6 C15        39.2530    4.2700   62.9180 C.ar      1 GGO901      0.0000 
      7 C20        30.4630    6.3970   62.5960 C.ar      1 GGO901      0.0000 
      8 C21        30.2460    7.6920   63.1090 C.ar      1 GGO901      0.0000 
      9 C22        28.9460    8.1770   63.1790 C.ar      1 GGO901      0.0000 
     10 C24        27.8480    7.4260   62.7390 C.ar      1 GGO901      0.0000 
     11 C26        28.0050    6.1380   62.2260 C.ar      1 GGO901      0.0000 
     12 N          31.1100    4.1880   64.1890 N.4       1 GGO901      0.0000 
     13 C          32.1800    5.0560   63.8270 C.3       1 GGO901      0.0000 
     14 C3         33.5170    4.3210   63.7240 C.3       1 GGO901      0.0000 
     15 N4         34.6320    5.1740   63.2450 N.am      1 GGO901      0.0000 
     16 C9         39.9980    2.6420   65.1280 C.ar      1 GGO901      0.0000 
     17 O          42.2860    3.3800   64.5610 O.3       1 GGO901      0.0000 
     18 C12        42.7350    4.2780   63.5300 C.3       1 GGO901      0.0000 
     19 O13        41.6550    4.7680   62.7430 O.3       1 GGO901      0.0000 
     20 C14        40.5830    4.1490   63.3080 C.ar      1 GGO901      0.0000 
     21 C16        34.4480    6.1560   62.2600 C.2       1 GGO901      0.0000 
     22 O17        35.3270    6.5710   61.5370 O.2       1 GGO901      0.0000 
     23 C18        32.9980    6.7410   62.0970 C.3       1 GGO901      0.0000 
     24 C19        31.8550    5.7840   62.5080 C.3       1 GGO901      0.0000 
     25 F          28.7790    9.3890   63.6880 F         1 GGO901      0.0000 
     26 F25        26.6130    7.8980   62.8320 F         1 GGO901      0.0000 
     27 C27        29.3160    5.6470   62.1760 C.ar      1 GGO901      0.0000 
     28 F28        29.4760    4.4030   61.6940 F         1 GGO901      0.0000 
     29 H          36.6351    5.8476   63.6620 H         1 GGO901      0.0000 
     30 H          35.9632    4.7569   64.8864 H         1 GGO901      0.0000 
     31 H          36.7680    3.8659   62.0602 H         1 GGO901      0.0000 
     32 H          36.2451    2.8148   63.3875 H         1 GGO901      0.0000 
     33 H          37.9133    2.2750   65.2695 H         1 GGO901      0.0000 
     34 H          39.0046    4.8666   62.1191 H         1 GGO901      0.0000 
     35 H          31.0345    8.2547   63.4204 H         1 GGO901      0.0000 
     36 H          27.2277    5.5942   61.9113 H         1 GGO901      0.0000 
     37 H          32.3033    5.8450   64.5904 H         1 GGO901      0.0000 
     38 H          33.3844    3.4562   63.0470 H         1 GGO901      0.0000 
     39 H          33.7598    3.9047   64.7197 H         1 GGO901      0.0000 
     40 H          40.2845    2.0672   65.9003 H         1 GGO901      0.0000 
     41 H          43.4791    3.7591   62.8814 H         1 GGO901      0.0000 
     42 H          43.2910    5.1275   63.9914 H         1 GGO901      0.0000 
     43 H          32.8632    7.0307   61.0437 H         1 GGO901      0.0000 
     44 H          32.9312    7.6603   62.6987 H         1 GGO901      0.0000 
     45 H          31.8099    4.9782   61.7298 H         1 GGO901      0.0000 
     46 H          31.2696    3.7510   65.0742 H         1 GGO901      0.0000 
     47 H          30.2409    4.6780   64.2565 H         1 GGO901      0.0000 
     48 H          30.9827    3.4562   63.5195 H         1 GGO901      0.0000 
@<TRIPOS>BOND
     1    2    1 1    
     2   15    1 1    
     3   29    1 1    
     4   30    1 1    
     5    3    2 1    
     6   31    2 1    
     7   32    2 1    
     8    4    3 ar   
     9    6    3 ar   
    10   16    4 ar   
    11   33    4 1    
    12   16    5 ar   
    13   17    5 1    
    14   20    5 ar   
    15   20    6 ar   
    16   34    6 1    
    17    8    7 ar   
    18   24    7 1    
    19   27    7 ar   
    20    9    8 ar   
    21   35    8 1    
    22   10    9 ar   
    23   25    9 1    
    24   11   10 ar   
    25   26   10 1    
    26   27   11 ar   
    27   36   11 1    
    28   13   12 1    
    29   46   12 1    
    30   47   12 1    
    31   48   12 1    
    32   14   13 1    
    33   24   13 1    
    34   37   13 1    
    35   15   14 1    
    36   38   14 1    
    37   39   14 1    
    38   21   15 am   
    39   40   16 1    
    40   18   17 1    
    41   19   18 1    
    42   41   18 1    
    43   42   18 1    
    44   20   19 1    
    45   22   21 2    
    46   23   21 1    
    47   24   23 1    
    48   43   23 1    
    49   44   23 1    
    50   45   24 1    
    51   28   27 1    
@<TRIPOS>SUBSTRUCTURE
     1 GGO901      1 GROUP   
@<TRIPOS>SET

