#    Name: 2vku_DBE_2_INTS_M
#    Modification time : Tue Mar 25 02:06:16 2014

@<TRIPOS>MOLECULE
2vku_DBE_2_INTS_M
   31     0     3     0     0
SMALL
NO_CHARGES


@<TRIPOS>ATOM
      1 CA         37.8525   52.5885   30.3750 C.3       1 GLC5        0.0000 
      2 CA         35.9530   53.6800   30.4650 C.3       3 GLL5        0.0000 
      3 CA         39.7520   51.4970   30.2850 C.3       2 GLP5        0.0000 
      4 CA         35.0750   49.6150   31.3370 C.3       1 GLC5        0.0000 
      5 CA         33.2960   50.9370   31.6700 C.3       3 GLL5        0.0000 
      6 CA         36.8540   48.2930   31.0040 C.3       2 GLP5        0.0000 
      7 CA         30.0510   48.6860   30.0715 C.3       1 GLC5        0.0000 
      8 CA         31.0250   49.9990   31.5810 C.3       3 GLL5        0.0000 
      9 CA         29.0770   47.3730   28.5620 C.3       2 GLP5        0.0000 
     10 CA         30.9885   47.9140   33.5500 C.3       1 GLC5        0.0000 
     11 CA         31.1140   49.6580   32.9560 C.3       3 GLL5        0.0000 
     12 CA         30.8630   46.1700   34.1440 C.3       2 GLP5        0.0000 
     13 CA         32.2495   49.9895   35.6945 C.3       1 GLC5        0.0000 
     14 CA         32.2800   49.9440   33.7000 C.3       3 GLL5        0.0000 
     15 CA         32.2190   50.0350   37.6890 C.3       2 GLP5        0.0000 
     16 CA         33.2270   51.5305   34.9020 C.3       1 GLC5        0.0000 
     17 CA         33.3800   50.5850   33.0610 C.3       3 GLL5        0.0000 
     18 CA         33.0740   52.4760   36.7430 C.3       2 GLP5        0.0000 
     19 CA         37.7580   55.6905   31.8910 C.3       1 GLC5        0.0000 
     20 CA         36.2950   55.0550   30.6550 C.3       3 GLL5        0.0000 
     21 CA         39.6060   55.9390   32.6750 C.3       2 GLP5        0.0000 
     22 CA         36.0300   52.7462   32.5643 C.3       1 GLC5        0.0000 
     23 CA         36.6590   52.0990   34.3050 C.3       2 GLP5        0.0000 
     24 CA         35.4605   53.3440   33.2410 C.3       1 GLC5        0.0000 
     25 CA         34.0940   53.9080   32.0820 C.3       3 GLL5        0.0000 
     26 CA         34.9985   51.4300   33.3353 C.3       1 GLC5        0.0000 
     27 CA         30.4743   51.0423   30.1133 C.3       1 GLC5        0.0000 
     28 CA         32.1060   50.6360   30.9320 C.3       3 GLL5        0.0000 
     29 CA         29.3830   51.7670   28.9700 C.3       2 GLP5        0.0000 
     30 CA         32.7435   48.2938   33.7127 C.3       1 GLC5        0.0000 
     31 CA         32.6570   46.3230   34.0450 C.3       2 GLP5        0.0000 
@<TRIPOS>BOND
@<TRIPOS>SUBSTRUCTURE
     1 GLC5        1 GROUP        1 X    GLC  0     ROOT GLC X 6
     2 GLP5        3 GROUP        1 Y    GLP  0     ROOT GLP Y 13
     3 GLL5        2 GROUP        1 Z    GLL  0     ROOT GLL Z 20
@<TRIPOS>SET

