#    Name: 2vku_DBE_2_ligand
#    Modification time : Tue Mar 25 02:06:16 2014

@<TRIPOS>MOLECULE
2vku_DBE_2_ligand
   26    27     1     0     0
SMALL
NO_CHARGES


@<TRIPOS>ATOM
      1 C5         36.2950   55.0550   30.6550 C.ar      1 DBE1447     0.0000 
      2 C4         35.9530   53.6800   30.4650 C.ar      1 DBE1447     0.0000 
      3 C10        34.0940   53.9080   32.0820 C.ar      1 DBE1447     0.0000 
      4 C1         34.4300   55.2700   32.2720 C.ar      1 DBE1447     0.0000 
      5 C6         35.5250   55.8290   31.5590 C.ar      1 DBE1447     0.0000 
      6 C12        34.8490   53.1070   31.1820 C.ar      1 DBE1447     0.0000 
      7 O10        35.1620   50.9390   30.2230 O.2       1 DBE1447     0.0000 
      8 C11        34.4720   51.6250   30.9880 C.2       1 DBE1447     0.0000 
      9 C13        33.2960   50.9370   31.6700 C.ar      1 DBE1447     0.0000 
     10 C18        32.1060   50.6360   30.9320 C.ar      1 DBE1447     0.0000 
     11 C17        31.0250   49.9990   31.5810 C.ar      1 DBE1447     0.0000 
     12 C16        31.1140   49.6580   32.9560 C.ar      1 DBE1447     0.0000 
     13 C15        32.2800   49.9440   33.7000 C.ar      1 DBE1447     0.0000 
     14 C14        33.3800   50.5850   33.0610 C.ar      1 DBE1447     0.0000 
     15 O23        35.8280   57.1250   31.7540 O.3       1 DBE1447     0.0000 
     16 O24        30.0600   49.0480   33.5630 O.3       1 DBE1447     0.0000 
     17 H          37.0693   55.4609   30.1535 H         1 DBE1447     0.0000 
     18 H          36.4898   53.1058   29.8229 H         1 DBE1447     0.0000 
     19 H          33.3106   53.4986   32.5896 H         1 DBE1447     0.0000 
     20 H          33.8931   55.8466   32.9137 H         1 DBE1447     0.0000 
     21 H          32.0483   50.8824   29.9493 H         1 DBE1447     0.0000 
     22 H          30.1727   49.7811   31.0602 H         1 DBE1447     0.0000 
     23 H          32.3391   49.6968   34.6830 H         1 DBE1447     0.0000 
     24 H          34.2244   50.7953   33.5824 H         1 DBE1447     0.0000 
     25 H          36.2885   57.4122   30.9141 H         1 DBE1447     0.0000 
     26 H          30.4041   48.1503   33.8382 H         1 DBE1447     0.0000 
@<TRIPOS>BOND
     1    2    1 ar   
     2    5    1 ar   
     3   17    1 1    
     4    6    2 ar   
     5   18    2 1    
     6    4    3 ar   
     7    6    3 ar   
     8   19    3 1    
     9    5    4 ar   
    10   20    4 1    
    11   15    5 1    
    12    8    6 1    
    13    8    7 2    
    14    9    8 1    
    15   10    9 ar   
    16   14    9 ar   
    17   11   10 ar   
    18   21   10 1    
    19   12   11 ar   
    20   22   11 1    
    21   13   12 ar   
    22   16   12 1    
    23   14   13 ar   
    24   23   13 1    
    25   24   14 1    
    26   25   15 1    
    27   26   16 1    
@<TRIPOS>SUBSTRUCTURE
     1 DBE1447     1 GROUP   
@<TRIPOS>SET

