#    Name: 3snd_LEU_ECC_2_INTS_M
#    Modification time : Mon Mar 24 17:58:22 2014

@<TRIPOS>MOLECULE
3snd_LEU_ECC_2_INTS_M
   42     0     9     0     0
SMALL
NO_CHARGES


@<TRIPOS>ATOM
      1 CA          2.7540   -2.8380  -27.3005 C.3       3 GLC5        0.0000 
      2 CA          1.8660   -1.1890  -27.8640 C.3       9 GLL5        0.0000 
      3 CA          3.6420   -4.4870  -26.7370 C.3       6 GLP5        0.0000 
      4 CA          2.2675    1.5885  -26.6320 C.3       3 GLC5        0.0000 
      5 CA          2.2970    0.2610  -28.1930 C.3       9 GLL5        0.0000 
      6 CA          2.2380    2.9160  -25.0710 C.3       6 GLP5        0.0000 
      7 CA          4.3265    2.9240  -27.1865 C.3       3 GLC5        0.0000 
      8 CA          4.0200    2.0650  -28.9200 C.3       9 GLL5        0.0000 
      9 CA          4.6330    3.7830  -25.4530 C.3       6 GLP5        0.0000 
     10 CA          3.2660    3.2545  -30.5075 C.3       3 GLC5        0.0000 
     11 CA          2.5120    4.4440  -32.0950 C.3       6 GLP5        0.0000 
     12 CA          6.6545   -0.4420  -27.5840 C.3       3 GLC5        0.0000 
     13 CA          4.8060   -0.1480  -27.9580 C.3       9 GLL5        0.0000 
     14 CA          8.5030   -0.7360  -27.2100 C.3       6 GLP5        0.0000 
     15 CA          6.4590    0.0680  -29.3975 C.3       3 GLC5        0.0000 
     16 CA          8.1120    0.2840  -30.8370 C.3       6 GLP5        0.0000 
     17 N          -4.2265   -0.5585  -23.9480 N.am      2 SEC2        0.0000 
     18 N          -2.6120   -0.5600  -23.7770 N.am      8 SEL2        0.0000 
     19 N          -5.8410   -0.5570  -24.1190 N.am      5 SEP2        0.0000 
     20 N          -2.4995   -1.0305  -22.4265 N.am      2 SEC2        0.0000 
     21 N          -2.3870   -1.5010  -21.0760 N.am      5 SEP2        0.0000 
     22 CA         -1.2435   -4.1690  -23.5025 C.3       3 GLC5        0.0000 
     23 CA         -2.0280   -3.0950  -25.2450 C.3       9 GLL5        0.0000 
     24 CA         -0.4590   -5.2430  -21.7600 C.3       6 GLP5        0.0000 
     25 CA         -1.4305   -5.7985  -27.2485 C.3       3 GLC5        0.0000 
     26 CA         -2.3330   -3.9830  -26.4240 C.3       9 GLL5        0.0000 
     27 CA         -0.5280   -7.6140  -28.0730 C.3       6 GLP5        0.0000 
     28 N          -1.0370   -5.9565  -24.0095 N.am      2 SEC2        0.0000 
     29 N          -1.7200   -5.8770  -25.1500 N.am      8 SEL2        0.0000 
     30 N          -0.3540   -6.0360  -22.8690 N.am      5 SEP2        0.0000 
     31 O          -4.6710   -6.9395  -25.5080 O.2       1 ALC1        0.0000 
     32 O          -3.7180   -5.8970  -26.1340 O.2       7 ALL1        0.0000 
     33 O          -5.6240   -7.9820  -24.8820 O.2       4 ALP1        0.0000 
     34 CA          3.9160    1.5175  -26.6878 C.3       3 GLC5        0.0000 
     35 CA          3.7100    0.5480  -28.7670 C.3       9 GLL5        0.0000 
     36 CA          3.5740    2.8350  -25.0130 C.3       6 GLP5        0.0000 
     37 CA          5.0015   -1.2620  -27.8667 C.3       3 GLC5        0.0000 
     38 CA          5.7450   -2.7240  -27.3710 C.3       6 GLP5        0.0000 
     39 CA         -4.2732   -2.8310  -25.8747 C.3       3 GLC5        0.0000 
     40 CA         -6.3660   -2.1230  -25.9150 C.3       6 GLP5        0.0000 
     41 CA         -0.9304   -1.7668  -24.2771 C.3       3 GLC5        0.0000 
     42 CA         -0.1310   -1.3660  -23.3910 C.3       6 GLP5        0.0000 
@<TRIPOS>BOND
@<TRIPOS>SUBSTRUCTURE
     1 ALC1       31 GROUP        1 X    ALC  0     ROOT ALC X 1
     2 SEC2       17 GROUP        1 X    SEC  0     **** SEC X 2
     3 GLC5        1 GROUP        1 X    GLC  0     **** GLC X 6
     4 ALP1       33 GROUP        1 Y    ALP  0     ROOT ALP Y 8
     5 SEP2       19 GROUP        1 Y    SEP  0     **** SEP Y 9
     6 GLP5        3 GROUP        1 Y    GLP  0     **** GLP Y 13
     7 ALL1       32 GROUP        1 Z    ALL  0     ROOT ALL Z 15
     8 SEL2       18 GROUP        1 Z    SEL  0     **** SEL Z 16
     9 GLL5        2 GROUP        1 Z    GLL  0     **** GLL Z 20
@<TRIPOS>SET

