#    Name: 3snd_LEU_ECC_2_ligand
#    Modification time : Mon Mar 24 17:58:22 2014

@<TRIPOS>MOLECULE
3snd_LEU_ECC_2_ligand
   39    38     2     0     0
SMALL
NO_CHARGES


@<TRIPOS>ATOM
      1 N           1.9420   -2.0800  -29.0830 N.4       1 LEU4        0.0000
      2 CA          1.8660   -1.1890  -27.8640 C.3       1 LEU4        0.0000
      3 C           0.4600   -1.1920  -27.2580 C.2       1 LEU4        0.0000
      4 O          -0.4810   -0.6530  -27.8860 O.2       1 LEU4        0.0000
      5 CB          2.2970    0.2610  -28.1930 C.3       1 LEU4        0.0000
      6 CG          3.7100    0.5480  -28.7670 C.3       1 LEU4        0.0000
      7 CD1         4.0200    2.0650  -28.9200 C.3       1 LEU4        0.0000
      8 CD2         4.8060   -0.1480  -27.9580 C.3       1 LEU4        0.0000
      9 HA          2.5562   -1.5692  -27.1068 H         1 LEU4        0.0000
     10 HB2         2.1705    0.8817  -27.2605 H         1 LEU4        0.0000
     11 HB3         1.5398    0.6959  -28.9060 H         1 LEU4        0.0000
     12 HG          3.7393    0.1142  -29.7896 H         1 LEU4        0.0000
     13 HNCA        2.8590   -2.0862  -29.4819 H         1 LEU4        0.0000
     14 H           1.7108   -3.0282  -28.8650 H         1 LEU4        0.0000
     15 H           1.3122   -1.7823  -29.8005 H         1 LEU4        0.0000
     16 HD11        4.9358    2.2215  -29.2899 H         1 LEU4        0.0000
     17 HD12        3.3741    2.5158  -29.5361 H         1 LEU4        0.0000
     18 HD13        3.9721    2.5441  -28.0435 H         1 LEU4        0.0000
     19 HD21        5.7158    0.0364  -28.3297 H         1 LEU4        0.0000
     20 HD22        4.8122    0.1537  -27.0046 H         1 LEU4        0.0000
     21 HD23        4.6882   -1.1410  -27.9504 H         1 LEU4        0.0000
     22 C          -1.3740   -0.7570  -24.4810 C.3       2 ECC5        0.0000
     23 N          -0.1710   -1.8230  -26.3550 N.4       2 ECC5        0.0000
     24 O          -2.6120   -0.5600  -23.7770 O.3       2 ECC5        0.0000
     25 CA         -1.4890   -1.7230  -25.6820 C.3       2 ECC5        0.0000
     26 CB         -2.0280   -3.0950  -25.2450 C.3       2 ECC5        0.0000
     27 CD         -2.5720   -5.3400  -25.8240 C.2       2 ECC5        0.0000
     28 CG         -2.3330   -3.9830  -26.4240 C.3       2 ECC5        0.0000
     29 OE1        -1.7200   -5.8770  -25.1500 O.2       2 ECC5        0.0000
     30 NE2        -3.7180   -5.8970  -26.1340 N.am      2 ECC5        0.0000
     31 H          -0.9308    0.1746  -24.8248 H         2 ECC5        0.0000
     32 H          -2.2117   -1.2821  -26.3761 H         2 ECC5        0.0000
     33 H          -2.9358   -2.9407  -24.6526 H         2 ECC5        0.0000
     34 H          -1.2819   -3.5746  -24.6029 H         2 ECC5        0.0000
     35 H          -1.4917   -4.0158  -27.0819 H         2 ECC5        0.0000
     36 H          -3.2157   -3.6401  -26.9189 H         2 ECC5        0.0000
     37 H          -4.3244   -5.3593  -26.7198 H         2 ECC5        0.0000
     38 H          -3.8807   -6.8085  -25.7563 H         2 ECC5        0.0000
     39 H          -2.8143    0.4142  -23.8771 H         2 ECC5        0.0000
@<TRIPOS>BOND
     1    2    1 1
     2   13    1 1
     3   14    1 1
     4   15    1 1
     5    3    2 1
     6    5    2 1
     7    9    2 1
     8    4    3 2
     9    6    5 1
    10   10    5 1
    11   11    5 1
    12    7    6 1
    13    8    6 1
    14   12    6 1
    15   16    7 1
    16   17    7 1
    17   18    7 1
    18   19    8 1
    19   20    8 1
    20   21    8 1
    21   24   22 1
    22   25   22 1
    23   31   22 1
    24   25   23 1
    25   39   24 1
    26   26   25 1
    27   32   25 1
    28   28   26 1
    29   33   26 1
    30   34   26 1
    31   28   27 1
    32   29   27 2
    33   30   27 am
    34   35   28 1
    35   36   28 1
    36   37   30 1
    37   38   30 1
    38   23    3 1 
@<TRIPOS>SUBSTRUCTURE
     1 LEU4        1 RESIDUE
     2 ECC5       22 GROUP
@<TRIPOS>SET

