#    Name: 3vtd_TKD_1_INTS_M
#    Modification time : Tue Mar 25 01:35:09 2014

@<TRIPOS>MOLECULE
3vtd_TKD_1_INTS_M
  129     0     9     0     0
SMALL
NO_CHARGES


@<TRIPOS>ATOM
      1 CA          8.1410   -5.0430   28.9290 C.3       3 GLC5        0.0000 
      2 CA          8.7310   -2.9410   29.4380 C.3       9 GLL5        0.0000 
      3 CA          7.5510   -7.1450   28.4200 C.3       6 GLP5        0.0000 
      4 CA          7.9590    1.0020   30.5175 C.3       3 GLC5        0.0000 
      5 CA          8.0790   -0.4630   29.3640 C.3       9 GLL5        0.0000 
      6 CA          7.8390    2.4670   31.6710 C.3       6 GLP5        0.0000 
      7 CA          9.7110   -0.5760   30.8980 C.3       3 GLC5        0.0000 
      8 CA         11.3430   -0.6890   32.4320 C.3       6 GLP5        0.0000 
      9 CA          7.8845   -5.1335   27.6730 C.3       3 GLC5        0.0000 
     10 CA          8.2180   -3.1220   26.9260 C.3       9 GLL5        0.0000 
     11 CA          9.2465   -4.2200   25.4515 C.3       3 GLC5        0.0000 
     12 CA         10.2750   -5.3180   23.9770 C.3       6 GLP5        0.0000 
     13 CA          9.0150   -5.5275   28.0670 C.3       3 GLC5        0.0000 
     14 CA         10.4790   -3.9100   27.7140 C.3       9 GLL5        0.0000 
     15 CA         10.3770   -4.6140   25.8455 C.3       3 GLC5        0.0000 
     16 CA         14.3115   -2.2630   26.7745 C.3       3 GLC5        0.0000 
     17 CA         14.1560   -0.9990   28.5130 C.3       9 GLL5        0.0000 
     18 CA         14.4670   -3.5270   25.0360 C.3       6 GLP5        0.0000 
     19 CA         12.8850    2.0520   30.7820 C.3       3 GLC5        0.0000 
     20 CA         12.7020    0.7540   29.4230 C.3       9 GLL5        0.0000 
     21 CA         13.0680    3.3500   32.1410 C.3       6 GLP5        0.0000 
     22 CA         12.0225    0.0325   30.9275 C.3       3 GLC5        0.0000 
     23 N          11.5190   -3.0560   30.9510 N.am      2 SEC2        0.0000 
     24 N          11.2140   -4.2900   30.0830 N.am      8 SEL2        0.0000 
     25 N          11.8240   -1.8220   31.8190 N.am      5 SEP2        0.0000 
     26 O          12.1260   -5.4935   30.2770 O.2       1 ALC1        0.0000 
     27 O          11.2140   -4.2900   30.0830 O.2       7 ALL1        0.0000 
     28 O          13.0380   -6.6970   30.4710 O.2       4 ALP1        0.0000 
     29 CA         16.7860    4.3015   26.9310 C.3       3 GLC5        0.0000 
     30 CA         15.0850    3.2680   26.2180 C.3       9 GLL5        0.0000 
     31 CA         18.4870    5.3350   27.6440 C.3       6 GLP5        0.0000 
     32 CA         16.3335    2.6050   27.9480 C.3       3 GLC5        0.0000 
     33 CA         17.5820    1.9420   29.6780 C.3       6 GLP5        0.0000 
     34 CA         15.2270    1.2065   23.6325 C.3       3 GLC5        0.0000 
     35 CA         15.6710    2.0590   25.4840 C.3       9 GLL5        0.0000 
     36 CA         14.7830    0.3540   21.7810 C.3       6 GLP5        0.0000 
     37 CA         11.0615    5.5105   27.0665 C.3       3 GLC5        0.0000 
     38 CA         13.0590    5.1760   27.2790 C.3       9 GLL5        0.0000 
     39 CA          9.0640    5.8450   26.8540 C.3       6 GLP5        0.0000 
     40 CA         14.8400    6.2940   27.7285 C.3       3 GLC5        0.0000 
     41 CA         16.6210    7.4120   28.1780 C.3       6 GLP5        0.0000 
     42 CA         12.7055    7.3180   27.6100 C.3       3 GLC5        0.0000 
     43 CA         12.3520    9.4600   27.9410 C.3       6 GLP5        0.0000 
     44 CA         11.2390    1.4135   25.0250 C.3       3 GLC5        0.0000 
     45 CA         12.6240    2.3600   25.8360 C.3       9 GLL5        0.0000 
     46 CA          9.8540    0.4670   24.2140 C.3       6 GLP5        0.0000 
     47 CA         12.0645    6.4880   21.0075 C.3       3 GLC5        0.0000 
     48 CA         14.1490    7.0310   21.1510 C.3       9 GLL5        0.0000 
     49 CA          9.9800    5.9450   20.8640 C.3       6 GLP5        0.0000 
     50 CA         14.8635    8.7465   18.4940 C.3       3 GLC5        0.0000 
     51 CA         14.7910    7.0360   19.7370 C.3       9 GLL5        0.0000 
     52 CA         14.9360   10.4570   17.2510 C.3       6 GLP5        0.0000 
     53 CA         16.1780    8.6695   20.3320 C.3       3 GLC5        0.0000 
     54 CA         17.5650   10.3030   20.9270 C.3       6 GLP5        0.0000 
     55 CA         16.2685    3.4435   18.7690 C.3       3 GLC5        0.0000 
     56 CA         14.9010    4.5310   19.6310 C.3       9 GLL5        0.0000 
     57 CA         17.6360    2.3560   17.9070 C.3       6 GLP5        0.0000 
     58 CA         14.5645    2.3990   21.4260 C.3       3 GLC5        0.0000 
     59 CA         14.3460    4.4440   21.0710 C.3       9 GLL5        0.0000 
     60 CA         15.3970    6.1850   17.1270 C.3       3 GLC5        0.0000 
     61 CA         13.6310    5.7650   17.8470 C.3       9 GLL5        0.0000 
     62 CA         17.1630    6.6050   16.4070 C.3       6 GLP5        0.0000 
     63 CA         11.7825    5.5880   16.5830 C.3       3 GLC5        0.0000 
     64 CA          9.9340    5.4110   15.3190 C.3       6 GLP5        0.0000 
     65 N          14.5995    3.2265   17.4320 N.am      2 SEC2        0.0000 
     66 N          14.4950    3.3990   18.8800 N.am      8 SEL2        0.0000 
     67 N          14.7040    3.0540   15.9840 N.am      5 SEP2        0.0000 
     68 O          13.2250    2.9515   19.0280 O.2       1 ALC1        0.0000 
     69 O          14.4950    3.3990   18.8800 O.2       7 ALL1        0.0000 
     70 O          11.9550    2.5040   19.1760 O.2       4 ALP1        0.0000 
     71 N          16.8645    7.8180   18.7835 N.am      2 SEC2        0.0000 
     72 N          16.2110    7.0350   19.8660 N.am      8 SEL2        0.0000 
     73 N          17.5180    8.6010   17.7010 N.am      5 SEP2        0.0000 
     74 O          16.6935    8.1200   20.7995 O.2       1 ALC1        0.0000 
     75 O          16.2110    7.0350   19.8660 O.2       7 ALL1        0.0000 
     76 O          17.1760    9.2050   21.7330 O.2       4 ALP1        0.0000 
     77 CA          7.1167   -2.7748   31.2205 C.3       3 GLC5        0.0000 
     78 CA          6.0960   -3.1160   32.9300 C.3       6 GLP5        0.0000 
     79 CA          6.0823   -0.6402   29.6820 C.3       3 GLC5        0.0000 
     80 CA          7.5440   -1.9260   29.5840 C.3       9 GLL5        0.0000 
     81 CA          4.3530   -0.0860   29.8900 C.3       6 GLP5        0.0000 
     82 CA          7.9075    1.6452   27.2825 C.3       3 GLC5        0.0000 
     83 CA          8.6910   -0.3380   27.9350 C.3       9 GLL5        0.0000 
     84 CA          7.6740    3.7820   27.1620 C.3       6 GLP5        0.0000 
     85 CA          4.9325   -2.6452   27.6317 C.3       3 GLC5        0.0000 
     86 CA          6.4380   -2.2590   28.5170 C.3       9 GLL5        0.0000 
     87 CA          3.1260   -3.1090   27.4640 C.3       6 GLP5        0.0000 
     88 CA          5.7590   -0.7496   28.6126 C.3       3 GLC5        0.0000 
     89 CA          7.0400   -2.1040   27.0820 C.3       9 GLL5        0.0000 
     90 CA          6.1818   -0.2907   25.9778 C.3       3 GLC5        0.0000 
     91 CA          5.0480    0.7930   24.9790 C.3       6 GLP5        0.0000 
     92 CA          9.1438   -0.1409   25.7895 C.3       3 GLC5        0.0000 
     93 CA          7.5910   -0.6450   26.8710 C.3       9 GLL5        0.0000 
     94 CA         13.7033   -3.0760   26.8305 C.3       3 GLC5        0.0000 
     95 CA         12.5780   -3.0860   28.6570 C.3       9 GLL5        0.0000 
     96 CA         15.6448   -1.8183   28.1115 C.3       3 GLC5        0.0000 
     97 CA         13.3010   -2.1640   28.5930 C.3       9 GLL5        0.0000 
     98 CA         17.5610   -2.0550   27.6700 C.3       6 GLP5        0.0000 
     99 CA         14.1598   -3.9994   29.4780 C.3       3 GLC5        0.0000 
    100 CA         15.6130   -5.0990   30.3130 C.3       6 GLP5        0.0000 
    101 CA         16.2133    1.5435   28.3163 C.3       3 GLC5        0.0000 
    102 CA         14.3720    1.4100   27.5190 C.3       9 GLL5        0.0000 
    103 CA         16.9515    0.1613   25.5755 C.3       3 GLC5        0.0000 
    104 CA         15.3170    0.8800   26.3900 C.3       9 GLL5        0.0000 
    105 CA         18.4090   -1.1470   25.2140 C.3       6 GLP5        0.0000 
    106 CA         13.3075    5.0307   29.3502 C.3       3 GLC5        0.0000 
    107 CA         13.2930    3.7790   27.9140 C.3       9 GLL5        0.0000 
    108 CA         13.4390    5.5840   31.1040 C.3       6 GLP5        0.0000 
    109 CA         15.8445    6.2047   26.4130 C.3       3 GLC5        0.0000 
    110 CA         14.2410    5.6420   26.3950 C.3       9 GLL5        0.0000 
    111 CA         17.2090    7.3140   26.9130 C.3       6 GLP5        0.0000 
    112 CA         16.3607    4.4962   23.5312 C.3       3 GLC5        0.0000 
    113 CA         14.7190    4.5490   25.4310 C.3       9 GLL5        0.0000 
    114 CA         17.9350    4.3980   22.2970 C.3       6 GLP5        0.0000 
    115 CA         16.3265    6.3453   24.2383 C.3       3 GLC5        0.0000 
    116 CA         14.8540    4.6400   24.1000 C.3       9 GLL5        0.0000 
    117 CA         17.9330    7.4760   24.8030 C.3       6 GLP5        0.0000 
    118 CA         12.4452    5.9648   22.9445 C.3       3 GLC5        0.0000 
    119 CA         14.5860    5.7890   23.2470 C.3       9 GLL5        0.0000 
    120 CA         10.4150    6.1680   23.3060 C.3       6 GLP5        0.0000 
    121 CA         16.2052    5.0797   22.4400 C.3       3 GLC5        0.0000 
    122 CA         12.7205    7.7603   19.8160 C.3       3 GLC5        0.0000 
    123 CA         10.9710    8.4870   19.1880 C.3       6 GLP5        0.0000 
    124 CA         14.0030    8.9313   20.9015 C.3       3 GLC5        0.0000 
    125 CA         13.5360   10.8290   21.3590 C.3       6 GLP5        0.0000 
    126 CA         12.4913    7.1320   18.7963 C.3       3 GLC5        0.0000 
    127 CA         14.3920    5.7890   18.9620 C.3       9 GLL5        0.0000 
    128 CA         15.9546    6.0384   17.9486 C.3       3 GLC5        0.0000 
    129 CA         16.2792    4.4427   21.3240 C.3       3 GLC5        0.0000 
@<TRIPOS>BOND
@<TRIPOS>SUBSTRUCTURE
     1 ALC1       26 GROUP        1 X    ALC  0     ROOT ALC X 1
     2 SEC2       23 GROUP        1 X    SEC  0     **** SEC X 2
     3 GLC5        1 GROUP        1 X    GLC  0     **** GLC X 6
     4 ALP1       28 GROUP        1 Y    ALP  0     ROOT ALP Y 8
     5 SEP2       25 GROUP        1 Y    SEP  0     **** SEP Y 9
     6 GLP5        3 GROUP        1 Y    GLP  0     **** GLP Y 13
     7 ALL1       27 GROUP        1 Z    ALL  0     ROOT ALL Z 15
     8 SEL2       24 GROUP        1 Z    SEL  0     **** SEL Z 16
     9 GLL5        2 GROUP        1 Z    GLL  0     **** GLL Z 20
@<TRIPOS>SET

