#    Name: 3vtd_TKD_1_ligand
#    Modification time : Tue Mar 25 01:35:09 2014

@<TRIPOS>MOLECULE
3vtd_TKD_1_ligand
   89    94     1     0     0
SMALL
NO_CHARGES


@<TRIPOS>ATOM
      1 C29         9.3500   -2.8450   27.9920 C.3       1 TKD500      0.0000 
      2 C30         8.7310   -2.9410   29.4380 C.3       1 TKD500      0.0000 
      3 C31         7.5440   -1.9260   29.5840 C.3       1 TKD500      0.0000 
      4 C32         8.0790   -0.4630   29.3640 C.3       1 TKD500      0.0000 
      5 C33         8.6910   -0.3380   27.9350 C.3       1 TKD500      0.0000 
      6 C34         9.8610   -1.3670   27.7830 C.3       1 TKD500      0.0000 
      7 C37         8.2180   -3.1220   26.9260 C.3       1 TKD500      0.0000 
      8 C36         6.4380   -2.2590   28.5170 C.3       1 TKD500      0.0000 
      9 C38         7.5910   -0.6450   26.8710 C.3       1 TKD500      0.0000 
     10 C35         7.0400   -2.1040   27.0820 C.3       1 TKD500      0.0000 
     11 C26        10.4790   -3.9100   27.7140 C.3       1 TKD500      0.0000 
     12 C25        11.6460   -4.1850   28.7290 C.3       1 TKD500      0.0000 
     13 C24        12.5780   -3.0860   28.6570 C.1       1 TKD500      0.0000 
     14 C23        13.3010   -2.1640   28.5930 C.1       1 TKD500      0.0000 
     15 C22        14.1560   -0.9990   28.5130 C.3       1 TKD500      0.0000 
     16 C20        13.4140    0.3070   28.1280 C.3       1 TKD500      0.0000 
     17 C17        14.3720    1.4100   27.5190 C.3       1 TKD500      0.0000 
     18 C21        12.7020    0.7540   29.4230 C.3       1 TKD500      0.0000 
     19 O03        11.2140   -4.2900   30.0830 O.3       1 TKD500      0.0000 
     20 C13        13.7740    2.7060   26.8810 C.3       1 TKD500      0.0000 
     21 C14        15.0850    3.2680   26.2180 C.3       1 TKD500      0.0000 
     22 C15        15.6710    2.0590   25.4840 C.3       1 TKD500      0.0000 
     23 C16        15.3170    0.8800   26.3900 C.3       1 TKD500      0.0000 
     24 C12        13.2930    3.7790   27.9140 C.3       1 TKD500      0.0000 
     25 C11        13.0590    5.1760   27.2790 C.3       1 TKD500      0.0000 
     26 C09        14.2410    5.6420   26.3950 C.3       1 TKD500      0.0000 
     27 C08        14.7190    4.5490   25.4310 C.2       1 TKD500      0.0000 
     28 C18        12.6240    2.3600   25.8360 C.3       1 TKD500      0.0000 
     29 C07        14.8540    4.6400   24.1000 C.2       1 TKD500      0.0000 
     30 C06        14.5860    5.7890   23.2470 C.2       1 TKD500      0.0000 
     31 C05        14.3650    5.7340   21.9190 C.2       1 TKD500      0.0000 
     32 C04        14.1490    7.0310   21.1510 C.3       1 TKD500      0.0000 
     33 C03        14.7910    7.0360   19.7370 C.3       1 TKD500      0.0000 
     34 C02        14.3920    5.7890   18.9620 C.2       1 TKD500      0.0000 
     35 C01        14.9010    4.5310   19.6310 C.3       1 TKD500      0.0000 
     36 C10        14.3460    4.4440   21.0710 C.3       1 TKD500      0.0000 
     37 C28        13.6310    5.7650   17.8470 C.2       1 TKD500      0.0000 
     38 O01        14.4950    3.3990   18.8800 O.3       1 TKD500      0.0000 
     39 O02        16.2110    7.0350   19.8660 O.3       1 TKD500      0.0000 
     40 H           9.4924   -2.6986   30.1584 H         1 TKD500      0.0000 
     41 H           8.3615   -3.9396   29.5919 H         1 TKD500      0.0000 
     42 H           7.1324   -2.0063   30.5525 H         1 TKD500      0.0000 
     43 H           8.8397   -0.2588   30.0960 H         1 TKD500      0.0000 
     44 H           7.2576    0.2242   29.4607 H         1 TKD500      0.0000 
     45 H           9.0607    0.6377   27.7915 H         1 TKD500      0.0000 
     46 H          10.2793   -1.2833   26.7902 H         1 TKD500      0.0000 
     47 H          10.6176   -1.1550   28.5249 H         1 TKD500      0.0000 
     48 H           7.8432   -4.1238   27.0740 H         1 TKD500      0.0000 
     49 H           8.6434   -3.0238   25.9384 H         1 TKD500      0.0000 
     50 H           5.6228   -1.5705   28.6348 H         1 TKD500      0.0000 
     51 H           6.1140   -3.2729   28.6570 H         1 TKD500      0.0000 
     52 H           8.0192   -0.5756   25.8869 H         1 TKD500      0.0000 
     53 H           6.7799    0.0516   26.9872 H         1 TKD500      0.0000 
     54 H           6.3023   -2.3114   26.3616 H         1 TKD500      0.0000 
     55 H          10.9479   -3.6524   26.7156 H         1 TKD500      0.0000 
     56 H           9.9669   -4.8986   27.5059 H         1 TKD500      0.0000 
     57 H          12.1394   -5.0929   28.4016 H         1 TKD500      0.0000 
     58 H          14.9644   -1.1463   27.7664 H         1 TKD500      0.0000 
     59 H          14.6667   -0.8101   29.4806 H         1 TKD500      0.0000 
     60 H          12.6582    0.0531   27.4021 H         1 TKD500      0.0000 
     61 H          15.0677    1.7570   28.3187 H         1 TKD500      0.0000 
     62 H          15.7307    3.5214   27.0557 H         1 TKD500      0.0000 
     63 H          16.7236    2.1571   25.4161 H         1 TKD500      0.0000 
     64 H          15.1956    1.9459   24.5441 H         1 TKD500      0.0000 
     65 H          14.7947    0.1292   25.8304 H         1 TKD500      0.0000 
     66 H          16.2044    0.4845   26.8436 H         1 TKD500      0.0000 
     67 H          14.0464    3.8665   28.6999 H         1 TKD500      0.0000 
     68 H          12.3611    3.4325   28.3660 H         1 TKD500      0.0000 
     69 H          12.9047    5.9048   28.0787 H         1 TKD500      0.0000 
     70 H          12.1528    5.1382   26.6692 H         1 TKD500      0.0000 
     71 H          15.0691    5.9378   27.0442 H         1 TKD500      0.0000 
     72 H          13.9257    6.5169   25.8206 H         1 TKD500      0.0000 
     73 H          15.2040    3.7718   23.5520 H         1 TKD500      0.0000 
     74 H          14.5726    6.7241   23.7509 H         1 TKD500      0.0000 
     75 H          14.5696    7.8702   21.7235 H         1 TKD500      0.0000 
     76 H          13.0709    7.2163   21.0407 H         1 TKD500      0.0000 
     77 H          14.4421    7.8981   19.2122 H         1 TKD500      0.0000 
     78 H          15.9774    4.5953   19.7010 H         1 TKD500      0.0000 
     79 H          13.2969    4.0717   21.0203 H         1 TKD500      0.0000 
     80 H          14.9123    3.6552   21.6178 H         1 TKD500      0.0000 
     81 H          13.3512    0.9211   30.1650 H         1 TKD500      0.0000 
     82 H          12.1852    1.5997   29.2897 H         1 TKD500      0.0000 
     83 H          12.0558    0.0638   29.7487 H         1 TKD500      0.0000 
     84 H          12.9612    1.7872   25.0889 H         1 TKD500      0.0000 
     85 H          11.8680    1.8662   26.2657 H         1 TKD500      0.0000 
     86 H          12.2380    3.1844   25.4221 H         1 TKD500      0.0000 
     87 H          11.7286   -5.0602   30.4597 H         1 TKD500      0.0000 
     88 H          13.5402    3.2477   19.1359 H         1 TKD500      0.0000 
     89 H          16.4172    7.8113   20.4616 H         1 TKD500      0.0000 
@<TRIPOS>BOND
     1    2    1 1    
     2    6    1 1    
     3    7    1 1    
     4   11    1 1    
     5    3    2 1    
     6   40    2 1    
     7   41    2 1    
     8    4    3 1    
     9    8    3 1    
    10   42    3 1    
    11    5    4 1    
    12   43    4 1    
    13   44    4 1    
    14    6    5 1    
    15    9    5 1    
    16   45    5 1    
    17   46    6 1    
    18   47    6 1    
    19   10    7 1    
    20   48    7 1    
    21   49    7 1    
    22   10    8 1    
    23   50    8 1    
    24   51    8 1    
    25   10    9 1    
    26   52    9 1    
    27   53    9 1    
    28   54   10 1    
    29   12   11 1    
    30   55   11 1    
    31   56   11 1    
    32   13   12 1    
    33   19   12 1    
    34   57   12 1    
    35   14   13 3    
    36   15   14 1    
    37   16   15 1    
    38   58   15 1    
    39   59   15 1    
    40   17   16 1    
    41   18   16 1    
    42   60   16 1    
    43   20   17 1    
    44   23   17 1    
    45   61   17 1    
    46   81   18 1    
    47   82   18 1    
    48   83   18 1    
    49   87   19 1    
    50   21   20 1    
    51   24   20 1    
    52   28   20 1    
    53   22   21 1    
    54   27   21 1    
    55   62   21 1    
    56   23   22 1    
    57   63   22 1    
    58   64   22 1    
    59   65   23 1    
    60   66   23 1    
    61   25   24 1    
    62   67   24 1    
    63   68   24 1    
    64   26   25 1    
    65   69   25 1    
    66   70   25 1    
    67   27   26 1    
    68   71   26 1    
    69   72   26 1    
    70   29   27 2    
    71   84   28 1    
    72   85   28 1    
    73   86   28 1    
    74   30   29 1    
    75   73   29 1    
    76   31   30 2    
    77   74   30 1    
    78   32   31 1    
    79   36   31 1    
    80   33   32 1    
    81   75   32 1    
    82   76   32 1    
    83   34   33 1    
    84   39   33 1    
    85   77   33 1    
    86   35   34 1    
    87   37   34 2    
    88   36   35 1    
    89   38   35 1    
    90   78   35 1    
    91   79   36 1    
    92   80   36 1    
    93   88   38 1    
    94   89   39 1    
@<TRIPOS>SUBSTRUCTURE
     1 TKD500      1 GROUP   
@<TRIPOS>SET

