#    Name: 4kvz_SAH_1_INTS_M
#    Modification time : Tue Mar 25 09:08:23 2014

@<TRIPOS>MOLECULE
4kvz_SAH_1_INTS_M
   62     0     9     0     0
SMALL
NO_CHARGES


@<TRIPOS>ATOM
      1 O          54.5560   22.7555   44.5660 O.2       1 ALC1        0.0000 
      2 O          55.7150   23.5380   44.4500 O.2       7 ALL1        0.0000 
      3 O          53.3970   21.9730   44.6820 O.2       4 ALP1        0.0000 
      4 O          55.7240   24.8515   44.0500 O.2       1 ALC1        0.0000 
      5 O          55.7330   26.1650   43.6500 O.2       4 ALP1        0.0000 
      6 O          56.8855   23.3305   43.9260 O.2       1 ALC1        0.0000 
      7 O          58.0560   23.1230   43.4020 O.2       4 ALP1        0.0000 
      8 CA         52.8655   24.7120   45.5480 C.3       3 GLC5        0.0000 
      9 CA         54.8400   24.4500   46.5490 C.3       9 GLL5        0.0000 
     10 CA         50.8910   24.9740   44.5470 C.3       6 GLP5        0.0000 
     11 N          58.6535   22.1005   48.1705 N.am      2 SEC2        0.0000 
     12 N          57.2570   22.7690   47.5510 N.am      8 SEL2        0.0000 
     13 N          60.0500   21.4320   48.7900 N.am      5 SEP2        0.0000 
     14 CA         53.8940   27.6440   44.3320 C.3       3 GLC5        0.0000 
     15 CA         53.4020   27.8020   46.4920 C.3       9 GLL5        0.0000 
     16 CA         54.3860   27.4860   42.1720 C.3       6 GLP5        0.0000 
     17 CA         53.1645   28.9235   49.0680 C.3       3 GLC5        0.0000 
     18 CA         53.7690   29.0650   47.2720 C.3       9 GLL5        0.0000 
     19 CA         52.5600   28.7820   50.8640 C.3       6 GLP5        0.0000 
     20 O          55.2560   30.5785   45.9595 O.2       1 ALC1        0.0000 
     21 O          55.1560   29.3660   47.0570 O.2       7 ALL1        0.0000 
     22 O          55.3560   31.7910   44.8620 O.2       4 ALP1        0.0000 
     23 O          55.5410   29.5445   45.7790 O.2       1 ALC1        0.0000 
     24 O          55.9260   29.7230   44.5010 O.2       4 ALP1        0.0000 
     25 CA         52.2440   30.5755   48.4385 C.3       3 GLC5        0.0000 
     26 CA         52.8840   30.1450   46.6840 C.3       9 GLL5        0.0000 
     27 CA         51.6040   31.0060   50.1930 C.3       6 GLP5        0.0000 
     28 O          54.4275   31.6120   45.7690 O.2       1 ALC1        0.0000 
     29 O          53.4990   31.4330   46.6760 O.2       7 ALL1        0.0000 
     30 CA         53.5095   28.5525   43.7290 C.3       3 GLC5        0.0000 
     31 CA         52.6330   29.6190   45.2860 C.3       9 GLL5        0.0000 
     32 CA         50.0585   33.0750   40.4415 C.3       3 GLC5        0.0000 
     33 CA         49.6950   31.4900   41.7660 C.3       9 GLL5        0.0000 
     34 CA         50.4220   34.6600   39.1170 C.3       6 GLP5        0.0000 
     35 CA         50.0540   30.7625   39.7010 C.3       3 GLC5        0.0000 
     36 CA         50.4130   30.0350   37.6360 C.3       6 GLP5        0.0000 
     37 O          48.1915   32.5510   40.1820 O.2       1 ALC1        0.0000 
     38 O          48.4360   31.8850   41.4320 O.2       7 ALL1        0.0000 
     39 O          47.9470   33.2170   38.9320 O.2       4 ALP1        0.0000 
     40 N          50.6155   31.9935   39.5175 N.am      2 SEC2        0.0000 
     41 N          50.7090   31.5540   40.8770 N.am      8 SEL2        0.0000 
     42 N          50.5220   32.4330   38.1580 N.am      5 SEP2        0.0000 
     43 CA         53.8240   31.4820   41.4865 C.3       3 GLC5        0.0000 
     44 CA         51.9740   31.1720   41.1670 C.3       9 GLL5        0.0000 
     45 CA         55.6740   31.7920   41.8060 C.3       6 GLP5        0.0000 
     46 CA         51.9675   32.9195   42.0865 C.3       3 GLC5        0.0000 
     47 CA         51.9610   34.6670   43.0060 C.3       6 GLP5        0.0000 
     48 CA         51.1980   32.9160   40.1420 C.3       3 GLC5        0.0000 
     49 CA         51.1935   30.6035   39.4015 C.3       3 GLC5        0.0000 
     50 N          53.1750   32.0395   42.5310 N.am      2 SEC2        0.0000 
     51 N          52.3050   30.6890   42.3780 N.am      8 SEL2        0.0000 
     52 N          54.0450   33.3900   42.6840 N.am      5 SEP2        0.0000 
     53 CA         52.8830   29.0280   42.7705 C.3       3 GLC5        0.0000 
     54 CA         51.3800   30.5700   43.3690 C.3       9 GLL5        0.0000 
     55 CA         52.8807   26.9233   49.5572 C.3       3 GLC5        0.0000 
     56 CA         52.7570   26.7280   47.3640 C.3       9 GLL5        0.0000 
     57 CA         52.4160   27.4370   51.1750 C.3       6 GLP5        0.0000 
     58 CA         51.9853   26.1195   45.7375 C.3       3 GLC5        0.0000 
     59 CA         51.1388   27.2490   47.1130 C.3       3 GLC5        0.0000 
     60 CA         49.1980   27.2330   47.2980 C.3       6 GLP5        0.0000 
     61 CA         51.2861   32.7825   42.9554 C.3       3 GLC5        0.0000 
     62 CA         49.9900   30.9620   43.1150 C.3       9 GLL5        0.0000 
@<TRIPOS>BOND
@<TRIPOS>SUBSTRUCTURE
     1 ALC1        1 GROUP        1 X    ALC  0     ROOT ALC X 1
     2 SEC2       11 GROUP        1 X    SEC  0     **** SEC X 2
     3 GLC5        8 GROUP        1 X    GLC  0     **** GLC X 6
     4 ALP1        3 GROUP        1 Y    ALP  0     ROOT ALP Y 8
     5 SEP2       13 GROUP        1 Y    SEP  0     **** SEP Y 9
     6 GLP5       10 GROUP        1 Y    GLP  0     **** GLP Y 13
     7 ALL1        2 GROUP        1 Z    ALL  0     ROOT ALL Z 15
     8 SEL2       12 GROUP        1 Z    SEL  0     **** SEL Z 16
     9 GLL5        9 GROUP        1 Z    GLL  0     **** GLL Z 20
@<TRIPOS>SET

