#    Name: 4kvz_SAH_1_ligand
#    Modification time : Tue Mar 25 09:08:23 2014

@<TRIPOS>MOLECULE
4kvz_SAH_1_ligand
   46    48     1     0     0
SMALL
NO_CHARGES


@<TRIPOS>ATOM
      1 N          55.7150   23.5380   44.4500 N.4       1 SAH500      0.0000 
      2 CA         56.0620   23.8880   45.8280 C.3       1 SAH500      0.0000 
      3 CB         54.8400   24.4500   46.5490 C.3       1 SAH500      0.0000 
      4 CG         55.2760   25.5800   47.4740 C.3       1 SAH500      0.0000 
      5 SD         53.9340   26.0910   48.5150 S.3       1 SAH500      0.0000 
      6 C          56.5290   22.6720   46.5650 C.2       1 SAH500      0.0000 
      7 O          56.2020   21.5520   46.1980 O.co2     1 SAH500      0.0000 
      8 OXT        57.2570   22.7690   47.5510 O.co2     1 SAH500      0.0000 
      9 C5'        52.7570   26.7280   47.3640 C.3       1 SAH500      0.0000 
     10 C4'        53.4020   27.8020   46.4920 C.3       1 SAH500      0.0000 
     11 O4'        52.4920   28.2040   45.4680 O.3       1 SAH500      0.0000 
     12 C3'        53.7690   29.0650   47.2720 C.3       1 SAH500      0.0000 
     13 O3'        55.1560   29.3660   47.0570 O.3       1 SAH500      0.0000 
     14 C2'        52.8840   30.1450   46.6840 C.3       1 SAH500      0.0000 
     15 O2'        53.4990   31.4330   46.6760 O.3       1 SAH500      0.0000 
     16 C1'        52.6330   29.6190   45.2860 C.3       1 SAH500      0.0000 
     17 N9         51.4120   30.1450   44.6270 N.pl3     1 SAH500      0.0000 
     18 C8         50.1780   30.2440   45.1620 C.2       1 SAH500      0.0000 
     19 N7         49.3020   30.7420   44.2520 N.2       1 SAH500      0.0000 
     20 C5         49.9900   30.9620   43.1150 C.ar      1 SAH500      0.0000 
     21 C6         49.6950   31.4900   41.7660 C.ar      1 SAH500      0.0000 
     22 N6         48.4360   31.8850   41.4320 N.pl3     1 SAH500      0.0000 
     23 N1         50.7090   31.5540   40.8770 N.ar      1 SAH500      0.0000 
     24 C2         51.9740   31.1720   41.1670 C.ar      1 SAH500      0.0000 
     25 N3         52.3050   30.6890   42.3780 N.ar      1 SAH500      0.0000 
     26 C4         51.3800   30.5700   43.3690 C.ar      1 SAH500      0.0000 
     27 H          56.8362   24.6321   45.8480 H         1 SAH500      0.0000 
     28 H          54.3743   23.6653   47.1323 H         1 SAH500      0.0000 
     29 H          54.1362   24.8317   45.8197 H         1 SAH500      0.0000 
     30 H          55.5359   26.4736   46.9517 H         1 SAH500      0.0000 
     31 H          56.0290   25.2856   48.1705 H         1 SAH500      0.0000 
     32 H          51.9796   27.1073   47.9854 H         1 SAH500      0.0000 
     33 H          52.4565   25.8682   46.8119 H         1 SAH500      0.0000 
     34 H          54.3059   27.4038   46.0559 H         1 SAH500      0.0000 
     35 H          53.5199   28.9188   48.2838 H         1 SAH500      0.0000 
     36 H          51.9486   30.1197   47.2092 H         1 SAH500      0.0000 
     37 H          53.5050   29.8162   44.6873 H         1 SAH500      0.0000 
     38 H          49.9418   29.9933   46.0774 H         1 SAH500      0.0000 
     39 H          47.7359   31.7648   42.1358 H         1 SAH500      0.0000 
     40 H          48.3221   32.2606   40.5122 H         1 SAH500      0.0000 
     41 H          52.7157   31.2562   40.4239 H         1 SAH500      0.0000 
     42 H          56.4988   23.1661   43.9526 H         1 SAH500      0.0000 
     43 H          54.9908   22.8494   44.4128 H         1 SAH500      0.0000 
     44 H          55.3912   24.3320   43.9354 H         1 SAH500      0.0000 
     45 H          55.2536   29.4409   46.0646 H         1 SAH500      0.0000 
     46 H          54.1993   31.3809   45.9640 H         1 SAH500      0.0000 
@<TRIPOS>BOND
     1    2    1 1    
     2   42    1 1    
     3   43    1 1    
     4   44    1 1    
     5    3    2 1    
     6    6    2 1    
     7   27    2 1    
     8    4    3 1    
     9   28    3 1    
    10   29    3 1    
    11    5    4 1    
    12   30    4 1    
    13   31    4 1    
    14    9    5 1    
    15    7    6 ar   
    16    8    6 ar   
    17   10    9 1    
    18   32    9 1    
    19   33    9 1    
    20   11   10 1    
    21   12   10 1    
    22   34   10 1    
    23   16   11 1    
    24   13   12 1    
    25   14   12 1    
    26   35   12 1    
    27   45   13 1    
    28   15   14 1    
    29   16   14 1    
    30   36   14 1    
    31   46   15 1    
    32   17   16 1    
    33   37   16 1    
    34   18   17 1    
    35   26   17 1    
    36   19   18 2    
    37   38   18 1    
    38   20   19 1    
    39   21   20 ar   
    40   26   20 ar   
    41   22   21 1    
    42   23   21 ar   
    43   39   22 1    
    44   40   22 1    
    45   24   23 ar   
    46   25   24 ar   
    47   41   24 1    
    48   26   25 ar   
@<TRIPOS>SUBSTRUCTURE
     1 SAH500      1 GROUP   
@<TRIPOS>SET

