#    Name: 4kfo_1QS_1_INTS_M
#    Modification time : Tue Mar 25 07:50:00 2014

@<TRIPOS>MOLECULE
4kfo_1QS_1_INTS_M
   63     0     6     0     0
SMALL
NO_CHARGES


@<TRIPOS>ATOM
      1 CA         15.2230    5.1460    1.8155 C.3       2 GLC5        0.0000 
      2 CA         15.2370    6.3110    0.5700 C.3       6 GLL5        0.0000 
      3 CA         15.2090    3.9810    3.0610 C.3       4 GLP5        0.0000 
      4 CA         15.9620    5.9820    2.6115 C.3       2 GLC5        0.0000 
      5 CA         15.9810    7.2010    1.3300 C.3       6 GLL5        0.0000 
      6 CA         15.9430    4.7630    3.8930 C.3       4 GLP5        0.0000 
      7 CA         18.3015   10.6715    2.5265 C.3       2 GLC5        0.0000 
      8 CA         17.2730    9.3640    1.5390 C.3       6 GLL5        0.0000 
      9 CA         19.3300   11.9790    3.5140 C.3       4 GLP5        0.0000 
     10 CA         14.9030    8.0750    8.3620 C.3       2 GLC5        0.0000 
     11 CA         15.6850    9.7850    7.9420 C.3       6 GLL5        0.0000 
     12 CA         14.1210    6.3650    8.7820 C.3       4 GLP5        0.0000 
     13 CA         17.1220    8.4030    7.2485 C.3       2 GLC5        0.0000 
     14 CA         18.5590    7.0210    6.5550 C.3       4 GLP5        0.0000 
     15 CA         17.6235   10.1875    8.4390 C.3       2 GLC5        0.0000 
     16 CA         19.5620   10.5900    8.9360 C.3       4 GLP5        0.0000 
     17 CA         15.0040    6.6440   -4.5365 C.3       2 GLC5        0.0000 
     18 CA         15.7170    4.9590   -3.8440 C.3       6 GLL5        0.0000 
     19 CA         14.2910    8.3290   -5.2290 C.3       4 GLP5        0.0000 
     20 CA         14.8345    8.0525   -3.2670 C.3       2 GLC5        0.0000 
     21 CA         15.3780    7.7760   -1.3050 C.3       6 GLL5        0.0000 
     22 O          17.7770    9.2725    4.0310 O.2       1 ALC1        0.0000 
     23 O          16.7790    9.5930    2.8840 O.2       5 ALL1        0.0000 
     24 O          18.7750    8.9520    5.1780 O.2       3 ALP1        0.0000 
     25 CA         12.3005   12.0195    3.4295 C.3       2 GLC5        0.0000 
     26 CA         13.9820   11.3250    4.5390 C.3       6 GLL5        0.0000 
     27 CA         10.6190   12.7140    2.3200 C.3       4 GLP5        0.0000 
     28 CA         13.8245    8.7030    8.5905 C.3       2 GLC5        0.0000 
     29 CA         14.7860   10.2590    8.8270 C.3       6 GLL5        0.0000 
     30 CA         12.8630    7.1470    8.3540 C.3       4 GLP5        0.0000 
     31 CA         17.1780    8.5165    6.0030 C.3       2 GLC5        0.0000 
     32 CA         15.7970   10.0120    5.4510 C.3       6 GLL5        0.0000 
     33 CA         17.8560    1.2775   -1.7680 C.3       2 GLC5        0.0000 
     34 CA         18.4470    2.8670   -1.5300 C.3       6 GLL5        0.0000 
     35 CA         17.2650   -0.3120   -2.0060 C.3       4 GLP5        0.0000 
     36 CA         17.9705    1.7105    0.3180 C.3       2 GLC5        0.0000 
     37 CA         17.4940    0.5540    2.1660 C.3       4 GLP5        0.0000 
     38 CA         20.3340    2.0215   -1.0175 C.3       2 GLC5        0.0000 
     39 CA         22.2210    1.1760   -0.5050 C.3       4 GLP5        0.0000 
     40 CA         19.6860    4.0185   -0.5000 C.3       2 GLC5        0.0000 
     41 CA         20.9250    5.1700    0.5300 C.3       4 GLP5        0.0000 
     42 CA         18.7040    5.4935   -4.7785 C.3       2 GLC5        0.0000 
     43 CA         17.1140    4.6120   -5.7250 C.3       6 GLL5        0.0000 
     44 CA         20.2940    6.3750   -3.8320 C.3       4 GLP5        0.0000 
     45 CA         18.0845    5.8235   -6.6840 C.3       2 GLC5        0.0000 
     46 CA         19.0550    7.0350   -7.6430 C.3       4 GLP5        0.0000 
     47 CA         13.2285    6.6947    0.2990 C.3       2 GLC5        0.0000 
     48 CA         14.9190    6.5960   -0.7460 C.3       6 GLL5        0.0000 
     49 CA         11.3790    6.9360    0.6860 C.3       4 GLP5        0.0000 
     50 CA         17.3680    8.1593   -1.3977 C.3       2 GLC5        0.0000 
     51 CA         16.1240    8.6590   -0.5500 C.3       6 GLL5        0.0000 
     52 CA         18.4550    7.8000   -2.9040 C.3       4 GLP5        0.0000 
     53 CA         17.2231    6.1314   -2.6771 C.3       2 GLC5        0.0000 
     54 CA         16.3920    4.0670   -1.7280 C.3       6 GLL5        0.0000 
     55 CA         16.7064   10.7345    0.3167 C.3       2 GLC5        0.0000 
     56 CA         16.9230   12.7040    0.3320 C.3       4 GLP5        0.0000 
     57 CA         14.9800    9.8808   -1.4633 C.3       2 GLC5        0.0000 
     58 CA         14.2090   11.5440   -1.9990 C.3       4 GLP5        0.0000 
     59 CA         16.8017    7.4930   -1.9647 C.3       2 GLC5        0.0000 
     60 CA         17.4047   11.1330    4.2115 C.3       2 GLC5        0.0000 
     61 CA         15.1620   10.5620    4.3670 C.3       6 GLL5        0.0000 
     62 CA         18.8666    5.0943   -3.4954 C.3       2 GLC5        0.0000 
     63 CA         17.5500    3.5470   -2.2920 C.3       6 GLL5        0.0000 
@<TRIPOS>BOND
@<TRIPOS>SUBSTRUCTURE
     1 ALC1       22 GROUP        1 X    ALC  0     ROOT ALC X 1
     2 GLC5        1 GROUP        1 X    GLC  0     **** GLC X 6
     3 ALP1       24 GROUP        1 Y    ALP  0     ROOT ALP Y 8
     4 GLP5        3 GROUP        1 Y    GLP  0     **** GLP Y 13
     5 ALL1       23 GROUP        1 Z    ALL  0     ROOT ALL Z 15
     6 GLL5        2 GROUP        1 Z    GLL  0     **** GLL Z 20
@<TRIPOS>SET

