#    Name: 4kfo_1QS_1_ligand
#    Modification time : Tue Mar 25 07:50:00 2014

@<TRIPOS>MOLECULE
4kfo_1QS_1_ligand
   45    48     1     0     0
SMALL
NO_CHARGES


@<TRIPOS>ATOM
      1 C4         15.2370    6.3110    0.5700 C.ar      1 1QS601      0.0000 
      2 C5         15.9810    7.2010    1.3300 C.ar      1 1QS601      0.0000 
      3 C6         16.4380    8.3780    0.7670 C.ar      1 1QS601      0.0000 
      4 C7         17.2730    9.3640    1.5390 C.3       1 1QS601      0.0000 
      5 C13        13.4780   11.5110    5.7770 C.2       1 1QS601      0.0000 
      6 C17        15.6850    9.7850    7.9420 C.2       1 1QS601      0.0000 
      7 C24        15.7170    4.9590   -3.8440 C.ar      1 1QS601      0.0000 
      8 C26        17.7850    3.7300   -3.6410 C.ar      1 1QS601      0.0000 
      9 C28        16.3920    4.0670   -1.7280 C.ar      1 1QS601      0.0000 
     10 C1         16.1240    8.6590   -0.5500 C.ar      1 1QS601      0.0000 
     11 C2         15.3780    7.7760   -1.3050 C.ar      1 1QS601      0.0000 
     12 C3         14.9190    6.5960   -0.7460 C.ar      1 1QS601      0.0000 
     13 N8         16.7790    9.5930    2.8840 N.am      1 1QS601      0.0000 
     14 C9         15.6840   10.3460    3.0140 C.2       1 1QS601      0.0000 
     15 O10        15.1110   10.7870    2.0230 O.2       1 1QS601      0.0000 
     16 C11        15.1620   10.5620    4.3670 C.2       1 1QS601      0.0000 
     17 C12        13.9820   11.3250    4.5390 C.2       1 1QS601      0.0000 
     18 C14        14.1400   10.9450    6.8880 C.2       1 1QS601      0.0000 
     19 N15        13.8550   10.9680    8.1770 N.2       1 1QS601      0.0000 
     20 C16        14.7860   10.2590    8.8270 C.2       1 1QS601      0.0000 
     21 N18        15.2810   10.2020    6.6950 N.pl3     1 1QS601      0.0000 
     22 C19        15.7970   10.0120    5.4510 C.2       1 1QS601      0.0000 
     23 S20        14.0220    5.4350   -1.7190 S.o2      1 1QS601      0.0000 
     24 O21        13.4820    4.4330   -0.8730 O.2       1 1QS601      0.0000 
     25 O22        13.2540    6.1130   -2.7080 O.2       1 1QS601      0.0000 
     26 C23        15.4640    4.7580   -2.5010 C.ar      1 1QS601      0.0000 
     27 C25        16.8720    4.4300   -4.4100 C.ar      1 1QS601      0.0000 
     28 C27        17.5500    3.5470   -2.2920 C.ar      1 1QS601      0.0000 
     29 F29        18.4470    2.8670   -1.5300 F         1 1QS601      0.0000 
     30 F30        17.1140    4.6120   -5.7250 F         1 1QS601      0.0000 
     31 H          14.9160    5.4222    0.9942 H         1 1QS601      0.0000 
     32 H          16.1923    6.9831    2.3148 H         1 1QS601      0.0000 
     33 H          17.3039   10.3154    0.9700 H         1 1QS601      0.0000 
     34 H          18.3166    8.9899    1.5676 H         1 1QS601      0.0000 
     35 H          12.6212   12.0555    5.9392 H         1 1QS601      0.0000 
     36 H          16.4575    9.2603    8.1276 H         1 1QS601      0.0000 
     37 H          15.0603    5.4941   -4.4234 H         1 1QS601      0.0000 
     38 H          18.6370    3.3469   -4.0741 H         1 1QS601      0.0000 
     39 H          16.2154    3.9388   -0.7152 H         1 1QS601      0.0000 
     40 H          16.4539    9.5457   -0.9758 H         1 1QS601      0.0000 
     41 H          15.1609    7.9954   -2.2905 H         1 1QS601      0.0000 
     42 H          17.2818    9.1758    3.6541 H         1 1QS601      0.0000 
     43 H          13.5318   11.7244    3.7032 H         1 1QS601      0.0000 
     44 H          14.8138   10.1066    9.7887 H         1 1QS601      0.0000 
     45 H          16.6591    9.4593    5.3185 H         1 1QS601      0.0000 
@<TRIPOS>BOND
     1    2    1 ar   
     2   12    1 ar   
     3   31    1 1    
     4    3    2 ar   
     5   32    2 1    
     6    4    3 1    
     7   10    3 ar   
     8   13    4 1    
     9   33    4 1    
    10   34    4 1    
    11   17    5 2    
    12   18    5 1    
    13   35    5 1    
    14   20    6 2    
    15   21    6 1    
    16   36    6 1    
    17   26    7 ar   
    18   27    7 ar   
    19   37    7 1    
    20   27    8 ar   
    21   28    8 ar   
    22   38    8 1    
    23   26    9 ar   
    24   28    9 ar   
    25   39    9 1    
    26   11   10 ar   
    27   40   10 1    
    28   12   11 ar   
    29   41   11 1    
    30   23   12 1    
    31   14   13 am   
    32   42   13 1    
    33   15   14 2    
    34   16   14 1    
    35   17   16 1    
    36   22   16 2    
    37   43   17 1    
    38   19   18 2    
    39   21   18 1    
    40   20   19 1    
    41   44   20 1    
    42   22   21 1    
    43   45   22 1    
    44   24   23 2    
    45   25   23 2    
    46   26   23 1    
    47   30   27 1    
    48   29   28 1    
@<TRIPOS>SUBSTRUCTURE
     1 1QS601      1 GROUP   
@<TRIPOS>SET

