#    Name: 2bsl_FMN_2_INTS_M
#    Modification time : Mon Mar 24 21:37:16 2014

@<TRIPOS>MOLECULE
2bsl_FMN_2_INTS_M
   61     0     9     0     0
SMALL
NO_CHARGES


@<TRIPOS>ATOM
      1 N           5.3870   16.3840   16.5870 N.am      2 SEC2        0.0000 
      2 N           6.0700   15.7650   17.5930 N.am      8 SEL2        0.0000 
      3 N           4.7040   17.0030   15.5810 N.am      5 SEP2        0.0000 
      4 O           5.9235   13.5550   19.4910 O.2       1 ALC1        0.0000 
      5 O           5.1120   14.6090   19.2990 O.2       7 ALL1        0.0000 
      6 O           6.7350   12.5010   19.6830 O.2       4 ALP1        0.0000 
      7 N           2.9545   12.9775   21.6890 N.am      2 SEC2        0.0000 
      8 N           3.8870   13.2850   20.5790 N.am      8 SEL2        0.0000 
      9 N           2.0220   12.6700   22.7990 N.am      5 SEP2        0.0000 
     10 CA         -4.3495   16.9560   22.4155 C.3       3 GLC5        0.0000 
     11 CA         -2.7870   15.9890   21.7040 C.3       9 GLL5        0.0000 
     12 CA         -5.9120   17.9230   23.1270 C.3       6 GLP5        0.0000 
     13 CA         -4.4745   18.2095   20.7650 C.3       3 GLC5        0.0000 
     14 CA         -2.6830   18.1190   19.7120 C.3       9 GLL5        0.0000 
     15 CA         -6.2660   18.3000   21.8180 C.3       6 GLP5        0.0000 
     16 N           3.4185   16.9595   15.9055 N.am      2 SEC2        0.0000 
     17 N           2.1330   16.9160   16.2300 N.am      8 SEL2        0.0000 
     18 O           1.8450   15.6595   16.8765 O.2       1 ALC1        0.0000 
     19 O           2.1330   16.9160   16.2300 O.2       7 ALL1        0.0000 
     20 O           1.5570   14.4030   17.5230 O.2       4 ALP1        0.0000 
     21 CA          1.6305   19.2245   13.9885 C.3       3 GLC5        0.0000 
     22 CA          1.3610   19.2160   15.8500 C.3       9 GLL5        0.0000 
     23 CA          1.9000   19.2330   12.1270 C.3       6 GLP5        0.0000 
     24 N           3.6900   18.3445   15.6220 N.am      2 SEC2        0.0000 
     25 N           2.6760   19.6860   15.6630 N.am      8 SEL2        0.0000 
     26 O           3.3065   20.6375   14.8210 O.2       1 ALC1        0.0000 
     27 O           2.6760   19.6860   15.6630 O.2       7 ALL1        0.0000 
     28 O           3.9370   21.5890   13.9790 O.2       4 ALP1        0.0000 
     29 CA          0.2170   23.1935   15.0145 C.3       3 GLC5        0.0000 
     30 CA          0.2480   21.3040   15.1370 C.3       9 GLL5        0.0000 
     31 CA          0.1860   25.0830   14.8920 C.3       6 GLP5        0.0000 
     32 CA          1.0740   20.2685   13.6320 C.3       3 GLC5        0.0000 
     33 CA          0.1155   22.2685   13.3695 C.3       3 GLC5        0.0000 
     34 CA         -0.0170   23.2330   11.6020 C.3       6 GLP5        0.0000 
     35 N          -3.8280   19.6210   15.5775 N.am      2 SEC2        0.0000 
     36 N          -2.8170   20.5860   15.6440 N.am      8 SEL2        0.0000 
     37 N          -4.8390   18.6560   15.5110 N.am      5 SEP2        0.0000 
     38 N          -3.9290   20.8665   16.3545 N.am      2 SEC2        0.0000 
     39 N          -5.0410   21.1470   17.0650 N.am      5 SEP2        0.0000 
     40 N          -3.2905   23.3800   14.9260 N.am      2 SEC2        0.0000 
     41 N          -2.4080   22.5160   14.1220 N.am      8 SEL2        0.0000 
     42 N          -4.1730   24.2440   15.7300 N.am      5 SEP2        0.0000 
     43 N          -2.3925   23.0990   12.8425 N.am      2 SEC2        0.0000 
     44 N          -2.3770   23.6820   11.5630 N.am      5 SEP2        0.0000 
     45 N          -3.0530   18.8780   13.1015 N.am      2 SEC2        0.0000 
     46 N          -2.8910   20.3670   13.1210 N.am      8 SEL2        0.0000 
     47 N          -3.2150   17.3890   13.0820 N.am      5 SEP2        0.0000 
     48 CA         -1.6255   15.8525   23.4354 C.3       3 GLC5        0.0000 
     49 CA         -0.3190   15.7290   21.5160 C.3       9 GLL5        0.0000 
     50 CA         -1.4160   15.6420   25.3150 C.3       6 GLP5        0.0000 
     51 CA         -2.0844   16.3113   18.5594 C.3       3 GLC5        0.0000 
     52 CA         -1.4280   17.5390   20.3070 C.3       9 GLL5        0.0000 
     53 CA         -2.9830   14.8540   17.3380 C.3       6 GLP5        0.0000 
     54 CA          0.4941   14.4857   19.9198 C.3       3 GLC5        0.0000 
     55 CA          0.7730   16.8820   19.7350 C.3       9 GLL5        0.0000 
     56 CA          0.4890   12.6270   19.4130 C.3       6 GLP5        0.0000 
     57 CA          0.7642   17.2330   15.0355 C.3       3 GLC5        0.0000 
     58 CA          1.3400   17.9800   16.7600 C.3       9 GLL5        0.0000 
     59 CA          0.1780   15.8680   13.7660 C.3       6 GLP5        0.0000 
     60 CA          3.4097   18.3790   15.6680 C.3       3 GLC5        0.0000 
     61 CA          5.4690   18.1600   15.0310 C.3       6 GLP5        0.0000 
@<TRIPOS>BOND
@<TRIPOS>SUBSTRUCTURE
     1 ALC1        4 GROUP        1 X    ALC  0     ROOT ALC X 1
     2 SEC2        1 GROUP        1 X    SEC  0     **** SEC X 2
     3 GLC5       10 GROUP        1 X    GLC  0     **** GLC X 6
     4 ALP1        6 GROUP        1 Y    ALP  0     ROOT ALP Y 8
     5 SEP2        3 GROUP        1 Y    SEP  0     **** SEP Y 9
     6 GLP5       12 GROUP        1 Y    GLP  0     **** GLP Y 13
     7 ALL1        5 GROUP        1 Z    ALL  0     ROOT ALL Z 15
     8 SEL2        2 GROUP        1 Z    SEL  0     **** SEL Z 16
     9 GLL5       11 GROUP        1 Z    GLL  0     **** GLL Z 20
@<TRIPOS>SET

