#    Name: 2bsl_FMN_2_ligand
#    Modification time : Mon Mar 24 21:37:16 2014

@<TRIPOS>MOLECULE
2bsl_FMN_2_ligand
   50    52     1     0     0
SMALL
NO_CHARGES


@<TRIPOS>ATOM
      1 N1          4.0110   16.4050   18.2700 N.2       1 FMN1312     0.0000 
      2 C2          5.0990   15.5990   18.3500 C.2       1 FMN1312     0.0000 
      3 O2          6.0700   15.7650   17.5930 O.2       1 FMN1312     0.0000 
      4 N3          5.1120   14.6090   19.2990 N.am      1 FMN1312     0.0000 
      5 C4          4.0500   14.4150   20.1260 C.2       1 FMN1312     0.0000 
      6 O4          3.8870   13.2850   20.5790 O.2       1 FMN1312     0.0000 
      7 C4A         2.9530   15.2540   20.0350 C.2       1 FMN1312     0.0000 
      8 N5          1.8410   15.0610   20.8510 N.2       1 FMN1312     0.0000 
      9 C5A         0.7700   15.8850   20.7200 C.ar      1 FMN1312     0.0000 
     10 C6         -0.3190   15.7290   21.5160 C.ar      1 FMN1312     0.0000 
     11 C7         -1.4470   16.5450   21.2990 C.ar      1 FMN1312     0.0000 
     12 C7M        -2.7870   15.9890   21.7040 C.3       1 FMN1312     0.0000 
     13 C8         -1.4280   17.5390   20.3070 C.ar      1 FMN1312     0.0000 
     14 C8M        -2.6830   18.1190   19.7120 C.3       1 FMN1312     0.0000 
     15 C9         -0.3160   17.7080   19.5520 C.ar      1 FMN1312     0.0000 
     16 C9A         0.7730   16.8820   19.7350 C.ar      1 FMN1312     0.0000 
     17 N10         1.8680   17.0740   18.9660 N.pl3     1 FMN1312     0.0000 
     18 C10         2.9620   16.2580   19.1050 C.2       1 FMN1312     0.0000 
     19 C1'         1.9460   18.3030   18.1070 C.3       1 FMN1312     0.0000 
     20 C2'         1.3400   17.9800   16.7600 C.3       1 FMN1312     0.0000 
     21 O2'         2.1330   16.9160   16.2300 O.3       1 FMN1312     0.0000 
     22 C3'         1.3610   19.2160   15.8500 C.3       1 FMN1312     0.0000 
     23 O3'         2.6760   19.6860   15.6630 O.3       1 FMN1312     0.0000 
     24 C4'         0.4730   20.3510   16.3210 C.3       1 FMN1312     0.0000 
     25 O4'        -0.7350   19.7990   16.8060 O.3       1 FMN1312     0.0000 
     26 C5'         0.2480   21.3040   15.1370 C.3       1 FMN1312     0.0000 
     27 O5'        -0.6400   20.7060   14.2310 O.3       1 FMN1312     0.0000 
     28 P          -2.2490   21.0410   14.3050 P.3       1 FMN1312     0.0000 
     29 O1P        -2.8170   20.5860   15.6440 O.co2     1 FMN1312     0.0000 
     30 O2P        -2.4080   22.5160   14.1220 O.co2     1 FMN1312     0.0000 
     31 O3P        -2.8910   20.3670   13.1210 O.co2     1 FMN1312     0.0000 
     32 H           5.9535   13.9968   19.3840 H         1 FMN1312     0.0000 
     33 H          -0.3432   15.0353   22.2691 H         1 FMN1312     0.0000 
     34 H          -0.2729   18.4542   18.8346 H         1 FMN1312     0.0000 
     35 H           2.9802   18.5962   17.9764 H         1 FMN1312     0.0000 
     36 H           1.3911   19.1106   18.5681 H         1 FMN1312     0.0000 
     37 H           0.3260   17.6714   16.9129 H         1 FMN1312     0.0000 
     38 H           0.9537   18.8841   14.8627 H         1 FMN1312     0.0000 
     39 H           1.0097   20.8896   17.0858 H         1 FMN1312     0.0000 
     40 H           1.2292   21.5070   14.6935 H         1 FMN1312     0.0000 
     41 H          -0.1377   22.2443   15.5467 H         1 FMN1312     0.0000 
     42 H          -3.0002   15.1420   21.2170 H         1 FMN1312     0.0000 
     43 H          -2.8231   15.7820   22.6817 H         1 FMN1312     0.0000 
     44 H          -3.5289   16.6317   21.5129 H         1 FMN1312     0.0000 
     45 H          -2.4802   18.8162   19.0244 H         1 FMN1312     0.0000 
     46 H          -3.2397   17.4191   19.2644 H         1 FMN1312     0.0000 
     47 H          -3.2581   18.5510   20.4067 H         1 FMN1312     0.0000 
     48 H           1.8508   16.1039   16.7407 H         1 FMN1312     0.0000 
     49 H           2.5997   20.3966   14.9636 H         1 FMN1312     0.0000 
     50 H          -1.4299   20.4936   16.6197 H         1 FMN1312     0.0000 
@<TRIPOS>BOND
     1    2    1 1    
     2   18    1 2    
     3    3    2 2    
     4    4    2 am   
     5    5    4 am   
     6   32    4 1    
     7    6    5 2    
     8    7    5 1    
     9    8    7 2    
    10   18    7 1    
    11    9    8 1    
    12   10    9 ar   
    13   16    9 ar   
    14   11   10 ar   
    15   33   10 1    
    16   12   11 1    
    17   13   11 ar   
    18   42   12 1    
    19   43   12 1    
    20   44   12 1    
    21   14   13 1    
    22   15   13 ar   
    23   45   14 1    
    24   46   14 1    
    25   47   14 1    
    26   16   15 ar   
    27   34   15 1    
    28   17   16 1    
    29   18   17 1    
    30   19   17 1    
    31   20   19 1    
    32   35   19 1    
    33   36   19 1    
    34   21   20 1    
    35   22   20 1    
    36   37   20 1    
    37   48   21 1    
    38   23   22 1    
    39   24   22 1    
    40   38   22 1    
    41   49   23 1    
    42   25   24 1    
    43   26   24 1    
    44   39   24 1    
    45   50   25 1    
    46   27   26 1    
    47   40   26 1    
    48   41   26 1    
    49   28   27 1    
    50   29   28 ar   
    51   30   28 ar   
    52   31   28 ar   
@<TRIPOS>SUBSTRUCTURE
     1 FMN1312     1 GROUP   
@<TRIPOS>SET

