#    Name: 3ig8_ADP_1_INTS_M
#    Modification time : Tue Mar 25 16:30:23 2014

@<TRIPOS>MOLECULE
3ig8_ADP_1_INTS_M
   48     0    12     0     0
SMALL
NO_CHARGES


@<TRIPOS>ATOM
      1 NZ         30.4130  -10.0135   18.7645 N.4       2 LYC4        0.0000 
      2 NZ         30.8690   -8.6410   17.5570 N.4      10 LYL4        0.0000 
      3 NZ         29.9570  -11.3860   19.9720 N.4       6 LYP4        0.0000 
      4 Zn         33.8170   -7.5845   18.6250 Zn        3 ZIC7        0.0000 
      5 Zn         33.3200   -8.4570   18.2110 Zn       11 ZIL7        0.0000 
      6 Zn         34.3140   -6.7120   19.0390 Zn        7 ZIP7        0.0000 
      7 Zn         33.0105   -6.2760   15.7925 Zn        3 ZIC7        0.0000 
      8 Zn         32.3270   -6.8370   16.4390 Zn       11 ZIL7        0.0000 
      9 Zn         33.6940   -5.7150   15.1460 Zn        7 ZIP7        0.0000 
     10 Zn         34.0795   -6.9870   14.9570 Zn        3 ZIC7        0.0000 
     11 Zn         34.4650   -8.2590   14.7680 Zn       11 ZIL7        0.0000 
     12 CA         36.0370  -12.2625   19.0775 C.3       4 GLC5        0.0000 
     13 CA         35.8140  -11.7900   17.1920 C.3      12 GLL5        0.0000 
     14 CA         36.2600  -12.7350   20.9630 C.3       8 GLP5        0.0000 
     15 CA         37.5735  -10.5695   14.7210 C.3       4 GLC5        0.0000 
     16 CA         36.9940  -11.7850   16.2030 C.3      12 GLL5        0.0000 
     17 CA         38.1530   -9.3540   13.2390 C.3       8 GLP5        0.0000 
     18 CA         38.8280  -13.9405   17.6015 C.3       4 GLC5        0.0000 
     19 CA         36.7110  -13.9320   17.1290 C.3      12 GLL5        0.0000 
     20 CA         40.9450  -13.9490   18.0740 C.3       8 GLP5        0.0000 
     21 CA         36.4855  -13.3335   19.0460 C.3       4 GLC5        0.0000 
     22 CA         36.8795  -19.6460   18.7050 C.3       4 GLC5        0.0000 
     23 CA         35.4140  -18.5140   18.4400 C.3      12 GLL5        0.0000 
     24 CA         38.3450  -20.7780   18.9700 C.3       8 GLP5        0.0000 
     25 CA         35.4920  -19.3125   20.4360 C.3       4 GLC5        0.0000 
     26 CA         35.5700  -20.1110   22.4320 C.3       8 GLP5        0.0000 
     27 O          34.1860  -20.5160   19.3160 O.2       1 ALC1        0.0000 
     28 O          34.8930  -19.6960   18.0500 O.2       9 ALL1        0.0000 
     29 O          33.4790  -21.3360   20.5820 O.2       5 ALP1        0.0000 
     30 CA         37.3135  -18.9720   19.5495 C.3       4 GLC5        0.0000 
     31 CA         36.2820  -17.1660   20.1290 C.3      12 GLL5        0.0000 
     32 CA         38.2035  -17.0510   20.1735 C.3       4 GLC5        0.0000 
     33 CA         40.1250  -16.9360   20.2180 C.3       8 GLP5        0.0000 
     34 CA         35.6545  -15.3510   20.7630 C.3       4 GLC5        0.0000 
     35 CA         35.0270  -13.5360   21.3970 C.3       8 GLP5        0.0000 
     36 CA         36.9735  -16.6575   21.9260 C.3       4 GLC5        0.0000 
     37 CA         37.6650  -16.1490   23.7230 C.3       8 GLP5        0.0000 
     38 CA         35.9260  -18.6385   21.2805 C.3       4 GLC5        0.0000 
     39 CA         34.4515  -17.2255   20.4980 C.3       4 GLC5        0.0000 
     40 CA         32.6210  -17.2850   20.8670 C.3       8 GLP5        0.0000 
     41 CA         35.5865  -14.8435   19.7160 C.3       4 GLC5        0.0000 
     42 CA         36.1460  -16.1510   18.0350 C.3      12 GLL5        0.0000 
     43 CA         36.8530   -9.7927   16.5222 C.3       4 GLC5        0.0000 
     44 CA         37.3020   -7.7980   16.3470 C.3       8 GLP5        0.0000 
     45 CA         34.0600  -17.6175   19.4180 C.3       4 GLC5        0.0000 
     46 CA         35.5840  -17.3860   17.4980 C.3      12 GLL5        0.0000 
     47 CA         37.4363  -17.7548   17.0935 C.3       4 GLC5        0.0000 
     48 CA         39.0500  -18.4590   16.1850 C.3       8 GLP5        0.0000 
@<TRIPOS>BOND
@<TRIPOS>SUBSTRUCTURE
     1 ALC1       27 GROUP        1 X    ALC  0     ROOT ALC X 1
     2 LYC4        1 GROUP        1 X    LYC  0     **** LYC X 4
     3 ZIC7        4 GROUP        1 X    ZIC  0     **** ZIC X 5
     4 GLC5       12 GROUP        1 X    GLC  0     **** GLC X 6
     5 ALP1       29 GROUP        1 Y    ALP  0     ROOT ALP Y 8
     6 LYP4        3 GROUP        1 Y    LYP  0     **** LYP Y 11
     7 ZIP7        6 GROUP        1 Y    ZIP  0     **** ZIP Y 12
     8 GLP5       14 GROUP        1 Y    GLP  0     **** GLP Y 13
     9 ALL1       28 GROUP        1 Z    ALL  0     ROOT ALL Z 15
    10 LYL4        2 GROUP        1 Z    LYL  0     **** LYL Z 18
    11 ZIL7        5 GROUP        1 Z    ZIL  0     **** ZIL Z 19
    12 GLL5       13 GROUP        1 Z    GLL  0     **** GLL Z 20
@<TRIPOS>SET

