#    Name: 3ig8_ADP_1_ligand
#    Modification time : Tue Mar 25 16:30:23 2014

@<TRIPOS>MOLECULE
3ig8_ADP_1_ligand
   39    41     1     0     0
SMALL
NO_CHARGES


@<TRIPOS>ATOM
      1 PB         32.2560   -8.2100   17.1400 P.3       1 ADP694      0.0000 
      2 O1B        30.8690   -8.6410   17.5570 O.co2     1 ADP694      0.0000 
      3 O2B        33.3200   -8.4570   18.2110 O.co2     1 ADP694      0.0000 
      4 O3B        32.3270   -6.8370   16.4390 O.co2     1 ADP694      0.0000 
      5 PA         33.6270   -9.5200   14.9150 P.3       1 ADP694      0.0000 
      6 O1A        32.8950  -10.0970   13.7130 O.co2     1 ADP694      0.0000 
      7 O2A        34.4650   -8.2590   14.7680 O.co2     1 ADP694      0.0000 
      8 O3A        32.4700   -9.3820   16.0440 O.3       1 ADP694      0.0000 
      9 O5'        34.6630  -10.6280   15.4600 O.3       1 ADP694      0.0000 
     10 C5'        34.4560  -11.3340   16.6720 C.3       1 ADP694      0.0000 
     11 C4'        35.8140  -11.7900   17.1920 C.3       1 ADP694      0.0000 
     12 O4'        35.6010  -13.1540   17.5470 O.3       1 ADP694      0.0000 
     13 C3'        36.9940  -11.7850   16.2030 C.3       1 ADP694      0.0000 
     14 O3'        38.2050  -11.2900   16.8230 O.3       1 ADP694      0.0000 
     15 C2'        37.0970  -13.2630   15.8150 C.3       1 ADP694      0.0000 
     16 O2'        38.3620  -13.6950   15.2970 O.3       1 ADP694      0.0000 
     17 C1'        36.7110  -13.9320   17.1290 C.3       1 ADP694      0.0000 
     18 N9         36.2080  -15.2990   17.0230 N.pl3     1 ADP694      0.0000 
     19 C8         35.7210  -15.8740   15.9150 C.2       1 ADP694      0.0000 
     20 N7         35.3390  -17.1440   16.1850 N.2       1 ADP694      0.0000 
     21 C5         35.5840  -17.3860   17.4980 C.ar      1 ADP694      0.0000 
     22 C6         35.4140  -18.5140   18.4400 C.ar      1 ADP694      0.0000 
     23 N6         34.8930  -19.6960   18.0500 N.pl3     1 ADP694      0.0000 
     24 N1         35.7840  -18.3280   19.7140 N.ar      1 ADP694      0.0000 
     25 C2         36.2820  -17.1660   20.1290 C.ar      1 ADP694      0.0000 
     26 N3         36.4700  -16.1140   19.3300 N.ar      1 ADP694      0.0000 
     27 C4         36.1460  -16.1510   18.0350 C.ar      1 ADP694      0.0000 
     28 H          33.8370  -12.2214   16.5307 H         1 ADP694      0.0000 
     29 H          33.9971  -10.7085   17.4393 H         1 ADP694      0.0000 
     30 H          36.0713  -11.2287   18.0639 H         1 ADP694      0.0000 
     31 H          36.6951  -11.2373   15.3464 H         1 ADP694      0.0000 
     32 H          36.2675  -13.4551   15.1299 H         1 ADP694      0.0000 
     33 H          37.5018  -13.8407   17.8179 H         1 ADP694      0.0000 
     34 H          35.6492  -15.4471   15.0400 H         1 ADP694      0.0000 
     35 H          34.8400  -20.4065   18.7517 H         1 ADP694      0.0000 
     36 H          34.6062  -19.7564   17.0939 H         1 ADP694      0.0000 
     37 H          36.5477  -17.0679   21.1635 H         1 ADP694      0.0000 
     38 H          38.8455  -12.0573   16.7886 H         1 ADP694      0.0000 
     39 H          38.5959  -14.5080   15.8303 H         1 ADP694      0.0000 
@<TRIPOS>BOND
     1    2    1 ar   
     2    3    1 ar   
     3    4    1 ar   
     4    8    1 1    
     5    6    5 ar   
     6    7    5 ar   
     7    8    5 1    
     8    9    5 1    
     9   10    9 1    
    10   11   10 1    
    11   28   10 1    
    12   29   10 1    
    13   12   11 1    
    14   13   11 1    
    15   30   11 1    
    16   17   12 1    
    17   14   13 1    
    18   15   13 1    
    19   31   13 1    
    20   38   14 1    
    21   16   15 1    
    22   17   15 1    
    23   32   15 1    
    24   39   16 1    
    25   18   17 1    
    26   33   17 1    
    27   19   18 1    
    28   27   18 1    
    29   20   19 2    
    30   34   19 1    
    31   21   20 1    
    32   22   21 ar   
    33   27   21 ar   
    34   23   22 1    
    35   24   22 ar   
    36   35   23 1    
    37   36   23 1    
    38   25   24 ar   
    39   26   25 ar   
    40   37   25 1    
    41   27   26 ar   
@<TRIPOS>SUBSTRUCTURE
     1 ADP694      1 GROUP   
@<TRIPOS>SET

