#    Name: 4ap3_FAD_1_INTS_M
#    Modification time : Tue Mar 25 06:00:08 2014

@<TRIPOS>MOLECULE
4ap3_FAD_1_INTS_M
  108     0     9     0     0
SMALL
NO_CHARGES


@<TRIPOS>ATOM
      1 N           4.7335   14.0860  -21.0715 N.am      2 SEC2        0.0000 
      2 N           3.3090   13.8090  -21.1300 N.am      8 SEL2        0.0000 
      3 N           6.1580   14.3630  -21.0130 N.am      5 SEP2        0.0000 
      4 CA          1.2630   14.1875  -17.6140 C.3       3 GLC5        0.0000 
      5 CA          2.1420   15.9310  -18.1450 C.3       9 GLL5        0.0000 
      6 CA          0.3840   12.4440  -17.0830 C.3       6 GLP5        0.0000 
      7 CA          1.5655   18.7275  -17.6620 C.3       3 GLC5        0.0000 
      8 CA          2.7850   17.2720  -17.8440 C.3       9 GLL5        0.0000 
      9 CA          0.3460   20.1830  -17.4800 C.3       6 GLP5        0.0000 
     10 CA          6.4250   16.8465  -17.7430 C.3       3 GLC5        0.0000 
     11 CA          4.2870   17.1740  -17.6060 C.3       9 GLL5        0.0000 
     12 CA          8.5630   16.5190  -17.8800 C.3       6 GLP5        0.0000 
     13 O           4.3640   19.3770  -18.3840 O.2       1 ALC1        0.0000 
     14 O           4.9250   18.1830  -18.4040 O.2       7 ALL1        0.0000 
     15 O           3.8030   20.5710  -18.3640 O.2       4 ALP1        0.0000 
     16 N           6.9415   17.9585  -16.5455 N.am      2 SEC2        0.0000 
     17 N           5.6870   18.3350  -16.0000 N.am      8 SEL2        0.0000 
     18 N           8.1960   17.5820  -17.0910 N.am      5 SEP2        0.0000 
     19 O           5.7105   19.5360  -16.7020 O.2       1 ALC1        0.0000 
     20 O           5.6870   18.3350  -16.0000 O.2       7 ALL1        0.0000 
     21 O           5.7340   20.7370  -17.4040 O.2       4 ALP1        0.0000 
     22 CA          1.8095   19.2890  -16.6770 C.3       3 GLC5        0.0000 
     23 CA          3.2730   18.3950  -15.8740 C.3       9 GLL5        0.0000 
     24 CA          3.3395   22.0560  -10.8725 C.3       3 GLC5        0.0000 
     25 CA          2.2140   20.2840  -11.4140 C.3       9 GLL5        0.0000 
     26 CA          4.4650   23.8280  -10.3310 C.3       6 GLP5        0.0000 
     27 CA          0.9195   21.7255  -10.6075 C.3       3 GLC5        0.0000 
     28 CA         -0.3750   23.1670   -9.8010 C.3       6 GLP5        0.0000 
     29 CA          1.0990   19.2805   -9.8825 C.3       3 GLC5        0.0000 
     30 CA         -0.0160   18.2770   -8.3510 C.3       6 GLP5        0.0000 
     31 O           1.7015   20.8995   -8.9805 O.2       1 ALC1        0.0000 
     32 O           1.9040   20.0060  -10.1290 O.2       7 ALL1        0.0000 
     33 O           1.4990   21.7930   -7.8320 O.2       4 ALP1        0.0000 
     34 N           2.2095   22.5775  -10.8605 N.am      2 SEC2        0.0000 
     35 N           2.3230   21.5660  -11.8430 N.am      8 SEL2        0.0000 
     36 N           2.0960   23.5890   -9.8780 N.am      5 SEP2        0.0000 
     37 CA          0.8215   21.1020  -13.0765 C.3       3 GLC5        0.0000 
     38 CA          2.6360   21.8430  -13.1180 C.3       9 GLL5        0.0000 
     39 CA         -0.9930   20.3610  -13.0350 C.3       6 GLP5        0.0000 
     40 CA          3.1240   22.7195  -14.8885 C.3       3 GLC5        0.0000 
     41 CA          3.6120   23.5960  -16.6590 C.3       6 GLP5        0.0000 
     42 CA          4.5780   21.6535  -13.2525 C.3       3 GLC5        0.0000 
     43 CA          6.5200   21.4640  -13.3870 C.3       6 GLP5        0.0000 
     44 CA          3.5505   22.8355  -11.7245 C.3       3 GLC5        0.0000 
     45 CA          0.9895   22.8910  -12.0965 C.3       3 GLC5        0.0000 
     46 CA         -0.6570   23.9390  -11.0750 C.3       6 GLP5        0.0000 
     47 N           4.0440   21.7875  -14.5840 N.am      2 SEC2        0.0000 
     48 N           2.8410   20.8940  -14.0460 N.am      8 SEL2        0.0000 
     49 N           5.2470   22.6810  -15.1220 N.am      5 SEP2        0.0000 
     50 CA          1.5590   19.8850  -15.6145 C.3       3 GLC5        0.0000 
     51 CA          2.7720   19.5870  -13.7490 C.3       9 GLL5        0.0000 
     52 CA          4.6460   20.5255  -13.5680 C.3       3 GLC5        0.0000 
     53 N          -1.2855    6.2360  -25.5625 N.am      2 SEC2        0.0000 
     54 N          -0.0180    5.6510  -25.3710 N.am      8 SEL2        0.0000 
     55 N          -2.5530    6.8210  -25.7540 N.am      5 SEP2        0.0000 
     56 N           4.8650    4.0525  -27.9320 N.am      2 SEC2        0.0000 
     57 N           3.7280    4.5980  -27.5990 N.am      8 SEL2        0.0000 
     58 N           6.0020    3.5070  -28.2650 N.am      5 SEP2        0.0000 
     59 N           3.7520    3.6895  -28.6180 N.am      2 SEC2        0.0000 
     60 N           3.7760    2.7810  -29.6370 N.am      5 SEP2        0.0000 
     61 N           5.6740    4.5130  -26.8885 N.am      2 SEC2        0.0000 
     62 N           5.3460    5.5190  -25.5120 N.am      8 SEL2        0.0000 
     63 CA          8.7485    7.5285  -25.0125 C.3       3 GLC5        0.0000 
     64 CA          9.7710    6.3340  -23.6460 C.3       9 GLL5        0.0000 
     65 CA          7.7260    8.7230  -26.3790 C.3       6 GLP5        0.0000 
     66 CA          9.5320    7.1500  -19.6395 C.3       3 GLC5        0.0000 
     67 CA          8.4190    7.4930  -21.1590 C.3       9 GLL5        0.0000 
     68 CA         10.6450    6.8070  -18.1200 C.3       6 GLP5        0.0000 
     69 CA          6.0885    9.2335  -22.2890 C.3       3 GLC5        0.0000 
     70 CA          6.2200    7.0290  -22.2340 C.3       9 GLL5        0.0000 
     71 CA          5.9570   11.4380  -22.3440 C.3       6 GLP5        0.0000 
     72 CA          4.5945   10.0340  -22.1375 C.3       3 GLC5        0.0000 
     73 CA          3.2320    8.6300  -21.9310 C.3       9 GLL5        0.0000 
     74 CA          0.2655    8.0870  -22.6825 C.3       3 GLC5        0.0000 
     75 CA          1.8870    9.1770  -22.3870 C.3       9 GLL5        0.0000 
     76 CA         -1.3560    6.9970  -22.9780 C.3       6 GLP5        0.0000 
     77 N           2.2390    9.0780  -24.8315 N.am      2 SEC2        0.0000 
     78 N           1.6270    8.6900  -23.6960 N.am      8 SEL2        0.0000 
     79 N           2.8510    9.4660  -25.9670 N.am      5 SEP2        0.0000 
     80 CA          3.9015   11.0650  -22.3580 C.3       3 GLC5        0.0000 
     81 CA          1.8460   10.6920  -22.3720 C.3       9 GLL5        0.0000 
     82 CA         -0.5860    9.6940  -22.9490 C.3       3 GLC5        0.0000 
     83 CA          0.4600   11.2040  -22.0050 C.3       9 GLL5        0.0000 
     84 CA         -1.6320    8.1840  -23.8930 C.3       6 GLP5        0.0000 
     85 N          -1.0235   15.4380  -22.4220 N.am      2 SEC2        0.0000 
     86 N          -0.0740   14.9940  -21.4170 N.am      8 SEL2        0.0000 
     87 N          -1.9730   15.8820  -23.4270 N.am      5 SEP2        0.0000 
     88 CA          1.0198   16.1242  -16.5858 C.3       3 GLC5        0.0000 
     89 CA         -0.4240   15.6470  -15.1770 C.3       6 GLP5        0.0000 
     90 CA          4.4166   16.7784  -19.4411 C.3       3 GLC5        0.0000 
     91 CA          5.4580   16.6690  -21.0820 C.3       6 GLP5        0.0000 
     92 CA          0.7795   20.0125  -12.9286 C.3       3 GLC5        0.0000 
     93 CA          2.4500   19.1980  -12.3770 C.3       9 GLL5        0.0000 
     94 CA          7.0077    5.7600  -26.4988 C.3       3 GLC5        0.0000 
     95 CA          6.0820    5.9890  -24.4770 C.3       9 GLL5        0.0000 
     96 CA          7.2380    5.5630  -28.4810 C.3       6 GLP5        0.0000 
     97 CA          7.6500    9.0452  -21.0160 C.3       3 GLC5        0.0000 
     98 CA          7.6070    6.9740  -22.3130 C.3       9 GLL5        0.0000 
     99 CA          7.2870   10.8570  -20.2960 C.3       6 GLP5        0.0000 
    100 CA          6.6450    6.7957  -20.2795 C.3       3 GLC5        0.0000 
    101 CA          5.2770    6.3580  -18.8230 C.3       6 GLP5        0.0000 
    102 CA          5.5480    6.5773  -20.7870 C.3       3 GLC5        0.0000 
    103 CA          4.2607    7.1162  -20.4008 C.3       3 GLC5        0.0000 
    104 CA          3.2570    7.1190  -22.0260 C.3       9 GLL5        0.0000 
    105 CA          1.3220   11.7315  -24.1728 C.3       3 GLC5        0.0000 
    106 CA          1.4910   12.5150  -26.1570 C.3       6 GLP5        0.0000 
    107 CA          0.8876   10.1736  -20.2196 C.3       3 GLC5        0.0000 
    108 CA          0.6120    9.7780  -18.2470 C.3       6 GLP5        0.0000 
@<TRIPOS>BOND
@<TRIPOS>SUBSTRUCTURE
     1 ALC1       13 GROUP        1 X    ALC  0     ROOT ALC X 1
     2 SEC2        1 GROUP        1 X    SEC  0     **** SEC X 2
     3 GLC5        4 GROUP        1 X    GLC  0     **** GLC X 6
     4 ALP1       15 GROUP        1 Y    ALP  0     ROOT ALP Y 8
     5 SEP2        3 GROUP        1 Y    SEP  0     **** SEP Y 9
     6 GLP5        6 GROUP        1 Y    GLP  0     **** GLP Y 13
     7 ALL1       14 GROUP        1 Z    ALL  0     ROOT ALL Z 15
     8 SEL2        2 GROUP        1 Z    SEL  0     **** SEL Z 16
     9 GLL5        5 GROUP        1 Z    GLL  0     **** GLL Z 20
@<TRIPOS>SET

