#    Name: 4ap3_FAD_1_ligand
#    Modification time : Tue Mar 25 06:00:08 2014

@<TRIPOS>MOLECULE
4ap3_FAD_1_ligand
   84    89     1     0     0
SMALL
NO_CHARGES


@<TRIPOS>ATOM
      1 PA          2.6780   13.9730  -19.7720 P.3       1 FAD1552     0.0000 
      2 O1A         3.3090   13.8090  -21.1300 O.co2     1 FAD1552     0.0000 
      3 O2A         3.3620   13.3230  -18.6110 O.co2     1 FAD1552     0.0000 
      4 O5B         2.4980   15.5220  -19.4560 O.3       1 FAD1552     0.0000 
      5 C5B         2.1420   15.9310  -18.1450 C.3       1 FAD1552     0.0000 
      6 C4B         2.7850   17.2720  -17.8440 C.3       1 FAD1552     0.0000 
      7 O4B         2.2350   17.7640  -16.6330 O.3       1 FAD1552     0.0000 
      8 C3B         4.2870   17.1740  -17.6060 C.3       1 FAD1552     0.0000 
      9 O3B         4.9250   18.1830  -18.4040 O.3       1 FAD1552     0.0000 
     10 C2B         4.5010   17.5440  -16.1530 C.3       1 FAD1552     0.0000 
     11 O2B         5.6870   18.3350  -16.0000 O.3       1 FAD1552     0.0000 
     12 C1B         3.2730   18.3950  -15.8740 C.3       1 FAD1552     0.0000 
     13 N9A         2.9310   18.4570  -14.4360 N.pl3     1 FAD1552     0.0000 
     14 C8A         2.7270   17.4150  -13.6040 C.2       1 FAD1552     0.0000 
     15 N7A         2.4240   17.8600  -12.3560 N.2       1 FAD1552     0.0000 
     16 C5A         2.4500   19.1980  -12.3770 C.ar      1 FAD1552     0.0000 
     17 C6A         2.2140   20.2840  -11.4140 C.ar      1 FAD1552     0.0000 
     18 N6A         1.9040   20.0060  -10.1290 N.pl3     1 FAD1552     0.0000 
     19 N1A         2.3230   21.5660  -11.8430 N.ar      1 FAD1552     0.0000 
     20 C2A         2.6360   21.8430  -13.1180 C.ar      1 FAD1552     0.0000 
     21 N3A         2.8410   20.8940  -14.0460 N.ar      1 FAD1552     0.0000 
     22 C4A         2.7720   19.5870  -13.7490 C.ar      1 FAD1552     0.0000 
     23 N1          1.9170    6.1060  -24.3300 N.2       1 FAD1552     0.0000 
     24 C2          1.2300    5.6150  -25.3900 C.2       1 FAD1552     0.0000 
     25 O2         -0.0180    5.6510  -25.3710 O.2       1 FAD1552     0.0000 
     26 N3          1.8410    5.1050  -26.4750 N.am      1 FAD1552     0.0000 
     27 C4          3.1740    5.0550  -26.5820 C.2       1 FAD1552     0.0000 
     28 O4          3.7280    4.5980  -27.5990 O.2       1 FAD1552     0.0000 
     29 C4X         3.9980    5.5580  -25.4640 C.2       1 FAD1552     0.0000 
     30 N5          5.3460    5.5190  -25.5120 N.2       1 FAD1552     0.0000 
     31 C5X         6.0820    5.9890  -24.4770 C.ar      1 FAD1552     0.0000 
     32 C6          7.4730    5.9250  -24.5560 C.ar      1 FAD1552     0.0000 
     33 C7          8.2660    6.4020  -23.5200 C.ar      1 FAD1552     0.0000 
     34 C7M         9.7710    6.3340  -23.6460 C.3       1 FAD1552     0.0000 
     35 C8          7.6070    6.9740  -22.3130 C.ar      1 FAD1552     0.0000 
     36 C8M         8.4190    7.4930  -21.1590 C.3       1 FAD1552     0.0000 
     37 C9          6.2200    7.0290  -22.2340 C.ar      1 FAD1552     0.0000 
     38 C9A         5.4180    6.5640  -23.2680 C.ar      1 FAD1552     0.0000 
     39 N10         3.9970    6.6130  -23.1990 N.pl3     1 FAD1552     0.0000 
     40 C10         3.2680    6.1090  -24.3000 C.2       1 FAD1552     0.0000 
     41 C1'         3.2570    7.1190  -22.0260 C.3       1 FAD1552     0.0000 
     42 C2'         3.2320    8.6300  -21.9310 C.3       1 FAD1552     0.0000 
     43 O2'         3.3910    8.9110  -20.5510 O.3       1 FAD1552     0.0000 
     44 C3'         1.8870    9.1770  -22.3870 C.3       1 FAD1552     0.0000 
     45 O3'         1.6270    8.6900  -23.6960 O.3       1 FAD1552     0.0000 
     46 C4'         1.8460   10.6920  -22.3720 C.3       1 FAD1552     0.0000 
     47 O4'         2.7470   11.2080  -21.3710 O.3       1 FAD1552     0.0000 
     48 C5'         0.4600   11.2040  -22.0050 C.3       1 FAD1552     0.0000 
     49 O5'         0.5320   12.6200  -22.0940 O.3       1 FAD1552     0.0000 
     50 P           0.0190   13.5640  -20.9200 P.3       1 FAD1552     0.0000 
     51 O1P        -0.0740   14.9940  -21.4170 O.co2     1 FAD1552     0.0000 
     52 O2P        -1.2120   12.8990  -20.3590 O.co2     1 FAD1552     0.0000 
     53 O3P         1.1430   13.4400  -19.7540 O.3       1 FAD1552     0.0000 
     54 H           2.4835   15.2158  -17.3868 H         1 FAD1552     0.0000 
     55 H           1.0569   16.0448  -18.0328 H         1 FAD1552     0.0000 
     56 H           2.6051   17.9483  -18.6489 H         1 FAD1552     0.0000 
     57 H           4.6206   16.2158  -17.7914 H         1 FAD1552     0.0000 
     58 H           4.4637   16.6868  -15.5655 H         1 FAD1552     0.0000 
     59 H           3.4656   19.3807  -16.2653 H         1 FAD1552     0.0000 
     60 H           2.7870   16.4741  -13.8565 H         1 FAD1552     0.0000 
     61 H           1.8030   19.0378   -9.9003 H         1 FAD1552     0.0000 
     62 H           1.8030   20.7931   -9.5205 H         1 FAD1552     0.0000 
     63 H           2.7263   22.8642  -13.4086 H         1 FAD1552     0.0000 
     64 H           1.2457    4.7324  -27.2671 H         1 FAD1552     0.0000 
     65 H           7.9163    5.5178  -25.3956 H         1 FAD1552     0.0000 
     66 H           5.7752    7.4261  -21.3840 H         1 FAD1552     0.0000 
     67 H           3.7034    6.7167  -21.0952 H         1 FAD1552     0.0000 
     68 H           2.2119    6.7521  -22.0514 H         1 FAD1552     0.0000 
     69 H           4.0088    9.0339  -22.5132 H         1 FAD1552     0.0000 
     70 H           1.1302    8.8085  -21.6925 H         1 FAD1552     0.0000 
     71 H           2.1002   11.0697  -23.3411 H         1 FAD1552     0.0000 
     72 H           0.2314   10.8670  -21.0023 H         1 FAD1552     0.0000 
     73 H          -0.2501   10.7845  -22.7056 H         1 FAD1552     0.0000 
     74 H          10.2285    6.7072  -22.8389 H         1 FAD1552     0.0000 
     75 H          10.0923    5.3935  -23.7565 H         1 FAD1552     0.0000 
     76 H          10.1013    6.8512  -24.4355 H         1 FAD1552     0.0000 
     77 H           8.9942    6.7795  -20.7590 H         1 FAD1552     0.0000 
     78 H           9.0261    8.2373  -21.4371 H         1 FAD1552     0.0000 
     79 H           7.8384    7.8468  -20.4257 H         1 FAD1552     0.0000 
     80 H           4.3712   19.0052  -18.2726 H         1 FAD1552     0.0000 
     81 H           5.5277   19.1504  -16.5565 H         1 FAD1552     0.0000 
     82 H           3.1747    9.8829  -20.4583 H         1 FAD1552     0.0000 
     83 H           1.3205    7.7471  -23.5651 H         1 FAD1552     0.0000 
     84 H           3.1779   12.0038  -21.7964 H         1 FAD1552     0.0000 
@<TRIPOS>BOND
     1    2    1 ar   
     2    3    1 ar   
     3    4    1 1    
     4   53    1 1    
     5    5    4 1    
     6    6    5 1    
     7   54    5 1    
     8   55    5 1    
     9    7    6 1    
    10    8    6 1    
    11   56    6 1    
    12   12    7 1    
    13    9    8 1    
    14   10    8 1    
    15   57    8 1    
    16   80    9 1    
    17   11   10 1    
    18   12   10 1    
    19   58   10 1    
    20   81   11 1    
    21   13   12 1    
    22   59   12 1    
    23   14   13 1    
    24   22   13 1    
    25   15   14 2    
    26   60   14 1    
    27   16   15 1    
    28   17   16 ar   
    29   22   16 ar   
    30   18   17 1    
    31   19   17 ar   
    32   61   18 1    
    33   62   18 1    
    34   20   19 ar   
    35   21   20 ar   
    36   63   20 1    
    37   22   21 ar   
    38   24   23 1    
    39   40   23 2    
    40   25   24 2    
    41   26   24 am   
    42   27   26 am   
    43   64   26 1    
    44   28   27 2    
    45   29   27 1    
    46   30   29 2    
    47   40   29 1    
    48   31   30 1    
    49   32   31 ar   
    50   38   31 ar   
    51   33   32 ar   
    52   65   32 1    
    53   34   33 1    
    54   35   33 ar   
    55   74   34 1    
    56   75   34 1    
    57   76   34 1    
    58   36   35 1    
    59   37   35 ar   
    60   77   36 1    
    61   78   36 1    
    62   79   36 1    
    63   38   37 ar   
    64   66   37 1    
    65   39   38 1    
    66   40   39 1    
    67   41   39 1    
    68   42   41 1    
    69   67   41 1    
    70   68   41 1    
    71   43   42 1    
    72   44   42 1    
    73   69   42 1    
    74   82   43 1    
    75   45   44 1    
    76   46   44 1    
    77   70   44 1    
    78   83   45 1    
    79   47   46 1    
    80   48   46 1    
    81   71   46 1    
    82   84   47 1    
    83   49   48 1    
    84   72   48 1    
    85   73   48 1    
    86   50   49 1    
    87   51   50 ar   
    88   52   50 ar   
    89   53   50 1    
@<TRIPOS>SUBSTRUCTURE
     1 FAD1552     1 GROUP   
@<TRIPOS>SET

