#    Name: 4l7b_1VV_1_INTS_M
#    Modification time : Mon Apr  7 23:56:50 2014

@<TRIPOS>MOLECULE
4l7b_1VV_1_INTS_M
   44     0     9     0     0
SMALL
NO_CHARGES


@<TRIPOS>ATOM
      1 CA         -6.6575    0.2990  -21.2795 C.3       3 GLC5        0.0000 
      2 CA         -6.1430    0.4420  -23.3090 C.3       9 GLL5        0.0000 
      3 CA         -7.1720    0.1560  -19.2500 C.3       6 GLP5        0.0000 
      4 CA         -3.1250   -2.5540  -26.8315 C.3       3 GLC5        0.0000 
      5 CA         -2.6650   -0.7730  -26.4780 C.3       9 GLL5        0.0000 
      6 CA         -3.5850   -4.3350  -27.1850 C.3       6 GLP5        0.0000 
      7 CA         -2.4895   -2.1115  -28.6175 C.3       3 GLC5        0.0000 
      8 CA         -2.2800   -0.4910  -27.9110 C.3       9 GLL5        0.0000 
      9 CA         -2.6990   -3.7320  -29.3240 C.3       6 GLP5        0.0000 
     10 N          -6.6135    0.5490  -29.5110 N.am      1 SEC2        0.0000 
     11 N          -6.1510    0.9690  -28.3180 N.am      7 SEL2        0.0000 
     12 N          -7.0760    0.1290  -30.7040 N.am      4 SEP2        0.0000 
     13 NZ         -0.2755    4.5685  -27.5525 N.4       2 LYC4        0.0000 
     14 NZ         -0.2310    3.0350  -28.5080 N.4       8 LYL4        0.0000 
     15 NZ         -0.3200    6.1020  -26.5970 N.4       5 LYP4        0.0000 
     16 NZ          0.4040    4.2990  -26.6885 N.4       2 LYC4        0.0000 
     17 NZ          1.1280    2.4960  -26.7800 N.4       8 LYL4        0.0000 
     18 N           2.1965    2.9015  -28.0350 N.am      1 SEC2        0.0000 
     19 N           1.1280    2.4960  -26.7800 N.am      7 SEL2        0.0000 
     20 N           3.2650    3.3070  -29.2900 N.am      4 SEP2        0.0000 
     21 CA         -1.3710    6.5713  -30.4980 C.3       3 GLC5        0.0000 
     22 CA         -2.9530    6.8750  -31.3880 C.3       9 GLL5        0.0000 
     23 CA          0.4760    6.0520  -30.2040 C.3       6 GLP5        0.0000 
     24 CA         -2.2090    8.8137  -31.0245 C.3       3 GLC5        0.0000 
     25 CA         -1.2000   10.5370  -31.2570 C.3       6 GLP5        0.0000 
     26 CA         -4.3390    8.5862  -31.0820 C.3       3 GLC5        0.0000 
     27 CA         -5.4600   10.0820  -31.3720 C.3       6 GLP5        0.0000 
     28 CA         -4.8300    5.9688  -31.1495 C.3       3 GLC5        0.0000 
     29 CA         -3.4830    7.3060  -30.1960 C.3       9 GLL5        0.0000 
     30 CA         -6.4420    4.8470  -31.5070 C.3       6 GLP5        0.0000 
     31 CA         -4.6448    4.9640  -31.2925 C.3       3 GLC5        0.0000 
     32 CA         -2.7080    5.5360  -31.5760 C.3       9 GLL5        0.0000 
     33 CA         -1.5833    5.8890  -29.7473 C.3       3 GLC5        0.0000 
     34 CA         -3.5210    5.0540  -29.3790 C.3       9 GLL5        0.0000 
     35 CA         -5.0423    5.2865  -30.3987 C.3       3 GLC5        0.0000 
     36 CA         -1.4609    3.6347  -32.3230 C.3       3 GLC5        0.0000 
     37 CA         -0.1510    3.1310  -33.6810 C.3       6 GLP5        0.0000 
     38 CA         -1.1474    5.0953  -30.5845 C.3       3 GLC5        0.0000 
     39 CA         -2.6940    3.1960  -30.8520 C.3       9 GLL5        0.0000 
     40 CA         -4.7730    3.8130  -30.9445 C.3       3 GLC5        0.0000 
     41 CA         -3.8745    2.5165  -32.2315 C.3       3 GLC5        0.0000 
     42 CA         -4.6450    2.2540  -34.0810 C.3       6 GLP5        0.0000 
     43 CA         -5.5217    4.4285  -29.8392 C.3       3 GLC5        0.0000 
     44 CA         -3.8720    4.1840  -28.2330 C.3       9 GLL5        0.0000 
@<TRIPOS>BOND
@<TRIPOS>SUBSTRUCTURE
     1 SEC2       10 GROUP        1 X    SEC  0     ROOT SEC X 2
     2 LYC4       13 GROUP        1 X    LYC  0     **** LYC X 4
     3 GLC5        1 GROUP        1 X    GLC  0     **** GLC X 6
     4 SEP2       12 GROUP        1 Y    SEP  0     ROOT SEP Y 9
     5 LYP4       15 GROUP        1 Y    LYP  0     **** LYP Y 11
     6 GLP5        3 GROUP        1 Y    GLP  0     **** GLP Y 13
     7 SEL2       11 GROUP        1 Z    SEL  0     ROOT SEL Z 16
     8 LYL4       14 GROUP        1 Z    LYL  0     **** LYL Z 18
     9 GLL5        2 GROUP        1 Z    GLL  0     **** GLL Z 20
@<TRIPOS>SET

