#    Name: 4l7b_1VV_1_ligand
#    Modification time : Mon Apr  7 23:56:50 2014

@<TRIPOS>MOLECULE
4l7b_1VV_1_ligand
   58    62     1     0     0
SMALL
NO_CHARGES


@<TRIPOS>ATOM
      1 C16        -6.4000   -0.5420  -24.2500 C.ar      1 1VV701      0.0000 
      2 C17        -6.1430    0.4420  -23.3090 C.ar      1 1VV701      0.0000 
      3 C3         -2.9530    6.8750  -31.3880 C.ar      1 1VV701      0.0000 
      4 C4         -3.4830    7.3060  -30.1960 C.ar      1 1VV701      0.0000 
      5 C15        -6.3710   -0.2630  -25.6010 C.ar      1 1VV701      0.0000 
      6 C18        -5.8490    1.7380  -23.6850 C.ar      1 1VV701      0.0000 
      7 C2         -2.7080    5.5360  -31.5760 C.ar      1 1VV701      0.0000 
      8 C21        -3.7640    6.3980  -29.2020 C.ar      1 1VV701      0.0000 
      9 C19        -6.0780    1.0280  -25.9550 C.ar      1 1VV701      0.0000 
     10 C13        -5.8250    1.9950  -25.0320 C.ar      1 1VV701      0.0000 
     11 C1         -2.9870    4.6260  -30.5800 C.ar      1 1VV701      0.0000 
     12 C5         -3.5210    5.0540  -29.3790 C.ar      1 1VV701      0.0000 
     13 C12        -5.9790    1.5970  -27.2850 C.2       1 1VV701      0.0000 
     14 C14        -5.5490    3.2450  -25.7180 C.2       1 1VV701      0.0000 
     15 C23        -2.6820    2.1050  -27.5840 C.2       1 1VV701      0.0000 
     16 C31         0.0910    2.2570  -27.6220 C.2       1 1VV701      0.0000 
     17 C9         -2.6940    3.1960  -30.8520 C.3       1 1VV701      0.0000 
     18 C27        -2.6650   -0.7730  -26.4780 C.3       1 1VV701      0.0000 
     19 C28        -1.4490   -0.6050  -25.6090 C.3       1 1VV701      0.0000 
     20 C26        -2.2800   -0.4910  -27.9110 C.3       1 1VV701      0.0000 
     21 C30        -0.8250    0.7470  -25.8520 C.3       1 1VV701      0.0000 
     22 C8         -3.5140    2.3620  -29.9120 C.3       1 1VV701      0.0000 
     23 C6         -3.8720    4.1840  -28.2330 C.3       1 1VV701      0.0000 
     24 C25        -1.8440    0.9830  -28.1160 C.3       1 1VV701      0.0000 
     25 C29        -0.5170    0.9470  -27.3030 C.3       1 1VV701      0.0000 
     26 C10        -5.3310    3.8360  -28.1100 C.3       1 1VV701      0.0000 
     27 N11        -5.6500    2.9160  -27.0540 N.am      1 1VV701      0.0000 
     28 N7         -3.3120    2.8700  -28.5690 N.am      1 1VV701      0.0000 
     29 O22        -6.1510    0.9690  -28.3180 O.2       1 1VV701      0.0000 
     30 O20        -5.2840    4.2990  -25.1580 O.2       1 1VV701      0.0000 
     31 O24        -2.8220    2.3330  -26.3920 O.2       1 1VV701      0.0000 
     32 O32        -0.2310    3.0350  -28.5080 O.co2     1 1VV701      0.0000 
     33 O33         1.1280    2.4960  -26.7800 O.co2     1 1VV701      0.0000 
     34 H          -6.6182   -1.5062  -23.9302 H         1 1VV701      0.0000 
     35 H          -6.1726    0.1974  -22.2981 H         1 1VV701      0.0000 
     36 H          -2.7406    7.5513  -32.1362 H         1 1VV701      0.0000 
     37 H          -3.6705    8.3107  -30.0459 H         1 1VV701      0.0000 
     38 H          -6.5570   -0.9774  -26.2906 H         1 1VV701      0.0000 
     39 H          -5.6621    2.4556  -23.0003 H         1 1VV701      0.0000 
     40 H          -2.3096    5.2060  -32.4749 H         1 1VV701      0.0000 
     41 H          -4.1663    6.7306  -28.3023 H         1 1VV701      0.0000 
     42 H          -1.6397    2.9934  -30.6902 H         1 1VV701      0.0000 
     43 H          -2.9551    2.9495  -31.8767 H         1 1VV701      0.0000 
     44 H          -3.4370   -0.0776  -26.1669 H         1 1VV701      0.0000 
     45 H          -3.0368   -1.7886  -26.3961 H         1 1VV701      0.0000 
     46 H          -0.7240   -1.3855  -25.8393 H         1 1VV701      0.0000 
     47 H          -1.7341   -0.6895  -24.5605 H         1 1VV701      0.0000 
     48 H          -3.1275   -0.6936  -28.5712 H         1 1VV701      0.0000 
     49 H          -1.4512   -1.1390  -28.2085 H         1 1VV701      0.0000 
     50 H           0.0964    0.8291  -25.2648 H         1 1VV701      0.0000 
     51 H          -1.5134    1.5279  -25.5102 H         1 1VV701      0.0000 
     52 H          -3.1935    1.3240  -29.9889 H         1 1VV701      0.0000 
     53 H          -4.5618    2.4298  -30.2014 H         1 1VV701      0.0000 
     54 H          -3.4843    4.5095  -27.3307 H         1 1VV701      0.0000 
     55 H          -1.5500    1.1150  -29.1288 H         1 1VV701      0.0000 
     56 H           0.0667    0.1574  -27.7005 H         1 1VV701      0.0000 
     57 H          -5.6715    3.4328  -29.0979 H         1 1VV701      0.0000 
     58 H          -5.9016    4.7914  -27.9838 H         1 1VV701      0.0000 
@<TRIPOS>BOND
     1    2    1 ar   
     2    5    1 ar   
     3   34    1 1    
     4    6    2 ar   
     5   35    2 1    
     6    4    3 ar   
     7    7    3 ar   
     8   36    3 1    
     9    8    4 ar   
    10   37    4 1    
    11    9    5 ar   
    12   38    5 1    
    13   10    6 ar   
    14   39    6 1    
    15   11    7 ar   
    16   40    7 1    
    17   12    8 ar   
    18   41    8 1    
    19   10    9 ar   
    20   13    9 1    
    21   14   10 1    
    22   12   11 ar   
    23   17   11 1    
    24   23   12 1    
    25   27   13 am   
    26   29   13 2    
    27   27   14 am   
    28   30   14 2    
    29   24   15 1    
    30   28   15 am   
    31   31   15 2    
    32   25   16 1    
    33   32   16 ar   
    34   33   16 ar   
    35   22   17 1    
    36   42   17 1    
    37   43   17 1    
    38   19   18 1    
    39   20   18 1    
    40   44   18 1    
    41   45   18 1    
    42   21   19 1    
    43   46   19 1    
    44   47   19 1    
    45   24   20 1    
    46   48   20 1    
    47   49   20 1    
    48   25   21 1    
    49   50   21 1    
    50   51   21 1    
    51   28   22 1    
    52   52   22 1    
    53   53   22 1    
    54   26   23 1    
    55   28   23 1    
    56   54   23 1    
    57   25   24 1    
    58   55   24 1    
    59   56   25 1    
    60   27   26 1    
    61   57   26 1    
    62   58   26 1    
@<TRIPOS>SUBSTRUCTURE
     1 1VV701      1 GROUP   
@<TRIPOS>SET

