#    Name: 1c80_GTP_2_INTS_M
#    Modification time : Mon Mar 24 20:26:01 2014

@<TRIPOS>MOLECULE
1c80_GTP_2_INTS_M
   37     0     9     0     0
SMALL
NO_CHARGES


@<TRIPOS>ATOM
      1 N          -8.1545   17.1310   39.2205 N.am      1 SEC2        0.0000 
      2 N          -9.7940   17.0580   38.8150 N.am      7 SEL2        0.0000 
      3 N          -6.5150   17.2040   39.6260 N.am      4 SEP2        0.0000 
      4 N          -9.3700   16.3475   37.2835 N.am      1 SEC2        0.0000 
      5 N          -8.9460   15.6370   35.7520 N.am      4 SEP2        0.0000 
      6 N          -7.1150   14.0955   40.1105 N.am      1 SEC2        0.0000 
      7 N          -7.8120   14.8750   41.2620 N.am      7 SEL2        0.0000 
      8 N          -6.4180   13.3160   38.9590 N.am      4 SEP2        0.0000 
      9 NZ         -7.2255   11.6080   42.9555 N.4       2 LYC4        0.0000 
     10 NZ         -7.2220   12.5480   41.8610 N.4       8 LYL4        0.0000 
     11 NZ         -7.2290   10.6680   44.0500 N.4       5 LYP4        0.0000 
     12 NZ         -6.2275   12.6510   40.3145 N.4       2 LYC4        0.0000 
     13 NZ         -5.2330   12.7540   38.7680 N.4       5 LYP4        0.0000 
     14 N          -7.2255   11.6080   42.9555 N.am      1 SEC2        0.0000 
     15 N          -7.2220   12.5480   41.8610 N.am      7 SEL2        0.0000 
     16 N          -7.2290   10.6680   44.0500 N.am      4 SEP2        0.0000 
     17 N          -8.9375   13.3255   44.8190 N.am      1 SEC2        0.0000 
     18 N          -8.4370   13.9960   43.5470 N.am      7 SEL2        0.0000 
     19 N          -9.4380   12.6550   46.0910 N.am      4 SEP2        0.0000 
     20 CA         -9.2250   11.9935   43.5355 C.3       3 GLC5        0.0000 
     21 CA         -9.7940   13.6520   43.3070 C.3       9 GLL5        0.0000 
     22 CA         -8.6560   10.3350   43.7640 C.3       6 GLP5        0.0000 
     23 CA        -11.7620   12.7775   45.1500 C.3       3 GLC5        0.0000 
     24 CA        -10.7600   14.4410   44.1290 C.3       9 GLL5        0.0000 
     25 CA        -12.7640   11.1140   46.1710 C.3       6 GLP5        0.0000 
     26 CA        -13.0930   15.3060   44.5425 C.3       3 GLC5        0.0000 
     27 CA        -11.2200   15.6430   43.3490 C.3       9 GLL5        0.0000 
     28 CA        -14.9660   14.9690   45.7360 C.3       6 GLP5        0.0000 
     29 CA        -10.1660   18.6680   44.2140 C.3       3 GLC5        0.0000 
     30 CA        -10.2300   16.7450   43.8120 C.3       9 GLL5        0.0000 
     31 CA        -10.1020   20.5910   44.6160 C.3       6 GLP5        0.0000 
     32 CA        -11.5380   17.9935   45.1570 C.3       3 GLC5        0.0000 
     33 CA        -10.1640   16.4530   45.3080 C.3       9 GLL5        0.0000 
     34 CA        -12.9120   19.5340   45.0060 C.3       6 GLP5        0.0000 
     35 CA         -8.0180   17.7312   49.0322 C.3       3 GLC5        0.0000 
     36 CA         -7.4280   17.1830   47.5690 C.3       9 GLL5        0.0000 
     37 CA         -8.0480   18.6180   50.6920 C.3       6 GLP5        0.0000 
@<TRIPOS>BOND
@<TRIPOS>SUBSTRUCTURE
     1 SEC2        1 GROUP        1 X    SEC  0     ROOT SEC X 2
     2 LYC4        9 GROUP        1 X    LYC  0     **** LYC X 4
     3 GLC5       20 GROUP        1 X    GLC  0     **** GLC X 6
     4 SEP2        3 GROUP        1 Y    SEP  0     ROOT SEP Y 9
     5 LYP4       11 GROUP        1 Y    LYP  0     **** LYP Y 11
     6 GLP5       22 GROUP        1 Y    GLP  0     **** GLP Y 13
     7 SEL2        2 GROUP        1 Z    SEL  0     ROOT SEL Z 16
     8 LYL4       10 GROUP        1 Z    LYL  0     **** LYL Z 18
     9 GLL5       21 GROUP        1 Z    GLL  0     **** GLL Z 20
@<TRIPOS>SET

