#    Name: 1c80_GTP_2_ligand
#    Modification time : Mon Mar 24 20:26:01 2014

@<TRIPOS>MOLECULE
1c80_GTP_2_ligand
   44    46     1     0     0
SMALL
NO_CHARGES


@<TRIPOS>ATOM
      1 PG        -10.5410   17.2680   40.0580 P.3       1 GTP355      0.0000 
      2 O1G        -9.7940   17.0580   38.8150 O.co2     1 GTP355      0.0000 
      3 O2G       -12.0410   17.2190   40.0500 O.co2     1 GTP355      0.0000 
      4 O3G        -9.8550   18.1210   41.0340 O.co2     1 GTP355      0.0000 
      5 O3B       -10.0660   15.9830   40.7310 O.3       1 GTP355      0.0000 
      6 PB         -9.0700   14.7850   40.2600 P.3       1 GTP355      0.0000 
      7 O1B        -9.7570   13.5450   40.5920 O.co2     1 GTP355      0.0000 
      8 O2B        -8.6270   14.9300   38.8080 O.co2     1 GTP355      0.0000 
      9 O3A        -7.8120   14.8750   41.2620 O.3       1 GTP355      0.0000 
     10 PA         -7.2490   13.8950   42.4530 P.3       1 GTP355      0.0000 
     11 O1A        -7.2220   12.5480   41.8610 O.co2     1 GTP355      0.0000 
     12 O2A        -5.9770   14.4510   43.0330 O.co2     1 GTP355      0.0000 
     13 O5'        -8.4370   13.9960   43.5470 O.3       1 GTP355      0.0000 
     14 C5'        -9.7940   13.6520   43.3070 C.3       1 GTP355      0.0000 
     15 C4'       -10.7600   14.4410   44.1290 C.3       1 GTP355      0.0000 
     16 O4'       -10.1110   14.9940   45.3190 O.3       1 GTP355      0.0000 
     17 C3'       -11.2200   15.6430   43.3490 C.3       1 GTP355      0.0000 
     18 O3'       -12.5690   16.0060   43.6720 O.3       1 GTP355      0.0000 
     19 C2'       -10.2300   16.7450   43.8120 C.3       1 GTP355      0.0000 
     20 O2'       -10.6560   18.0510   43.5670 O.3       1 GTP355      0.0000 
     21 C1'       -10.1640   16.4530   45.3080 C.3       1 GTP355      0.0000 
     22 N9         -8.9540   16.9780   46.0090 N.pl3     1 GTP355      0.0000 
     23 C8         -8.0350   17.9810   45.6940 C.2       1 GTP355      0.0000 
     24 N7         -7.1000   18.1490   46.5910 N.2       1 GTP355      0.0000 
     25 C5         -7.4280   17.1830   47.5690 C.2       1 GTP355      0.0000 
     26 C6         -6.8110   16.8170   48.8510 C.2       1 GTP355      0.0000 
     27 O6         -5.8240   17.2770   49.4320 O.2       1 GTP355      0.0000 
     28 N1         -7.5120   15.7690   49.4810 N.am      1 GTP355      0.0000 
     29 C2         -8.6290   15.1660   48.9640 C.2       1 GTP355      0.0000 
     30 N2         -9.2040   14.1810   49.6100 N.pl3     1 GTP355      0.0000 
     31 N3         -9.1820   15.5060   47.8230 N.2       1 GTP355      0.0000 
     32 C4         -8.5480   16.5060   47.1760 C.2       1 GTP355      0.0000 
     33 H          -9.9727   12.5693   43.5090 H         1 GTP355      0.0000 
     34 H         -10.0577   13.7953   42.2323 H         1 GTP355      0.0000 
     35 H         -11.6014   13.8586   44.3950 H         1 GTP355      0.0000 
     36 H         -11.0504   15.4765   42.3202 H         1 GTP355      0.0000 
     37 H          -9.2735   16.4912   43.4057 H         1 GTP355      0.0000 
     38 H         -11.0623   16.7752   45.7639 H         1 GTP355      0.0000 
     39 H          -8.1249   18.5013   44.8416 H         1 GTP355      0.0000 
     40 H          -7.1387   15.4367   50.4148 H         1 GTP355      0.0000 
     41 H          -8.7691   13.9034   50.4666 H         1 GTP355      0.0000 
     42 H         -10.0249   13.7973   49.1871 H         1 GTP355      0.0000 
     43 H         -12.5389   16.9916   43.8383 H         1 GTP355      0.0000 
     44 H         -10.4268   18.2224   42.6088 H         1 GTP355      0.0000 
@<TRIPOS>BOND
     1    2    1 ar   
     2    3    1 ar   
     3    4    1 ar   
     4    5    1 1    
     5    6    5 1    
     6    7    6 ar   
     7    8    6 ar   
     8    9    6 1    
     9   10    9 1    
    10   11   10 ar   
    11   12   10 ar   
    12   13   10 1    
    13   14   13 1    
    14   15   14 1    
    15   33   14 1    
    16   34   14 1    
    17   16   15 1    
    18   17   15 1    
    19   35   15 1    
    20   21   16 1    
    21   18   17 1    
    22   19   17 1    
    23   36   17 1    
    24   43   18 1    
    25   20   19 1    
    26   21   19 1    
    27   37   19 1    
    28   44   20 1    
    29   22   21 1    
    30   38   21 1    
    31   23   22 1    
    32   32   22 1    
    33   24   23 2    
    34   39   23 1    
    35   25   24 1    
    36   26   25 1    
    37   32   25 2    
    38   27   26 2    
    39   28   26 am   
    40   29   28 1    
    41   40   28 1    
    42   30   29 1    
    43   31   29 2    
    44   41   30 1    
    45   42   30 1    
    46   32   31 1    
@<TRIPOS>SUBSTRUCTURE
     1 GTP355      1 GROUP   
@<TRIPOS>SET

