#    Name: 4dvq_1CA_10_INTS_M
#    Modification time : Tue Mar 25 10:15:29 2014

@<TRIPOS>MOLECULE
4dvq_1CA_10_INTS_M
   45     0     6     0     0
SMALL
NO_CHARGES


@<TRIPOS>ATOM
      1 CA         13.8035  -21.0355   61.5485 C.3       2 GLC5        0.0000 
      2 CA         12.3330  -19.8090   61.6090 C.3       6 GLL5        0.0000 
      3 CA         15.2740  -22.2620   61.4880 C.3       4 GLP5        0.0000 
      4 CA         14.0830  -20.4475   62.7970 C.3       2 GLC5        0.0000 
      5 CA         12.8860  -18.8740   62.6360 C.3       6 GLL5        0.0000 
      6 CA         15.2800  -22.0210   62.9580 C.3       4 GLP5        0.0000 
      7 CA         13.7745  -18.2690   64.3145 C.3       2 GLC5        0.0000 
      8 CA         14.6630  -17.6640   65.9930 C.3       4 GLP5        0.0000 
      9 CA         14.5250  -17.4675   60.0350 C.3       2 GLC5        0.0000 
     10 CA         12.8260  -17.1360   60.7420 C.3       6 GLL5        0.0000 
     11 CA         16.2240  -17.7990   59.3280 C.3       4 GLP5        0.0000 
     12 CA         11.4775  -15.8950   57.3180 C.3       2 GLC5        0.0000 
     13 CA         11.3620  -17.2850   58.7800 C.3       6 GLL5        0.0000 
     14 CA         11.5930  -14.5050   55.8560 C.3       4 GLP5        0.0000 
     15 CA         12.0530  -16.7885   56.5450 C.3       2 GLC5        0.0000 
     16 CA         11.4530  -18.2810   57.6360 C.3       6 GLL5        0.0000 
     17 CA         12.6530  -15.2960   55.4540 C.3       4 GLP5        0.0000 
     18 CA         12.8955  -19.0125   56.3860 C.3       2 GLC5        0.0000 
     19 CA         14.3380  -19.7440   55.1360 C.3       4 GLP5        0.0000 
     20 CA         10.2955  -17.7895   55.9055 C.3       2 GLC5        0.0000 
     21 CA          9.1380  -17.2980   54.1750 C.3       4 GLP5        0.0000 
     22 CA          9.9235  -18.8245   54.8755 C.3       2 GLC5        0.0000 
     23 CA         10.7090  -20.3510   55.5760 C.3       6 GLL5        0.0000 
     24 CA          8.1945  -22.6915   55.5800 C.3       2 GLC5        0.0000 
     25 CA          9.1280  -22.0640   57.3210 C.3       6 GLL5        0.0000 
     26 CA          7.2610  -23.3190   53.8390 C.3       4 GLP5        0.0000 
     27 CA          8.6735  -18.3325   59.5160 C.3       2 GLC5        0.0000 
     28 CA         10.0010  -19.1570   61.0730 C.3       6 GLL5        0.0000 
     29 CA          7.3460  -17.5080   57.9590 C.3       4 GLP5        0.0000 
     30 O          10.5690  -27.0360   54.8995 O.2       1 ALC1        0.0000 
     31 O          10.3740  -26.4970   56.1160 O.2       5 ALL1        0.0000 
     32 O          10.7640  -27.5750   53.6830 O.2       3 ALP1        0.0000 
     33 CA         10.9185  -16.4015   60.6835 C.3       2 GLC5        0.0000 
     34 CA         11.9140  -17.8540   60.0740 C.3       6 GLL5        0.0000 
     35 CA          9.9710  -15.4130   61.7730 C.3       4 GLP5        0.0000 
     36 CA         13.5482  -17.6406   58.3593 C.3       2 GLC5        0.0000 
     37 CA         15.5510  -17.3560   58.1870 C.3       4 GLP5        0.0000 
     38 CA          9.2501  -18.1080   58.0453 C.3       2 GLC5        0.0000 
     39 CA         10.3438  -17.2983   61.2900 C.3       2 GLC5        0.0000 
     40 CA         12.8697  -22.8443   59.3552 C.3       2 GLC5        0.0000 
     41 CA         11.0020  -21.5640   59.6740 C.3       6 GLL5        0.0000 
     42 CA         14.6280  -23.6190   59.5980 C.3       4 GLP5        0.0000 
     43 CA          9.1157  -22.7732   54.6358 C.3       2 GLC5        0.0000 
     44 CA         10.7990  -21.7130   54.8840 C.3       6 GLL5        0.0000 
     45 CA         12.6510  -20.5554   55.4952 C.3       2 GLC5        0.0000 
@<TRIPOS>BOND
@<TRIPOS>SUBSTRUCTURE
     1 ALC1       30 GROUP        1 X    ALC  0     ROOT ALC X 1
     2 GLC5        1 GROUP        1 X    GLC  0     **** GLC X 6
     3 ALP1       32 GROUP        1 Y    ALP  0     ROOT ALP Y 8
     4 GLP5        3 GROUP        1 Y    GLP  0     **** GLP Y 13
     5 ALL1       31 GROUP        1 Z    ALL  0     ROOT ALL Z 15
     6 GLL5        2 GROUP        1 Z    GLL  0     **** GLL Z 20
@<TRIPOS>SET

