#    Name: 4dvq_1CA_10_ligand
#    Modification time : Tue Mar 25 10:15:29 2014

@<TRIPOS>MOLECULE
4dvq_1CA_10_ligand
   54    57     1     0     0
SMALL
NO_CHARGES


@<TRIPOS>ATOM
      1 C1         12.3330  -19.8090   61.6090 C.3       1 1CA602      0.0000 
      2 C2         12.8860  -18.8740   62.6360 C.3       1 1CA602      0.0000 
      3 C3         13.4130  -17.6340   61.9980 C.2       1 1CA602      0.0000 
      4 C4         12.8260  -17.1360   60.7420 C.2       1 1CA602      0.0000 
      5 C5         11.9140  -17.8540   60.0740 C.2       1 1CA602      0.0000 
      6 C6         11.3620  -17.2850   58.7800 C.3       1 1CA602      0.0000 
      7 C7         11.4530  -18.2810   57.6360 C.3       1 1CA602      0.0000 
      8 C8         10.9010  -19.6330   58.0550 C.3       1 1CA602      0.0000 
      9 C9         11.5360  -20.1570   59.3390 C.3       1 1CA602      0.0000 
     10 C10        11.4320  -19.2100   60.5410 C.3       1 1CA602      0.0000 
     11 C11        11.0020  -21.5640   59.6740 C.3       1 1CA602      0.0000 
     12 C12        11.2210  -22.5750   58.5510 C.3       1 1CA602      0.0000 
     13 C13        10.6580  -22.0520   57.2460 C.3       1 1CA602      0.0000 
     14 C14        11.2060  -20.6610   56.9770 C.3       1 1CA602      0.0000 
     15 C15        10.7090  -20.3510   55.5760 C.3       1 1CA602      0.0000 
     16 C16        10.7990  -21.7130   54.8840 C.3       1 1CA602      0.0000 
     17 C17        11.1420  -22.7420   55.9810 C.3       1 1CA602      0.0000 
     18 C18         9.1280  -22.0640   57.3210 C.3       1 1CA602      0.0000 
     19 C19        10.0010  -19.1570   61.0730 C.3       1 1CA602      0.0000 
     20 C20        10.5780  -24.1230   55.7300 C.2       1 1CA602      0.0000 
     21 C21        11.0180  -25.2960   56.5820 C.3       1 1CA602      0.0000 
     22 O3         14.3420  -17.0710   62.5430 O.2       1 1CA602      0.0000 
     23 O20         9.7850  -24.3300   54.8190 O.2       1 1CA602      0.0000 
     24 O21        10.3740  -26.4970   56.1160 O.3       1 1CA602      0.0000 
     25 H          11.7668  -20.6276   62.1244 H         1 1CA602      0.0000 
     26 H          13.1801  -20.3344   61.0965 H         1 1CA602      0.0000 
     27 H          13.6905  -19.3738   63.1893 H         1 1CA602      0.0000 
     28 H          12.0987  -18.6127   63.3536 H         1 1CA602      0.0000 
     29 H          13.1605  -16.2141   60.4205 H         1 1CA602      0.0000 
     30 H          11.9214  -16.3808   58.5152 H         1 1CA602      0.0000 
     31 H          10.3139  -17.0017   58.9279 H         1 1CA602      0.0000 
     32 H          12.4954  -18.3934   57.3373 H         1 1CA602      0.0000 
     33 H          10.8836  -17.9064   56.7852 H         1 1CA602      0.0000 
     34 H           9.8427  -19.5791   58.1820 H         1 1CA602      0.0000 
     35 H          12.6295  -20.2938   59.1271 H         1 1CA602      0.0000 
     36 H           9.9282  -21.4899   59.8900 H         1 1CA602      0.0000 
     37 H          11.5002  -21.9211   60.5848 H         1 1CA602      0.0000 
     38 H          10.7280  -23.5106   58.8126 H         1 1CA602      0.0000 
     39 H          12.2890  -22.7590   58.4404 H         1 1CA602      0.0000 
     40 H          12.3089  -20.7851   56.8923 H         1 1CA602      0.0000 
     41 H          11.3597  -19.6676   55.1018 H         1 1CA602      0.0000 
     42 H           9.7019  -20.0347   55.6087 H         1 1CA602      0.0000 
     43 H          11.5819  -21.6984   54.1559 H         1 1CA602      0.0000 
     44 H           9.8543  -21.9615   54.4493 H         1 1CA602      0.0000 
     45 H          12.2340  -22.7760   56.0317 H         1 1CA602      0.0000 
     46 H          10.7554  -25.0821   57.6231 H         1 1CA602      0.0000 
     47 H          12.1078  -25.3781   56.5171 H         1 1CA602      0.0000 
     48 H           8.7711  -22.9847   57.4788 H         1 1CA602      0.0000 
     49 H           8.7880  -21.4866   58.0633 H         1 1CA602      0.0000 
     50 H           8.7121  -21.7294   56.4754 H         1 1CA602      0.0000 
     51 H           9.6563  -20.0671   61.3030 H         1 1CA602      0.0000 
     52 H           9.9329  -18.5999   61.9007 H         1 1CA602      0.0000 
     53 H           9.3701  -18.7653   60.4033 H         1 1CA602      0.0000 
     54 H          10.7462  -26.6517   55.2008 H         1 1CA602      0.0000 
@<TRIPOS>BOND
     1    2    1 1    
     2   10    1 1    
     3   25    1 1    
     4   26    1 1    
     5    3    2 1    
     6   27    2 1    
     7   28    2 1    
     8    4    3 1    
     9   22    3 2    
    10    5    4 2    
    11   29    4 1    
    12    6    5 1    
    13   10    5 1    
    14    7    6 1    
    15   30    6 1    
    16   31    6 1    
    17    8    7 1    
    18   32    7 1    
    19   33    7 1    
    20    9    8 1    
    21   14    8 1    
    22   34    8 1    
    23   10    9 1    
    24   11    9 1    
    25   35    9 1    
    26   19   10 1    
    27   12   11 1    
    28   36   11 1    
    29   37   11 1    
    30   13   12 1    
    31   38   12 1    
    32   39   12 1    
    33   14   13 1    
    34   17   13 1    
    35   18   13 1    
    36   15   14 1    
    37   40   14 1    
    38   16   15 1    
    39   41   15 1    
    40   42   15 1    
    41   17   16 1    
    42   43   16 1    
    43   44   16 1    
    44   20   17 1    
    45   45   17 1    
    46   48   18 1    
    47   49   18 1    
    48   50   18 1    
    49   51   19 1    
    50   52   19 1    
    51   53   19 1    
    52   21   20 1    
    53   23   20 2    
    54   24   21 1    
    55   46   21 1    
    56   47   21 1    
    57   54   24 1    
@<TRIPOS>SUBSTRUCTURE
     1 1CA602      1 GROUP   
@<TRIPOS>SET

