#    Name: 4f9c_0SX_1_INTS_M
#    Modification time : Mon Mar 24 19:07:00 2014

@<TRIPOS>MOLECULE
4f9c_0SX_1_INTS_M
   53     0     9     0     0
SMALL
NO_CHARGES


@<TRIPOS>ATOM
      1 CA         18.1505   23.0715   59.7010 C.3       3 GLC5        0.0000 
      2 CA         17.3090   21.3980   58.9660 C.3       9 GLL5        0.0000 
      3 CA         18.9920   24.7450   60.4360 C.3       6 GLP5        0.0000 
      4 CA         15.5550   23.0435   60.0015 C.3       3 GLC5        0.0000 
      5 CA         15.8710   21.0670   59.3380 C.3       9 GLL5        0.0000 
      6 CA         15.2390   25.0200   60.6650 C.3       6 GLP5        0.0000 
      7 OD1        15.3275   18.6455   57.4385 O.co2     2 ASC3        0.0000 
      8 OD1        16.3610   19.7920   57.3970 O.co2     8 ASL3        0.0000 
      9 OD1        14.2940   17.4990   57.4800 O.co2     5 ASP3        0.0000 
     10 CA         20.1990   17.4750   57.6240 C.3       3 GLC5        0.0000 
     11 CA         20.3520   18.2540   59.3390 C.3       9 GLL5        0.0000 
     12 CA         20.0460   16.6960   55.9090 C.3       6 GLP5        0.0000 
     13 CA         24.7850   20.8920   61.2865 C.3       3 GLC5        0.0000 
     14 CA         25.4130   19.3720   60.1230 C.3       9 GLL5        0.0000 
     15 CA         24.1570   22.4120   62.4500 C.3       6 GLP5        0.0000 
     16 CA         24.6790   18.7015   61.9515 C.3       3 GLC5        0.0000 
     17 CA         23.9450   18.0310   63.7800 C.3       6 GLP5        0.0000 
     18 CA         26.5320   20.0025   61.3040 C.3       3 GLC5        0.0000 
     19 CA         27.6510   20.6330   62.4850 C.3       6 GLP5        0.0000 
     20 CA         27.4360   18.6380   59.5735 C.3       3 GLC5        0.0000 
     21 CA         29.4590   17.9040   59.0240 C.3       6 GLP5        0.0000 
     22 CA         20.0380   16.0075   61.3345 C.3       3 GLC5        0.0000 
     23 CA         19.6770   17.1060   59.5870 C.3       9 GLL5        0.0000 
     24 CA         20.3990   14.9090   63.0820 C.3       6 GLP5        0.0000 
     25 CA         19.9915   16.2255   58.0935 C.3       3 GLC5        0.0000 
     26 CA         20.3060   15.3450   56.6000 C.3       6 GLP5        0.0000 
     27 N          16.4640   15.7530   59.9930 N.am      1 SEC2        0.0000 
     28 N          17.7340   15.9310   59.5330 N.am      7 SEL2        0.0000 
     29 N          15.1940   15.5750   60.4530 N.am      4 SEP2        0.0000 
     30 CA         13.9430   22.1810   58.7105 C.3       3 GLC5        0.0000 
     31 CA         12.3160   23.5350   58.7500 C.3       6 GLP5        0.0000 
     32 CA         17.8125   20.3656   60.3607 C.3       3 GLC5        0.0000 
     33 CA         18.5010   19.9570   62.1720 C.3       6 GLP5        0.0000 
     34 CA         19.2578   18.8185   60.8175 C.3       3 GLC5        0.0000 
     35 CA         21.5087   19.4015   61.3053 C.3       3 GLC5        0.0000 
     36 CA         21.6250   18.0610   59.7120 C.3       9 GLL5        0.0000 
     37 CA         20.8460   20.3480   62.9070 C.3       6 GLP5        0.0000 
     38 CA         23.4877   17.9720   58.2908 C.3       3 GLC5        0.0000 
     39 CA         24.8040   17.4890   56.8780 C.3       6 GLP5        0.0000 
     40 CA         23.6395   18.3170   61.8517 C.3       3 GLC5        0.0000 
     41 CA         22.7180   18.8490   59.6950 C.3       9 GLL5        0.0000 
     42 CA         24.7428   18.1768   58.5078 C.3       3 GLC5        0.0000 
     43 CA         23.9500   18.3570   60.1520 C.3       9 GLL5        0.0000 
     44 CA         24.2310   15.3200   59.7520 C.3       3 GLC5        0.0000 
     45 CA         24.0310   17.0460   60.6250 C.3       9 GLL5        0.0000 
     46 CA         25.0190   13.9770   58.8770 C.3       6 GLP5        0.0000 
     47 CA         24.1235   17.0760   58.7525 C.3       3 GLC5        0.0000 
     48 CA         22.8550   16.2800   60.6290 C.3       9 GLL5        0.0000 
     49 CA         21.3410   15.7238   61.7403 C.3       3 GLC5        0.0000 
     50 CA         22.0277   16.0038   58.5748 C.3       3 GLC5        0.0000 
     51 CA         21.7940   15.1530   56.8650 C.3       6 GLP5        0.0000 
     52 CA         23.2610   17.3805   62.0888 C.3       3 GLC5        0.0000 
     53 CA         21.7110   16.7970   60.1680 C.3       9 GLL5        0.0000 
@<TRIPOS>BOND
@<TRIPOS>SUBSTRUCTURE
     1 SEC2       27 GROUP        1 X    SEC  0     ROOT SEC X 2
     2 ASC3        7 GROUP        1 X    ASC  0     **** ASC X 3
     3 GLC5        1 GROUP        1 X    GLC  0     **** GLC X 6
     4 SEP2       29 GROUP        1 Y    SEP  0     ROOT SEP Y 9
     5 ASP3        9 GROUP        1 Y    ASP  0     **** ASP Y 10
     6 GLP5        3 GROUP        1 Y    GLP  0     **** GLP Y 13
     7 SEL2       28 GROUP        1 Z    SEL  0     ROOT SEL Z 16
     8 ASL3        8 GROUP        1 Z    ASL  0     **** ASL Z 17
     9 GLL5        2 GROUP        1 Z    GLL  0     **** GLL Z 20
@<TRIPOS>SET

