#    Name: 4f9c_0SX_1_ligand
#    Modification time : Mon Mar 24 19:07:00 2014

@<TRIPOS>MOLECULE
4f9c_0SX_1_ligand
   31    34     1     0     0
SMALL
NO_CHARGES


@<TRIPOS>ATOM
      1 CAH        17.3090   21.3980   58.9660 C.3       1 0SX601      0.0000 
      2 CAF        15.8710   21.0670   59.3380 C.3       1 0SX601      0.0000 
      3 CAG        15.2690   20.5870   58.0040 C.3       1 0SX601      0.0000 
      4 NAJ        16.3610   19.7920   57.3970 N.4       1 0SX601      0.0000 
      5 CAT        17.6580   20.3160   57.9470 C.3       1 0SX601      0.0000 
      6 CAN        18.3800   19.2590   58.5190 C.2       1 0SX601      0.0000 
      7 NAI        19.7030   19.3240   58.8060 N.2       1 0SX601      0.0000 
      8 CAR        20.3520   18.2540   59.3390 C.2       1 0SX601      0.0000 
      9 CAQ        21.6250   18.0610   59.7120 C.ar      1 0SX601      0.0000 
     10 CAE        22.7180   18.8490   59.6950 C.ar      1 0SX601      0.0000 
     11 CAM        23.9500   18.3570   60.1520 C.ar      1 0SX601      0.0000 
     12 CL         25.4130   19.3720   60.1230 Cl        1 0SX601      0.0000 
     13 CAC        24.0310   17.0460   60.6250 C.ar      1 0SX601      0.0000 
     14 CAD        22.8550   16.2800   60.6290 C.ar      1 0SX601      0.0000 
     15 CAP        21.7110   16.7970   60.1680 C.ar      1 0SX601      0.0000 
     16 OAL        20.4880   16.2650   60.0680 O.3       1 0SX601      0.0000 
     17 CAS        19.6770   17.1060   59.5870 C.2       1 0SX601      0.0000 
     18 CAO        18.3640   16.9830   59.3190 C.2       1 0SX601      0.0000 
     19 OAA        17.7340   15.9310   59.5330 O.2       1 0SX601      0.0000 
     20 NAK        17.6930   18.0700   58.7790 N.am      1 0SX601      0.0000 
     21 H          17.9330   21.3049   59.8154 H         1 0SX601      0.0000 
     22 H          17.3539   22.3503   58.5070 H         1 0SX601      0.0000 
     23 H          15.3669   21.9389   59.6578 H         1 0SX601      0.0000 
     24 H          15.8481   20.2765   60.0388 H         1 0SX601      0.0000 
     25 H          15.0346   21.4366   57.4087 H         1 0SX601      0.0000 
     26 H          14.4200   19.9805   58.2100 H         1 0SX601      0.0000 
     27 H          18.1919   20.7889   57.1350 H         1 0SX601      0.0000 
     28 H          22.6743   19.8234   59.3487 H         1 0SX601      0.0000 
     29 H          24.9033   16.6593   60.9534 H         1 0SX601      0.0000 
     30 H          22.9039   15.3112   60.9974 H         1 0SX601      0.0000 
     31 H          16.6886   18.0058   58.5679 H         1 0SX601      0.0000 
@<TRIPOS>BOND
     1    2    1 1    
     2    5    1 1    
     3   21    1 1    
     4   22    1 1    
     5    3    2 1    
     6   23    2 1    
     7   24    2 1    
     8    4    3 1    
     9   25    3 1    
    10   26    3 1    
    11    5    4 1    
    12    6    5 1    
    13   27    5 1    
    14    7    6 2    
    15   20    6 1    
    16    8    7 1    
    17    9    8 1    
    18   17    8 2    
    19   10    9 ar   
    20   15    9 ar   
    21   11   10 ar   
    22   28   10 1    
    23   12   11 1    
    24   13   11 ar   
    25   14   13 ar   
    26   29   13 1    
    27   15   14 ar   
    28   30   14 1    
    29   16   15 1    
    30   17   16 1    
    31   18   17 1    
    32   19   18 2    
    33   20   18 am   
    34   31   20 1    
@<TRIPOS>SUBSTRUCTURE
     1 0SX601      1 GROUP   
@<TRIPOS>SET

