#    Name: 2xy9_3ES_1_INTS_M
#    Modification time : Tue Mar 25 07:05:12 2014

@<TRIPOS>MOLECULE
2xy9_3ES_1_INTS_M
   92     0    15     0     0
SMALL
NO_CHARGES


@<TRIPOS>ATOM
      1 CA         17.7210    5.2160  -17.4935 C.3       5 GLC5        0.0000 
      2 CA         16.3360    4.5890  -16.5310 C.3      15 GLL5        0.0000 
      3 CA         19.1060    5.8430  -18.4560 C.3      10 GLP5        0.0000 
      4 CA         18.3865    0.9840  -15.8320 C.3       5 GLC5        0.0000 
      5 CA         16.7370    0.4420  -17.1050 C.3      15 GLL5        0.0000 
      6 CA         20.0360    1.5260  -14.5590 C.3      10 GLP5        0.0000 
      7 N          17.3330   -2.9545  -16.7665 N.am      2 SEC2        0.0000 
      8 N          16.3820   -2.2750  -17.6060 N.am     12 SEL2        0.0000 
      9 N          18.2840   -3.6340  -15.9270 N.am      7 SEP2        0.0000 
     10 O          13.8140   -0.7760  -19.7930 O.2       1 ALC1        0.0000 
     11 O          14.6880   -1.8110  -19.0440 O.2      11 ALL1        0.0000 
     12 O          12.9400    0.2590  -20.5420 O.2       6 ALP1        0.0000 
     13 CA         15.5930   -4.2600  -18.1060 C.3       5 GLC5        0.0000 
     14 CA         14.4160   -3.1870  -19.4720 C.3      15 GLL5        0.0000 
     15 CA         16.7700   -5.3330  -16.7400 C.3      10 GLP5        0.0000 
     16 CA         12.6100   -5.4680  -19.8885 C.3       5 GLC5        0.0000 
     17 CA         12.8980   -3.4150  -19.4940 C.3      15 GLL5        0.0000 
     18 CA         12.3220   -7.5210  -20.2830 C.3      10 GLP5        0.0000 
     19 CA         11.1230   -4.6950  -19.1425 C.3       5 GLC5        0.0000 
     20 CA          9.3480   -5.9750  -18.7910 C.3      10 GLP5        0.0000 
     21 CA         10.2475   -2.6415  -18.1915 C.3       5 GLC5        0.0000 
     22 CA         12.2780   -3.1620  -18.1070 C.3      15 GLL5        0.0000 
     23 CA          8.2170   -2.1210  -18.2760 C.3      10 GLP5        0.0000 
     24 CA         10.5710   -1.2100  -18.8300 C.3       5 GLC5        0.0000 
     25 CA         11.8590   -1.8800  -17.7440 C.3      15 GLL5        0.0000 
     26 CA          9.2830   -0.5400  -19.9160 C.3      10 GLP5        0.0000 
     27 Zn         16.8565   -2.2220  -21.4365 Zn        4 ZIC7        0.0000 
     28 Zn         16.7240   -3.0640  -20.8720 Zn       14 ZIL7        0.0000 
     29 Zn         16.9890   -1.3800  -22.0010 Zn        9 ZIP7        0.0000 
     30 N          17.5280   -4.1320  -20.8205 N.am      2 SEC2        0.0000 
     31 N          16.7240   -3.0640  -20.8720 N.am     12 SEL2        0.0000 
     32 N          18.3320   -5.2000  -20.7690 N.am      7 SEP2        0.0000 
     33 Zn         15.7540   -1.9705  -22.0585 Zn        4 ZIC7        0.0000 
     34 Zn         14.5190   -2.5610  -22.1160 Zn       14 ZIL7        0.0000 
     35 CA         16.2550   -6.8555  -20.7330 C.3       5 GLC5        0.0000 
     36 CA         15.1930   -5.1960  -21.5210 C.3      15 GLL5        0.0000 
     37 CA         17.3170   -8.5150  -19.9450 C.3      10 GLP5        0.0000 
     38 N          12.4090   -6.1545  -22.2680 N.am      2 SEC2        0.0000 
     39 N          12.7710   -5.0980  -22.9430 N.am     12 SEL2        0.0000 
     40 N          12.0470   -7.2110  -21.5930 N.am      7 SEP2        0.0000 
     41 N          11.4725   -4.5350  -22.9260 N.am      2 SEC2        0.0000 
     42 N          10.1740   -3.9720  -22.9090 N.am      7 SEP2        0.0000 
     43 CA         10.4990   -3.7050  -25.9585 C.3       5 GLC5        0.0000 
     44 CA         12.5610   -4.4410  -25.6530 C.3      15 GLL5        0.0000 
     45 CA          8.4370   -2.9690  -26.2640 C.3      10 GLP5        0.0000 
     46 CA         12.3715   -2.7870  -24.8245 C.3       5 GLC5        0.0000 
     47 CA         12.1820   -1.1330  -23.9960 C.3      10 GLP5        0.0000 
     48 NZ         10.6180   -7.1930  -26.1155 N.4       3 LYC4        0.0000 
     49 NZ         12.4890   -6.8160  -25.5880 N.4      13 LYL4        0.0000 
     50 NZ          8.7470   -7.5700  -26.6430 N.4       8 LYP4        0.0000 
     51 NZ          9.7525   -6.6835  -26.5735 N.4       3 LYC4        0.0000 
     52 NZ         10.7580   -5.7970  -26.5040 N.4      13 LYL4        0.0000 
     53 N          10.9390   -6.5935  -27.7790 N.am      2 SEC2        0.0000 
     54 N          10.7580   -5.7970  -26.5040 N.am     12 SEL2        0.0000 
     55 N          11.1200   -7.3900  -29.0540 N.am      7 SEP2        0.0000 
     56 N           9.7525   -6.6835  -26.5735 N.am      2 SEC2        0.0000 
     57 N           8.7470   -7.5700  -26.6430 N.am      7 SEP2        0.0000 
     58 N          10.1405   -4.9590  -27.2780 N.am      2 SEC2        0.0000 
     59 N           9.5230   -4.1210  -28.0520 N.am      7 SEP2        0.0000 
     60 CA         12.2260   -3.0940  -28.5935 C.3       5 GLC5        0.0000 
     61 CA         12.8010   -3.6380  -26.9380 C.3      15 GLL5        0.0000 
     62 CA         11.6510   -2.5500  -30.2490 C.3      10 GLP5        0.0000 
     63 CA         10.8140   -3.3315  -27.2650 C.3       5 GLC5        0.0000 
     64 CA          8.8270   -3.0250  -27.5920 C.3      10 GLP5        0.0000 
     65 CA         13.0635   -1.9655  -26.4280 C.3       5 GLC5        0.0000 
     66 CA         13.3260   -0.2930  -25.9180 C.3      10 GLP5        0.0000 
     67 CA         14.6535   -6.0785  -31.3265 C.3       5 GLC5        0.0000 
     68 CA         15.2660   -5.1510  -29.4420 C.3      15 GLL5        0.0000 
     69 CA         14.0410   -7.0060  -33.2110 C.3      10 GLP5        0.0000 
     70 CA         17.7860   -8.1110  -25.6495 C.3       5 GLC5        0.0000 
     71 CA         16.2980   -6.6560  -25.7330 C.3      15 GLL5        0.0000 
     72 CA         19.2740   -9.5660  -25.5660 C.3      10 GLP5        0.0000 
     73 CA         18.4170   -8.6890  -27.2745 C.3       5 GLC5        0.0000 
     74 CA         17.5600   -7.8120  -28.9830 C.3      15 GLL5        0.0000 
     75 CA         17.7190    4.1873  -18.7165 C.3       5 GLC5        0.0000 
     76 CA         16.4580    2.6720  -17.9990 C.3      15 GLL5        0.0000 
     77 CA         19.0500    5.0130  -19.5260 C.3      10 GLP5        0.0000 
     78 CA         18.2972    0.6180  -18.2085 C.3       5 GLC5        0.0000 
     79 CA         16.6180    1.8260  -16.8970 C.3      15 GLL5        0.0000 
     80 CA         19.9170    0.1020  -19.4160 C.3      10 GLP5        0.0000 
     81 CA         13.7105   -4.4932  -16.3347 C.3       5 GLC5        0.0000 
     82 CA         15.5210   -5.1460  -15.8720 C.3      10 GLP5        0.0000 
     83 CA          9.7263   -2.1505  -17.1540 C.3       5 GLC5        0.0000 
     84 CA         11.1660   -2.7100  -15.5820 C.3      15 GLL5        0.0000 
     85 CA         13.7460   -6.4345  -21.2803 C.3       5 GLC5        0.0000 
     86 CA         17.8670   -4.1455  -23.8248 C.3       5 GLC5        0.0000 
     87 CA         16.3400   -4.8820  -23.7840 C.3      15 GLL5        0.0000 
     88 CA         19.1540   -3.0300  -23.2380 C.3      10 GLP5        0.0000 
     89 CA         17.7814   -9.4279  -26.7978 C.3       5 GLC5        0.0000 
     90 CA         16.0220  -10.0700  -28.4490 C.3      15 GLL5        0.0000 
     91 CA         17.8456  -11.0903  -29.2116 C.3       5 GLC5        0.0000 
     92 CA         18.8250  -12.7790  -28.9080 C.3      10 GLP5        0.0000 
@<TRIPOS>BOND
@<TRIPOS>SUBSTRUCTURE
     1 ALC1       10 GROUP        1 X    ALC  0     ROOT ALC X 1
     2 SEC2        7 GROUP        1 X    SEC  0     **** SEC X 2
     3 LYC4       48 GROUP        1 X    LYC  0     **** LYC X 4
     4 ZIC7       27 GROUP        1 X    ZIC  0     **** ZIC X 5
     5 GLC5        1 GROUP        1 X    GLC  0     **** GLC X 6
     6 ALP1       12 GROUP        1 Y    ALP  0     ROOT ALP Y 8
     7 SEP2        9 GROUP        1 Y    SEP  0     **** SEP Y 9
     8 LYP4       50 GROUP        1 Y    LYP  0     **** LYP Y 11
     9 ZIP7       29 GROUP        1 Y    ZIP  0     **** ZIP Y 12
    10 GLP5        3 GROUP        1 Y    GLP  0     **** GLP Y 13
    11 ALL1       11 GROUP        1 Z    ALL  0     ROOT ALL Z 15
    12 SEL2        8 GROUP        1 Z    SEL  0     **** SEL Z 16
    13 LYL4       49 GROUP        1 Z    LYL  0     **** LYL Z 18
    14 ZIL7       28 GROUP        1 Z    ZIL  0     **** ZIL Z 19
    15 GLL5        2 GROUP        1 Z    GLL  0     **** GLL Z 20
@<TRIPOS>SET

