#    Name: 2xy9_3ES_1_ligand
#    Modification time : Tue Mar 25 07:05:12 2014

@<TRIPOS>MOLECULE
2xy9_3ES_1_ligand
   87    91     1     0     0
SMALL
NO_CHARGES


@<TRIPOS>ATOM
      1 CAQ        16.4580    2.6720  -17.9990 C.ar      1 3ES1635     0.0000 
      2 CAK        16.3180    4.0510  -17.8150 C.ar      1 3ES1635     0.0000 
      3 CAH        16.3360    4.5890  -16.5310 C.ar      1 3ES1635     0.0000 
      4 CAL        16.4890    3.7450  -15.4330 C.ar      1 3ES1635     0.0000 
      5 CAR        16.6270    2.3660  -15.6130 C.ar      1 3ES1635     0.0000 
      6 CBP        16.6180    1.8260  -16.8970 C.ar      1 3ES1635     0.0000 
      7 CBB        16.7370    0.4420  -17.1050 C.3       1 3ES1635     0.0000 
      8 OBJ        15.6900   -0.1350  -17.9080 O.3       1 3ES1635     0.0000 
      9 CBM        15.6310   -1.4700  -18.1670 C.2       1 3ES1635     0.0000 
     10 OAB        16.3820   -2.2750  -17.6060 O.2       1 3ES1635     0.0000 
     11 NBI        14.6880   -1.8110  -19.0440 N.am      1 3ES1635     0.0000 
     12 CBX        14.4160   -3.1870  -19.4720 C.3       1 3ES1635     0.0000 
     13 CBE        12.8980   -3.4150  -19.4940 C.3       1 3ES1635     0.0000 
     14 CBQ        12.2780   -3.1620  -18.1070 C.ar      1 3ES1635     0.0000 
     15 CAS        12.1460   -4.2180  -17.2010 C.ar      1 3ES1635     0.0000 
     16 CAM        11.5880   -3.9910  -15.9410 C.ar      1 3ES1635     0.0000 
     17 CAI        11.1660   -2.7100  -15.5820 C.ar      1 3ES1635     0.0000 
     18 CAN        11.3050   -1.6500  -16.4820 C.ar      1 3ES1635     0.0000 
     19 CAT        11.8590   -1.8800  -17.7440 C.ar      1 3ES1635     0.0000 
     20 PBY        15.1970   -3.4250  -21.1190 P.3       1 3ES1635     0.0000 
     21 OAG        16.7240   -3.0640  -20.8720 O.co2     1 3ES1635     0.0000 
     22 OAD        14.5190   -2.5610  -22.1160 O.co2     1 3ES1635     0.0000 
     23 CBF        15.1930   -5.1960  -21.5210 C.3       1 3ES1635     0.0000 
     24 CBV        15.1470   -5.5000  -23.0340 C.3       1 3ES1635     0.0000 
     25 CBN        13.7910   -5.0760  -23.6320 C.2       1 3ES1635     0.0000 
     26 OAC        12.7710   -5.0980  -22.9430 O.2       1 3ES1635     0.0000 
     27 N          13.8020   -4.7290  -24.9210 N.am      1 3ES1635     0.0000 
     28 CA         12.5610   -4.4410  -25.6530 C.3       1 3ES1635     0.0000 
     29 C          11.8850   -5.7950  -25.9640 C.2       1 3ES1635     0.0000 
     30 OXT        12.4890   -6.8160  -25.5880 O.co2     1 3ES1635     0.0000 
     31 O          10.7580   -5.7970  -26.5040 O.co2     1 3ES1635     0.0000 
     32 CB         12.8010   -3.6380  -26.9380 C.3       1 3ES1635     0.0000 
     33 CG         14.0920   -3.9370  -27.7090 C.ar      1 3ES1635     0.0000 
     34 CD1        14.0910   -4.8880  -28.7290 C.ar      1 3ES1635     0.0000 
     35 CE1        15.2660   -5.1510  -29.4420 C.ar      1 3ES1635     0.0000 
     36 CZ         16.4350   -4.4490  -29.1390 C.ar      1 3ES1635     0.0000 
     37 OH         17.5850   -4.6890  -29.8340 O.3       1 3ES1635     0.0000 
     38 CE2        16.4340   -3.4920  -28.1260 C.ar      1 3ES1635     0.0000 
     39 CD2        15.2640   -3.2350  -27.4110 C.ar      1 3ES1635     0.0000 
     40 CBC        16.3400   -4.8820  -23.7840 C.3       1 3ES1635     0.0000 
     41 CBS        16.8200   -5.6400  -25.0390 C.2       1 3ES1635     0.0000 
     42 CBA        16.2980   -6.6560  -25.7330 C.2       1 3ES1635     0.0000 
     43 OBK        17.9840   -5.2760  -25.6370 O.3       1 3ES1635     0.0000 
     44 NBG        18.1460   -6.1230  -26.7410 N.2       1 3ES1635     0.0000 
     45 CBU        17.1050   -6.9470  -26.7720 C.2       1 3ES1635     0.0000 
     46 CBT        16.9370   -7.9420  -27.7400 C.ar      1 3ES1635     0.0000 
     47 CAU        16.1740   -9.0770  -27.4800 C.ar      1 3ES1635     0.0000 
     48 CAO        16.0220  -10.0700  -28.4490 C.ar      1 3ES1635     0.0000 
     49 CAJ        16.6350   -9.9360  -29.6920 C.ar      1 3ES1635     0.0000 
     50 CAP        17.4040   -8.8000  -29.9600 C.ar      1 3ES1635     0.0000 
     51 CAV        17.5600   -7.8120  -28.9830 C.ar      1 3ES1635     0.0000 
     52 H          16.4433    2.2783  -18.9482 H         1 3ES1635     0.0000 
     53 H          16.2019    4.6657  -18.6298 H         1 3ES1635     0.0000 
     54 H          16.2373    5.5998  -16.3938 H         1 3ES1635     0.0000 
     55 H          16.5007    4.1384  -14.4812 H         1 3ES1635     0.0000 
     56 H          16.7350    1.7521  -14.7968 H         1 3ES1635     0.0000 
     57 H          16.7781   -0.0995  -16.1160 H         1 3ES1635     0.0000 
     58 H          17.7330    0.2023  -17.5779 H         1 3ES1635     0.0000 
     59 H          14.0665   -1.0813  -19.4912 H         1 3ES1635     0.0000 
     60 H          14.9174   -3.9039  -18.8774 H         1 3ES1635     0.0000 
     61 H          12.6936   -4.4410  -19.7926 H         1 3ES1635     0.0000 
     62 H          12.4440   -2.7382  -20.2147 H         1 3ES1635     0.0000 
     63 H          12.4591   -5.1596  -17.4619 H         1 3ES1635     0.0000 
     64 H          11.4881   -4.7688  -15.2773 H         1 3ES1635     0.0000 
     65 H          10.7532   -2.5455  -14.6567 H         1 3ES1635     0.0000 
     66 H          11.0019   -0.7080  -16.2175 H         1 3ES1635     0.0000 
     67 H          11.9586   -1.1015  -18.4085 H         1 3ES1635     0.0000 
     68 H          14.3249   -5.5522  -20.9928 H         1 3ES1635     0.0000 
     69 H          16.0960   -5.5436  -21.0484 H         1 3ES1635     0.0000 
     70 H          15.2193   -6.5986  -23.1423 H         1 3ES1635     0.0000 
     71 H          14.6786   -4.6447  -25.4704 H         1 3ES1635     0.0000 
     72 H          11.8795   -3.8855  -25.0162 H         1 3ES1635     0.0000 
     73 H          12.7825   -2.5532  -26.6855 H         1 3ES1635     0.0000 
     74 H          11.9356   -3.7972  -27.6211 H         1 3ES1635     0.0000 
     75 H          13.2294   -5.3962  -28.9584 H         1 3ES1635     0.0000 
     76 H          15.2677   -5.8572  -30.1845 H         1 3ES1635     0.0000 
     77 H          17.2938   -2.9758  -27.9054 H         1 3ES1635     0.0000 
     78 H          15.2620   -2.5297  -26.6647 H         1 3ES1635     0.0000 
     79 H          17.1928   -4.7914  -23.0803 H         1 3ES1635     0.0000 
     80 H          16.0752   -3.8458  -24.0788 H         1 3ES1635     0.0000 
     81 H          15.4655   -7.1176  -25.5254 H         1 3ES1635     0.0000 
     82 H          15.7155   -9.1868  -26.5621 H         1 3ES1635     0.0000 
     83 H          15.4549  -10.9031  -28.2427 H         1 3ES1635     0.0000 
     84 H          16.5250  -10.6615  -30.4047 H         1 3ES1635     0.0000 
     85 H          17.8551   -8.6906  -30.8757 H         1 3ES1635     0.0000 
     86 H          18.1378   -6.9841  -29.1820 H         1 3ES1635     0.0000 
     87 H          18.3189   -4.5887  -29.1622 H         1 3ES1635     0.0000 
@<TRIPOS>BOND
     1    2    1 ar   
     2    6    1 ar   
     3   52    1 1    
     4    3    2 ar   
     5   53    2 1    
     6    4    3 ar   
     7   54    3 1    
     8    5    4 ar   
     9   55    4 1    
    10    6    5 ar   
    11   56    5 1    
    12    7    6 1    
    13    8    7 1    
    14   57    7 1    
    15   58    7 1    
    16    9    8 1    
    17   10    9 2    
    18   11    9 am   
    19   12   11 1    
    20   59   11 1    
    21   13   12 1    
    22   20   12 1    
    23   60   12 1    
    24   14   13 1    
    25   61   13 1    
    26   62   13 1    
    27   15   14 ar   
    28   19   14 ar   
    29   16   15 ar   
    30   63   15 1    
    31   17   16 ar   
    32   64   16 1    
    33   18   17 ar   
    34   65   17 1    
    35   19   18 ar   
    36   66   18 1    
    37   67   19 1    
    38   21   20 ar   
    39   22   20 ar   
    40   23   20 1    
    41   24   23 1    
    42   68   23 1    
    43   69   23 1    
    44   25   24 1    
    45   40   24 1    
    46   70   24 1    
    47   26   25 2    
    48   27   25 am   
    49   28   27 1    
    50   71   27 1    
    51   29   28 1    
    52   32   28 1    
    53   72   28 1    
    54   30   29 ar   
    55   31   29 ar   
    56   33   32 1    
    57   73   32 1    
    58   74   32 1    
    59   34   33 ar   
    60   39   33 ar   
    61   35   34 ar   
    62   75   34 1    
    63   36   35 ar   
    64   76   35 1    
    65   37   36 1    
    66   38   36 ar   
    67   87   37 1    
    68   39   38 ar   
    69   77   38 1    
    70   78   39 1    
    71   41   40 1    
    72   79   40 1    
    73   80   40 1    
    74   42   41 2    
    75   43   41 1    
    76   45   42 1    
    77   81   42 1    
    78   44   43 1    
    79   45   44 2    
    80   46   45 1    
    81   47   46 ar   
    82   51   46 ar   
    83   48   47 ar   
    84   82   47 1    
    85   49   48 ar   
    86   83   48 1    
    87   50   49 ar   
    88   84   49 1    
    89   51   50 ar   
    90   85   50 1    
    91   86   51 1    
@<TRIPOS>SUBSTRUCTURE
     1 3ES1635     1 GROUP   
@<TRIPOS>SET

