#    Name: 4deh_0JK_1_INTS_M
#    Modification time : Tue Mar 25 09:39:14 2014

@<TRIPOS>MOLECULE
4deh_0JK_1_INTS_M
   68     0     6     0     0
SMALL
NO_CHARGES


@<TRIPOS>ATOM
      1 CA         24.0690    7.6000   57.3725 C.3       2 GLC5        0.0000 
      2 CA         23.1820    7.2300   59.2630 C.3       6 GLL5        0.0000 
      3 CA         24.9560    7.9700   55.4820 C.3       4 GLP5        0.0000 
      4 CA         24.4580    8.1890   60.6375 C.3       2 GLC5        0.0000 
      5 CA         25.7340    9.1480   62.0120 C.3       4 GLP5        0.0000 
      6 CA         22.1925    9.1315   59.8880 C.3       2 GLC5        0.0000 
      7 CA         21.2030   11.0330   60.5130 C.3       4 GLP5        0.0000 
      8 N          24.9085    8.5230   59.7995 N.am      1 SEC2        0.0000 
      9 N          23.6800    8.4120   58.8940 N.am      5 SEL2        0.0000 
     10 N          26.1370    8.6340   60.7050 N.am      3 SEP2        0.0000 
     11 CA         23.8935    9.7855   59.9595 C.3       2 GLC5        0.0000 
     12 CA         23.0120    9.2400   58.0830 C.3       6 GLL5        0.0000 
     13 CA         24.7750   10.3310   61.8360 C.3       4 GLP5        0.0000 
     14 CA         24.5000   10.9960   59.4385 C.3       2 GLC5        0.0000 
     15 CA         23.5730   10.4670   57.7300 C.3       6 GLL5        0.0000 
     16 CA         25.4270   11.5250   61.1470 C.3       4 GLP5        0.0000 
     17 CA         23.8020   13.2800   57.1155 C.3       2 GLC5        0.0000 
     18 CA         22.8650   11.3230   56.8830 C.3       6 GLL5        0.0000 
     19 CA         24.7390   15.2370   57.3480 C.3       4 GLP5        0.0000 
     20 CA         19.1975   12.7560   54.8200 C.3       2 GLC5        0.0000 
     21 CA         20.8220   11.8950   55.4710 C.3       6 GLL5        0.0000 
     22 CA         17.5730   13.6170   54.1690 C.3       4 GLP5        0.0000 
     23 N          20.5485   16.6475   56.9250 N.am      1 SEC2        0.0000 
     24 N          20.5330   15.1320   56.6620 N.am      5 SEL2        0.0000 
     25 N          20.5640   18.1630   57.1880 N.am      3 SEP2        0.0000 
     26 CA         19.4990   16.5860   56.8600 C.3       2 GLC5        0.0000 
     27 CA         19.5520   14.6100   57.3960 C.3       6 GLL5        0.0000 
     28 CA         19.4460   18.5620   56.3240 C.3       4 GLP5        0.0000 
     29 CA         18.3920   16.8315   57.7305 C.3       2 GLC5        0.0000 
     30 CA         18.6580   15.0920   58.3480 C.3       6 GLL5        0.0000 
     31 CA         18.1260   18.5710   57.1130 C.3       4 GLP5        0.0000 
     32 CA         17.8625   14.8885   56.6220 C.3       2 GLC5        0.0000 
     33 CA         17.0670   14.6850   54.8960 C.3       4 GLP5        0.0000 
     34 CA         19.7330   13.9335   60.4215 C.3       2 GLC5        0.0000 
     35 CA         18.1640   14.2600   59.3540 C.3       6 GLL5        0.0000 
     36 CA         21.3020   13.6070   61.4890 C.3       4 GLP5        0.0000 
     37 CA         17.0590   14.3750   57.5330 C.3       2 GLC5        0.0000 
     38 CA         15.9540   14.4900   55.7120 C.3       4 GLP5        0.0000 
     39 CA         19.1535   10.8985   60.1210 C.3       2 GLC5        0.0000 
     40 CA         17.1040   10.7640   59.7290 C.3       6 GLL5        0.0000 
     41 CA         23.1767    8.6385   56.3340 C.3       2 GLC5        0.0000 
     42 CA         21.0440    9.7350   56.7690 C.3       6 GLL5        0.0000 
     43 CA         21.3871    7.7962   55.7438 C.3       2 GLC5        0.0000 
     44 CA         21.2070    7.6500   57.9670 C.3       6 GLL5        0.0000 
     45 CA         21.4720    7.1140   53.9110 C.3       4 GLP5        0.0000 
     46 CA         22.5096    5.7486   57.5523 C.3       2 GLC5        0.0000 
     47 CA         22.6430    4.2650   56.2780 C.3       4 GLP5        0.0000 
     48 CA         21.6801    9.9461   59.1714 C.3       2 GLC5        0.0000 
     49 CA         24.0174    9.2791   56.4384 C.3       2 GLC5        0.0000 
     50 CA         22.0718   11.7988   58.4326 C.3       2 GLC5        0.0000 
     51 CA         21.6000   10.9620   56.4080 C.3       6 GLL5        0.0000 
     52 CA         21.7340   12.6690   60.0080 C.3       4 GLP5        0.0000 
     53 CA         22.8261   12.2274   54.8376 C.3       2 GLC5        0.0000 
     54 CA         24.1250   12.9360   53.6170 C.3       4 GLP5        0.0000 
     55 CA         20.5155   15.8650   58.5440 C.3       2 GLC5        0.0000 
     56 CA         21.9260   16.8790   59.2160 C.3       4 GLP5        0.0000 
     57 CA         17.6940   16.1975   59.9760 C.3       2 GLC5        0.0000 
     58 CA         16.9770   17.7190   61.1010 C.3       4 GLP5        0.0000 
     59 CA         20.4135   13.5928   58.8978 C.3       2 GLC5        0.0000 
     60 CA         17.0225   11.8550   61.4808 C.3       2 GLC5        0.0000 
     61 CA         16.8420   12.0920   59.4020 C.3       6 GLL5        0.0000 
     62 CA         17.0720   12.2820   63.3960 C.3       4 GLP5        0.0000 
     63 CA         16.2775   11.2592   61.9222 C.3       2 GLC5        0.0000 
     64 CA         14.8510   10.5010   60.5860 C.3       6 GLL5        0.0000 
     65 CA         16.0755   12.2535   61.6825 C.3       2 GLC5        0.0000 
     66 CA         14.5820   11.8310   60.2620 C.3       6 GLL5        0.0000 
     67 CA         14.7677   12.5586   58.3017 C.3       2 GLC5        0.0000 
     68 CA         14.1400   13.0240   56.7030 C.3       4 GLP5        0.0000 
@<TRIPOS>BOND
@<TRIPOS>SUBSTRUCTURE
     1 SEC2        8 GROUP        1 X    SEC  0     ROOT SEC X 2
     2 GLC5        1 GROUP        1 X    GLC  0     **** GLC X 6
     3 SEP2       10 GROUP        1 Y    SEP  0     ROOT SEP Y 9
     4 GLP5        3 GROUP        1 Y    GLP  0     **** GLP Y 13
     5 SEL2        9 GROUP        1 Z    SEL  0     ROOT SEL Z 16
     6 GLL5        2 GROUP        1 Z    GLL  0     **** GLL Z 20
@<TRIPOS>SET

