#    Name: 4deh_0JK_1_ligand
#    Modification time : Tue Mar 25 09:39:14 2014

@<TRIPOS>MOLECULE
4deh_0JK_1_ligand
   44    48     1     0     0
SMALL
NO_CHARGES


@<TRIPOS>ATOM
      1 C18        21.0440    9.7350   56.7690 C.ar      1 0JK1401     0.0000 
      2 C17        21.7510    8.8790   57.6030 C.ar      1 0JK1401     0.0000 
      3 C21        21.2070    7.6500   57.9670 C.ar      1 0JK1401     0.0000 
      4 C20        21.9340    6.8190   58.8130 C.ar      1 0JK1401     0.0000 
      5 C19        23.1820    7.2300   59.2630 C.ar      1 0JK1401     0.0000 
      6 N5         23.6800    8.4120   58.8940 N.ar      1 0JK1401     0.0000 
      7 C16        23.0120    9.2400   58.0830 C.ar      1 0JK1401     0.0000 
      8 C15        23.5730   10.4670   57.7300 C.ar      1 0JK1401     0.0000 
      9 C14        22.8650   11.3230   56.8830 C.ar      1 0JK1401     0.0000 
     10 C13        21.6000   10.9620   56.4080 C.ar      1 0JK1401     0.0000 
     11 C12        20.8220   11.8950   55.4710 C.3       1 0JK1401     0.0000 
     12 N4         20.4710   13.1480   56.1550 N.pl3     1 0JK1401     0.0000 
     13 C10        19.5040   13.2720   57.0580 C.2       1 0JK1401     0.0000 
     14 C11        18.5540   12.4340   57.6540 C.2       1 0JK1401     0.0000 
     15 O1         18.3090   11.3240   57.1760 O.2       1 0JK1401     0.0000 
     16 N3         21.0320   14.2370   55.9620 N.2       1 0JK1401     0.0000 
     17 N2         20.5330   15.1320   56.6620 N.2       1 0JK1401     0.0000 
     18 C9         19.5520   14.6100   57.3960 C.2       1 0JK1401     0.0000 
     19 C8         18.6580   15.0920   58.3480 C.3       1 0JK1401     0.0000 
     20 C7         18.1640   14.2600   59.3540 C.3       1 0JK1401     0.0000 
     21 N1         17.8420   12.9030   58.7960 N.am      1 0JK1401     0.0000 
     22 C4         16.8420   12.0920   59.4020 C.ar      1 0JK1401     0.0000 
     23 C3         17.1040   10.7640   59.7290 C.ar      1 0JK1401     0.0000 
     24 C2         16.1150    9.9720   60.3110 C.ar      1 0JK1401     0.0000 
     25 C1         14.8510   10.5010   60.5860 C.ar      1 0JK1401     0.0000 
     26 C6         14.5820   11.8310   60.2620 C.ar      1 0JK1401     0.0000 
     27 C5         15.5760   12.6190   59.6760 C.ar      1 0JK1401     0.0000 
     28 H          20.1176    9.4688   56.4189 H         1 0JK1401     0.0000 
     29 H          20.2919    7.3648   57.6192 H         1 0JK1401     0.0000 
     30 H          21.5521    5.9136   59.1006 H         1 0JK1401     0.0000 
     31 H          23.7146    6.5935   59.8926 H         1 0JK1401     0.0000 
     32 H          24.4911   10.7377   58.0862 H         1 0JK1401     0.0000 
     33 H          23.2759   12.2247   56.6065 H         1 0JK1401     0.0000 
     34 H          19.9213   11.3701   55.1369 H         1 0JK1401     0.0000 
     35 H          21.4446   12.0938   54.5928 H         1 0JK1401     0.0000 
     36 H          17.7583   15.5830   57.7993 H         1 0JK1401     0.0000 
     37 H          19.1157   16.0391   58.8430 H         1 0JK1401     0.0000 
     38 H          17.2431   14.6638   59.8121 H         1 0JK1401     0.0000 
     39 H          18.8913   14.1236   60.1747 H         1 0JK1401     0.0000 
     40 H          18.0342   10.3634   59.5400 H         1 0JK1401     0.0000 
     41 H          16.3164    8.9878   60.5409 H         1 0JK1401     0.0000 
     42 H          14.1323    9.9189   61.0198 H         1 0JK1401     0.0000 
     43 H          13.6571   12.2304   60.4531 H         1 0JK1401     0.0000 
     44 H          15.3735   13.6038   59.4419 H         1 0JK1401     0.0000 
@<TRIPOS>BOND
     1    2    1 ar   
     2   10    1 ar   
     3   28    1 1    
     4    3    2 ar   
     5    7    2 ar   
     6    4    3 ar   
     7   29    3 1    
     8    5    4 ar   
     9   30    4 1    
    10    6    5 ar   
    11   31    5 1    
    12    7    6 ar   
    13    8    7 ar   
    14    9    8 ar   
    15   32    8 1    
    16   10    9 ar   
    17   33    9 1    
    18   11   10 1    
    19   12   11 1    
    20   34   11 1    
    21   35   11 1    
    22   13   12 1    
    23   16   12 1    
    24   14   13 1    
    25   18   13 2    
    26   15   14 2    
    27   21   14 am   
    28   17   16 2    
    29   18   17 1    
    30   19   18 1    
    31   20   19 1    
    32   36   19 1    
    33   37   19 1    
    34   21   20 1    
    35   38   20 1    
    36   39   20 1    
    37   22   21 1    
    38   23   22 ar   
    39   27   22 ar   
    40   24   23 ar   
    41   40   23 1    
    42   25   24 ar   
    43   41   24 1    
    44   26   25 ar   
    45   42   25 1    
    46   27   26 ar   
    47   43   26 1    
    48   44   27 1    
@<TRIPOS>SUBSTRUCTURE
     1 0JK1401     1 GROUP   
@<TRIPOS>SET

