#    Name: 2z7i_742_2_INTS_M
#    Modification time : Tue Mar 25 10:22:49 2014

@<TRIPOS>MOLECULE
2z7i_742_2_INTS_M
   86     0    12     0     0
SMALL
NO_CHARGES


@<TRIPOS>ATOM
      1 CA         27.7400   33.7165   41.5980 C.3       4 GLC5        0.0000 
      2 CA         26.3890   34.4370   43.1920 C.3      12 GLL5        0.0000 
      3 CA         29.0910   32.9960   40.0040 C.3       8 GLP5        0.0000 
      4 CA         26.6580   35.8585   42.1455 C.3       4 GLC5        0.0000 
      5 CA         26.9270   37.2800   41.0990 C.3       8 GLP5        0.0000 
      6 CA         27.4815   33.2245   44.2910 C.3       4 GLC5        0.0000 
      7 CA         28.5740   32.0120   45.3900 C.3       8 GLP5        0.0000 
      8 CA         23.4915   35.6310   43.0445 C.3       4 GLC5        0.0000 
      9 CA         24.9710   34.1950   42.6710 C.3      12 GLL5        0.0000 
     10 CA         22.0120   37.0670   43.4180 C.3       8 GLP5        0.0000 
     11 CA         25.4050   36.0160   42.3335 C.3       4 GLC5        0.0000 
     12 CA         25.8390   37.8370   41.9960 C.3       8 GLP5        0.0000 
     13 CA         26.1645   32.0940   41.1525 C.3       4 GLC5        0.0000 
     14 CA         24.9820   33.8430   41.1820 C.3      12 GLL5        0.0000 
     15 CA         27.3470   30.3450   41.1230 C.3       8 GLP5        0.0000 
     16 CA         25.9545   35.5615   41.1405 C.3       4 GLC5        0.0000 
     17 CA         25.2395   30.7665   39.8520 C.3       4 GLC5        0.0000 
     18 CA         24.1870   32.0360   38.8410 C.3      12 GLL5        0.0000 
     19 CA         26.2920   29.4970   40.8630 C.3       8 GLP5        0.0000 
     20 CA         24.9280   32.9380   35.7480 C.3       4 GLC5        0.0000 
     21 CA         24.0680   31.7300   37.3480 C.3      12 GLL5        0.0000 
     22 CA         25.7880   34.1460   34.1480 C.3       8 GLP5        0.0000 
     23 CA         25.1385   30.2750   38.4910 C.3       4 GLC5        0.0000 
     24 CA         26.2090   28.8200   39.6340 C.3       8 GLP5        0.0000 
     25 CA         25.1870   32.1250   34.8310 C.3       4 GLC5        0.0000 
     26 CA         24.5860   30.1040   35.5140 C.3      12 GLL5        0.0000 
     27 CA         27.1440   27.8285   35.5215 C.3       4 GLC5        0.0000 
     28 CA         25.3290   28.8290   35.1100 C.3      12 GLL5        0.0000 
     29 CA         28.9590   26.8280   35.9330 C.3       8 GLP5        0.0000 
     30 CA         27.5935   27.1750   34.5550 C.3       4 GLC5        0.0000 
     31 CA         26.2280   27.5220   33.1770 C.3      12 GLL5        0.0000 
     32 CA         29.7960   27.2890   30.5785 C.3       4 GLC5        0.0000 
     33 CA         28.0720   27.2870   30.9820 C.3      12 GLL5        0.0000 
     34 CA         31.5200   27.2910   30.1750 C.3       8 GLP5        0.0000 
     35 CA         23.7170   29.0505   30.2340 C.3       4 GLC5        0.0000 
     36 CA         25.4780   28.5750   30.5060 C.3      12 GLL5        0.0000 
     37 CA         21.9560   29.5260   29.9620 C.3       8 GLP5        0.0000 
     38 NZ         28.8700   24.7725   29.0900 N.4       2 LYC4        0.0000 
     39 NZ         27.7060   25.8380   28.3630 N.4      10 LYL4        0.0000 
     40 NZ         30.0340   23.7070   29.8170 N.4       6 LYP4        0.0000 
     41 N          28.8700   24.7725   29.0900 N.am      1 SEC2        0.0000 
     42 N          27.7060   25.8380   28.3630 N.am      9 SEL2        0.0000 
     43 N          30.0340   23.7070   29.8170 N.am      5 SEP2        0.0000 
     44 NZ         28.6910   23.6645   29.7090 N.4       2 LYC4        0.0000 
     45 NZ         27.3480   23.6220   29.6010 N.4      10 LYL4        0.0000 
     46 NZ         27.0960   22.4640   29.0405 N.4       2 LYC4        0.0000 
     47 NZ         26.8440   21.3060   28.4800 N.4       6 LYP4        0.0000 
     48 N          28.6910   23.6645   29.7090 N.am      1 SEC2        0.0000 
     49 N          27.3480   23.6220   29.6010 N.am      9 SEL2        0.0000 
     50 N          27.0960   22.4640   29.0405 N.am      1 SEC2        0.0000 
     51 N          26.8440   21.3060   28.4800 N.am      5 SEP2        0.0000 
     52 NZ         26.4870   22.6705   27.9290 N.4       2 LYC4        0.0000 
     53 NZ         26.1300   24.0350   27.3780 N.4      10 LYL4        0.0000 
     54 Zn         25.3185   24.2130   26.7555 Zn        3 ZIC7        0.0000 
     55 Zn         26.1300   24.0350   27.3780 Zn       11 ZIL7        0.0000 
     56 Zn         24.5070   24.3910   26.1330 Zn        7 ZIP7        0.0000 
     57 N          26.4870   22.6705   27.9290 N.am      1 SEC2        0.0000 
     58 N          26.1300   24.0350   27.3780 N.am      9 SEL2        0.0000 
     59 Zn         23.9180   24.3695   27.0010 Zn        3 ZIC7        0.0000 
     60 Zn         23.3290   24.3480   27.8690 Zn       11 ZIL7        0.0000 
     61 N          22.2965   25.5330   27.6445 N.am      1 SEC2        0.0000 
     62 N          23.3290   24.3480   27.8690 N.am      9 SEL2        0.0000 
     63 N          21.2640   26.7180   27.4200 N.am      5 SEP2        0.0000 
     64 NZ         25.4625   22.0940   29.1560 N.4       2 LYC4        0.0000 
     65 NZ         24.0810   22.8820   29.8320 N.4      10 LYL4        0.0000 
     66 NZ         21.4225   25.6805   29.8365 N.4       2 LYC4        0.0000 
     67 NZ         22.6440   24.9730   30.2390 N.4      10 LYL4        0.0000 
     68 NZ         20.1830   26.8480   28.1820 N.4       6 LYP4        0.0000 
     69 N          21.4225   25.6805   29.8365 N.am      1 SEC2        0.0000 
     70 N          22.6440   24.9730   30.2390 N.am      9 SEL2        0.0000 
     71 N          20.2010   26.3880   29.4340 N.am      5 SEP2        0.0000 
     72 CA         24.6315   32.7520   43.4147 C.3       4 GLC5        0.0000 
     73 CA         23.5830   31.1880   43.8980 C.3       8 GLP5        0.0000 
     74 CA         23.9250   32.4682   42.4133 C.3       4 GLC5        0.0000 
     75 CA         21.8540   33.2410   39.5190 C.3       4 GLC5        0.0000 
     76 CA         23.5520   33.6540   40.6750 C.3      12 GLL5        0.0000 
     77 CA         20.1740   32.9700   39.1140 C.3       8 GLP5        0.0000 
     78 CA         23.0135   35.1770   38.8855 C.3       4 GLC5        0.0000 
     79 CA         23.5160   33.3700   39.1730 C.3      12 GLL5        0.0000 
     80 CA         22.4930   36.8420   37.8470 C.3       8 GLP5        0.0000 
     81 CA         22.1508   32.4265   38.6042 C.3       4 GLC5        0.0000 
     82 CA         26.0916   29.2703   37.1906 C.3       4 GLC5        0.0000 
     83 CA         24.7330   30.3960   37.0070 C.3      12 GLL5        0.0000 
     84 CA         27.1890   29.0010   38.6960 C.3       8 GLP5        0.0000 
     85 CA         25.1766   26.6018   34.6621 C.3       4 GLC5        0.0000 
     86 CA         24.5910   25.0770   35.5600 C.3       8 GLP5        0.0000 
@<TRIPOS>BOND
@<TRIPOS>SUBSTRUCTURE
     1 SEC2       41 GROUP        1 X    SEC  0     ROOT SEC X 2
     2 LYC4       38 GROUP        1 X    LYC  0     **** LYC X 4
     3 ZIC7       54 GROUP        1 X    ZIC  0     **** ZIC X 5
     4 GLC5        1 GROUP        1 X    GLC  0     **** GLC X 6
     5 SEP2       43 GROUP        1 Y    SEP  0     ROOT SEP Y 9
     6 LYP4       40 GROUP        1 Y    LYP  0     **** LYP Y 11
     7 ZIP7       56 GROUP        1 Y    ZIP  0     **** ZIP Y 12
     8 GLP5        3 GROUP        1 Y    GLP  0     **** GLP Y 13
     9 SEL2       42 GROUP        1 Z    SEL  0     ROOT SEL Z 16
    10 LYL4       39 GROUP        1 Z    LYL  0     **** LYL Z 18
    11 ZIL7       55 GROUP        1 Z    ZIL  0     **** ZIL Z 19
    12 GLL5        2 GROUP        1 Z    GLL  0     **** GLL Z 20
@<TRIPOS>SET

