#    Name: 2z7i_742_2_ligand
#    Modification time : Tue Mar 25 10:22:49 2014

@<TRIPOS>MOLECULE
2z7i_742_2_ligand
   59    58     1     0     0
SMALL
NO_CHARGES


@<TRIPOS>ATOM
      1 CAA        26.3890   34.4370   43.1920 C.3       1 7421303     0.0000 
      2 CAJ        24.9710   34.1950   42.6710 C.3       1 7421303     0.0000 
      3 CAK        24.9820   33.8430   41.1820 C.3       1 7421303     0.0000 
      4 CAL        23.5520   33.6540   40.6750 C.3       1 7421303     0.0000 
      5 CAM        23.5160   33.3700   39.1730 C.3       1 7421303     0.0000 
      6 CAN        24.1870   32.0360   38.8410 C.3       1 7421303     0.0000 
      7 CAO        24.0680   31.7300   37.3480 C.3       1 7421303     0.0000 
      8 CAP        24.7330   30.3960   37.0070 C.3       1 7421303     0.0000 
      9 CAQ        24.5860   30.1040   35.5140 C.3       1 7421303     0.0000 
     10 CAR        25.3290   28.8290   35.1100 C.3       1 7421303     0.0000 
     11 CAS        25.2640   28.6330   33.5930 C.3       1 7421303     0.0000 
     12 CAT        26.2280   27.5220   33.1770 C.3       1 7421303     0.0000 
     13 PAY        26.3270   27.2650   31.3870 P.3       1 7421303     0.0000 
     14 CAB        28.0720   27.2870   30.9820 C.3       1 7421303     0.0000 
     15 CAC        25.4780   28.5750   30.5060 C.3       1 7421303     0.0000 
     16 CAU        25.6220   25.6290   31.0520 C.3       1 7421303     0.0000 
     17 CAV        25.2540   25.4300   29.5790 C.3       1 7421303     0.0000 
     18 PAX        26.6270   24.6680   28.6200 P.3       1 7421303     0.0000 
     19 OAH        27.7060   25.8380   28.3630 O.co2     1 7421303     0.0000 
     20 OAI        27.3480   23.6220   29.6010 O.co2     1 7421303     0.0000 
     21 OAE        26.1300   24.0350   27.3780 O.co2     1 7421303     0.0000 
     22 PAW        23.7390   24.4000   29.4230 P.3       1 7421303     0.0000 
     23 OAF        23.3290   24.3480   27.8690 O.co2     1 7421303     0.0000 
     24 OAG        24.0810   22.8820   29.8320 O.co2     1 7421303     0.0000 
     25 OAD        22.6440   24.9730   30.2390 O.co2     1 7421303     0.0000 
     26 H          24.3749   35.0946   42.8223 H         1 7421303     0.0000 
     27 H          24.5186   33.3760   43.2297 H         1 7421303     0.0000 
     28 H          25.5400   32.9236   41.0349 H         1 7421303     0.0000 
     29 H          25.4569   34.6460   40.6271 H         1 7421303     0.0000 
     30 H          22.9754   34.5584   40.8827 H         1 7421303     0.0000 
     31 H          23.0896   32.8204   41.2086 H         1 7421303     0.0000 
     32 H          24.0319   34.1722   38.6436 H         1 7421303     0.0000 
     33 H          22.4783   33.3424   38.8378 H         1 7421303     0.0000 
     34 H          23.7080   31.2423   39.4097 H         1 7421303     0.0000 
     35 H          25.2384   32.0855   39.1150 H         1 7421303     0.0000 
     36 H          24.5475   32.5256   36.7791 H         1 7421303     0.0000 
     37 H          23.0148   31.6864   37.0733 H         1 7421303     0.0000 
     38 H          24.2596   29.6029   37.5767 H         1 7421303     0.0000 
     39 H          25.7868   30.4447   37.2617 H         1 7421303     0.0000 
     40 H          24.9832   30.9460   34.9426 H         1 7421303     0.0000 
     41 H          23.5265   29.9926   35.2725 H         1 7421303     0.0000 
     42 H          24.8712   27.9755   35.6016 H         1 7421303     0.0000 
     43 H          26.3679   28.9061   35.4172 H         1 7421303     0.0000 
     44 H          25.5443   29.5560   33.1001 H         1 7421303     0.0000 
     45 H          24.2550   28.3587   33.3101 H         1 7421303     0.0000 
     46 H          25.9360   26.5470   33.5341 H         1 7421303     0.0000 
     47 H          27.2544   27.7270   33.4376 H         1 7421303     0.0000 
     48 H          24.7748   25.6038   31.7102 H         1 7421303     0.0000 
     49 H          26.3983   24.9698   31.3903 H         1 7421303     0.0000 
     50 H          25.0236   26.3125   29.0608 H         1 7421303     0.0000 
     51 H          26.9683   33.6295   43.0811 H         1 7421303     0.0000 
     52 H          26.8386   35.1888   42.7096 H         1 7421303     0.0000 
     53 H          26.3927   34.6690   44.1647 H         1 7421303     0.0000 
     54 H          28.4999   28.1562   31.2299 H         1 7421303     0.0000 
     55 H          28.5735   26.5664   31.4607 H         1 7421303     0.0000 
     56 H          28.2279   27.1521   30.0035 H         1 7421303     0.0000 
     57 H          25.8713   29.4724   30.7057 H         1 7421303     0.0000 
     58 H          25.5259   28.4479   29.5153 H         1 7421303     0.0000 
     59 H          24.5091   28.6189   30.7494 H         1 7421303     0.0000 
@<TRIPOS>BOND
     1    2    1 1    
     2   51    1 1    
     3   52    1 1    
     4   53    1 1    
     5    3    2 1    
     6   26    2 1    
     7   27    2 1    
     8    4    3 1    
     9   28    3 1    
    10   29    3 1    
    11    5    4 1    
    12   30    4 1    
    13   31    4 1    
    14    6    5 1    
    15   32    5 1    
    16   33    5 1    
    17    7    6 1    
    18   34    6 1    
    19   35    6 1    
    20    8    7 1    
    21   36    7 1    
    22   37    7 1    
    23    9    8 1    
    24   38    8 1    
    25   39    8 1    
    26   10    9 1    
    27   40    9 1    
    28   41    9 1    
    29   11   10 1    
    30   42   10 1    
    31   43   10 1    
    32   12   11 1    
    33   44   11 1    
    34   45   11 1    
    35   13   12 1    
    36   46   12 1    
    37   47   12 1    
    38   14   13 1    
    39   15   13 1    
    40   16   13 1    
    41   54   14 1    
    42   55   14 1    
    43   56   14 1    
    44   57   15 1    
    45   58   15 1    
    46   59   15 1    
    47   17   16 1    
    48   48   16 1    
    49   49   16 1    
    50   18   17 1    
    51   22   17 1    
    52   50   17 1    
    53   19   18 ar   
    54   20   18 ar   
    55   21   18 ar   
    56   23   22 ar   
    57   24   22 ar   
    58   25   22 ar   
@<TRIPOS>SUBSTRUCTURE
     1 7421303     1 GROUP   
@<TRIPOS>SET

