#    Name: 1xvp_CID_1_INTS_M
#    Modification time : Tue Mar 25 10:43:37 2014

@<TRIPOS>MOLECULE
1xvp_CID_1_INTS_M
   60     0     3     0     0
SMALL
NO_CHARGES


@<TRIPOS>ATOM
      1 CA         22.5620   52.5945   26.5505 C.3       1 GLC5        0.0000 
      2 CA         23.7860   54.3490   26.2780 C.3       3 GLL5        0.0000 
      3 CA         21.3380   50.8400   26.8230 C.3       2 GLP5        0.0000 
      4 CA         25.7285   54.6790   25.8345 C.3       1 GLC5        0.0000 
      5 CA         27.6710   55.0090   25.3910 C.3       2 GLP5        0.0000 
      6 CA         23.6120   59.2115   27.4695 C.3       1 GLC5        0.0000 
      7 CA         22.6390   58.6510   29.2260 C.3       3 GLL5        0.0000 
      8 CA         24.5850   59.7720   25.7130 C.3       2 GLP5        0.0000 
      9 CA         21.2420   60.3155   28.9530 C.3       1 GLC5        0.0000 
     10 CA         19.8450   61.9800   28.6800 C.3       2 GLP5        0.0000 
     11 CA         23.5650   60.3150   29.1520 C.3       1 GLC5        0.0000 
     12 CA         24.4910   61.9790   29.0780 C.3       2 GLP5        0.0000 
     13 CA         21.0695   56.9900   28.1580 C.3       1 GLC5        0.0000 
     14 CA         21.8960   56.0370   29.8790 C.3       3 GLL5        0.0000 
     15 CA         20.2430   57.9430   26.4370 C.3       2 GLP5        0.0000 
     16 CA         19.6045   57.5170   31.3790 C.3       1 GLC5        0.0000 
     17 CA         21.1700   56.6690   31.3480 C.3       3 GLL5        0.0000 
     18 CA         18.0390   58.3650   31.4100 C.3       2 GLP5        0.0000 
     19 CA         21.2930   57.4580   32.8995 C.3       1 GLC5        0.0000 
     20 CA         21.4160   58.2470   34.4510 C.3       2 GLP5        0.0000 
     21 CA         20.2270   55.4025   32.9150 C.3       1 GLC5        0.0000 
     22 CA         19.2840   54.1360   34.4820 C.3       2 GLP5        0.0000 
     23 CA         21.8885   52.4615   27.6320 C.3       1 GLC5        0.0000 
     24 CA         22.4390   54.0830   28.4410 C.3       3 GLL5        0.0000 
     25 CA         26.8875   51.5620   26.9160 C.3       1 GLC5        0.0000 
     26 CA         27.1880   52.1960   28.9520 C.3       3 GLL5        0.0000 
     27 CA         26.5870   50.9280   24.8800 C.3       2 GLP5        0.0000 
     28 CA         23.1140   58.1620   33.3910 C.3       1 GLC5        0.0000 
     29 CA         24.8120   58.0770   32.3310 C.3       3 GLL5        0.0000 
     30 CA         24.9345   58.9015   33.8625 C.3       1 GLC5        0.0000 
     31 CA         25.0570   59.7260   35.3940 C.3       2 GLP5        0.0000 
     32 CA         25.0205   59.7930   31.2435 C.3       1 GLC5        0.0000 
     33 CA         25.2290   61.5090   30.1560 C.3       2 GLP5        0.0000 
     34 CA         27.2810   57.3910   31.0280 C.3       1 GLC5        0.0000 
     35 CA         25.6710   56.4740   30.2310 C.3       3 GLL5        0.0000 
     36 CA         28.8910   58.3080   31.8250 C.3       2 GLP5        0.0000 
     37 CA         26.7045   48.8185   28.3915 C.3       1 GLC5        0.0000 
     38 CA         28.3500   49.9540   28.4050 C.3       3 GLL5        0.0000 
     39 CA         25.0590   47.6830   28.3780 C.3       2 GLP5        0.0000 
     40 CA         27.4685   50.4410   26.6425 C.3       1 GLC5        0.0000 
     41 CA         31.7320   50.6775   30.6970 C.3       1 GLC5        0.0000 
     42 CA         29.9990   50.1730   30.4580 C.3       3 GLL5        0.0000 
     43 CA         33.4650   51.1820   30.9360 C.3       2 GLP5        0.0000 
     44 CA         29.6200   50.1140   32.0065 C.3       1 GLC5        0.0000 
     45 CA         29.2410   50.0550   33.5550 C.3       2 GLP5        0.0000 
     46 CA         29.9145   47.5115   28.3760 C.3       1 GLC5        0.0000 
     47 CA         29.3540   49.2750   29.0310 C.3       3 GLL5        0.0000 
     48 CA         30.4750   45.7480   27.7210 C.3       2 GLP5        0.0000 
     49 CA         21.6870   56.7955   27.0297 C.3       1 GLC5        0.0000 
     50 CA         23.1100   54.9390   27.4960 C.3       3 GLL5        0.0000 
     51 CA         21.4198   57.8622   27.7593 C.3       1 GLC5        0.0000 
     52 CA         22.5540   56.9120   28.9370 C.3       3 GLL5        0.0000 
     53 CA         27.7767   56.7455   32.0262 C.3       1 GLC5        0.0000 
     54 CA         26.3230   55.7520   32.5080 C.3       3 GLL5        0.0000 
     55 CA         27.0607   57.8445   31.9080 C.3       1 GLC5        0.0000 
     56 CA         25.6490   56.6850   31.6510 C.3       3 GLL5        0.0000 
     57 CA         30.1430   50.0338   27.2790 C.3       1 GLC5        0.0000 
     58 CA         31.4340   50.4530   25.8400 C.3       2 GLP5        0.0000 
     59 CA         29.8747   47.9105   30.6002 C.3       1 GLC5        0.0000 
     60 CA         30.0730   46.0970   31.4560 C.3       2 GLP5        0.0000 
@<TRIPOS>BOND
@<TRIPOS>SUBSTRUCTURE
     1 GLC5        1 GROUP        1 X    GLC  0     ROOT GLC X 6
     2 GLP5        3 GROUP        1 Y    GLP  0     ROOT GLP Y 13
     3 GLL5        2 GROUP        1 Z    GLL  0     ROOT GLL Z 20
@<TRIPOS>SET

