#    Name: 1xvp_CID_1_ligand
#    Modification time : Tue Mar 25 10:43:37 2014

@<TRIPOS>MOLECULE
1xvp_CID_1_ligand
   39    42     1     0     0
SMALL
NO_CHARGES


@<TRIPOS>ATOM
      1 C20        23.1100   54.9390   27.4960 C.ar      1 CID1003     0.0000 
      2 C18        23.7860   54.3490   26.2780 C.3       1 CID1003     0.0000 
      3 O16        24.5780   53.2050   26.5990 O.3       1 CID1003     0.0000 
      4 N11        25.5470   53.2520   27.4750 N.2       1 CID1003     0.0000 
      5 C10        26.0520   52.1990   27.9500 C.2       1 CID1003     0.0000 
      6 C21        23.1520   56.3570   27.7490 C.ar      1 CID1003     0.0000 
      7 C23        22.5540   56.9120   28.9370 C.ar      1 CID1003     0.0000 
      8 CL26       22.6390   58.6510   29.2260 Cl        1 CID1003     0.0000 
      9 C25        21.8960   56.0370   29.8790 C.ar      1 CID1003     0.0000 
     10 CL27       21.1700   56.6690   31.3480 Cl        1 CID1003     0.0000 
     11 C24        21.8340   54.6270   29.6200 C.ar      1 CID1003     0.0000 
     12 C22        22.4390   54.0830   28.4410 C.ar      1 CID1003     0.0000 
     13 N5         28.0960   51.1740   29.0470 N.pl3     1 CID1003     0.0000 
     14 C9         28.8530   51.3960   30.1410 C.2       1 CID1003     0.0000 
     15 N4         28.5170   52.5370   30.7810 N.2       1 CID1003     0.0000 
     16 C1         27.5170   53.0910   30.0490 C.2       1 CID1003     0.0000 
     17 C2         27.1880   52.1960   28.9520 C.2       1 CID1003     0.0000 
     18 C3         26.9480   54.3380   30.5270 C.ar      1 CID1003     0.0000 
     19 C8         27.0020   54.6140   31.9470 C.ar      1 CID1003     0.0000 
     20 C13        26.3230   55.7520   32.5080 C.ar      1 CID1003     0.0000 
     21 C17        25.6490   56.6850   31.6510 C.ar      1 CID1003     0.0000 
     22 CL19       24.8120   58.0770   32.3310 Cl        1 CID1003     0.0000 
     23 C12        25.6710   56.4740   30.2310 C.ar      1 CID1003     0.0000 
     24 C7         26.2940   55.3040   29.6750 C.ar      1 CID1003     0.0000 
     25 C11        28.3500   49.9540   28.4050 C.2       1 CID1003     0.0000 
     26 S14        29.9990   50.1730   30.4580 S.3       1 CID1003     0.0000 
     27 C15        29.3540   49.2750   29.0310 C.2       1 CID1003     0.0000 
     28 H          24.4009   55.1447   25.8122 H         1 CID1003     0.0000 
     29 H          22.9977   54.0972   25.5408 H         1 CID1003     0.0000 
     30 H          25.7403   51.2171   27.7027 H         1 CID1003     0.0000 
     31 H          23.6090   56.9734   27.0815 H         1 CID1003     0.0000 
     32 H          21.3593   54.0135   30.2755 H         1 CID1003     0.0000 
     33 H          22.3963   53.0810   28.2656 H         1 CID1003     0.0000 
     34 H          27.5297   53.9909   32.5554 H         1 CID1003     0.0000 
     35 H          26.3218   55.8935   33.5123 H         1 CID1003     0.0000 
     36 H          25.2421   57.1581   29.6123 H         1 CID1003     0.0000 
     37 H          26.2758   55.1515   28.6692 H         1 CID1003     0.0000 
     38 H          27.8656   49.6519   27.6221 H         1 CID1003     0.0000 
     39 H          29.7979   48.4718   28.9214 H         1 CID1003     0.0000 
@<TRIPOS>BOND
     1    2    1 1    
     2    6    1 ar   
     3   12    1 ar   
     4    3    2 1    
     5   28    2 1    
     6   29    2 1    
     7    4    3 1    
     8    5    4 2    
     9   17    5 1    
    10   30    5 1    
    11    7    6 ar   
    12   31    6 1    
    13    8    7 1    
    14    9    7 ar   
    15   10    9 1    
    16   11    9 ar   
    17   12   11 ar   
    18   32   11 1    
    19   33   12 1    
    20   14   13 1    
    21   17   13 1    
    22   25   13 1    
    23   15   14 2    
    24   26   14 1    
    25   16   15 1    
    26   17   16 2    
    27   18   16 1    
    28   19   18 ar   
    29   24   18 ar   
    30   20   19 ar   
    31   34   19 1    
    32   21   20 ar   
    33   35   20 1    
    34   22   21 1    
    35   23   21 ar   
    36   24   23 ar   
    37   36   23 1    
    38   37   24 1    
    39   27   25 2    
    40   38   25 1    
    41   27   26 1    
    42   39   27 1    
@<TRIPOS>SUBSTRUCTURE
     1 CID1003     1 GROUP   
@<TRIPOS>SET

