#    Name: 4n3e_2AN_3_INTS_M
#    Modification time : Tue Mar 25 12:33:09 2014

@<TRIPOS>MOLECULE
4n3e_2AN_3_INTS_M
   46     0     3     0     0
SMALL
NO_CHARGES


@<TRIPOS>ATOM
      1 CA         53.2880   -5.1095   24.0590 C.3       1 GLC5        0.0000 
      2 CA         55.0440   -5.6510   23.3820 C.3       3 GLL5        0.0000 
      3 CA         51.5320   -4.5680   24.7360 C.3       2 GLP5        0.0000 
      4 CA         54.4505   -6.2050   25.9185 C.3       1 GLC5        0.0000 
      5 CA         55.3480   -4.9330   24.4970 C.3       3 GLL5        0.0000 
      6 CA         53.5530   -7.4770   27.3400 C.3       2 GLP5        0.0000 
      7 CA         59.9255   -1.3895   24.5470 C.3       1 GLC5        0.0000 
      8 CA         58.0110   -1.6600   24.2750 C.3       3 GLL5        0.0000 
      9 CA         61.8400   -1.1190   24.8190 C.3       2 GLP5        0.0000 
     10 CA         55.7675   -1.7865   22.8690 C.3       1 GLC5        0.0000 
     11 CA         57.7160   -2.3460   23.1370 C.3       3 GLL5        0.0000 
     12 CA         53.8190   -1.2270   22.6010 C.3       2 GLP5        0.0000 
     13 CA         59.0445   -5.1100   19.4080 C.3       1 GLC5        0.0000 
     14 CA         57.1170   -4.5660   18.4540 C.3       3 GLL5        0.0000 
     15 CA         60.9720   -5.6540   20.3620 C.3       2 GLP5        0.0000 
     16 CA         54.5550   -5.2295   15.3020 C.3       1 GLC5        0.0000 
     17 CA         55.1950   -5.4600   17.3280 C.3       3 GLL5        0.0000 
     18 CA         53.9150   -4.9990   13.2760 C.3       2 GLP5        0.0000 
     19 CA         56.9917   -6.3652   22.0905 C.3       1 GLC5        0.0000 
     20 CA         56.4690   -4.2510   22.0030 C.3       3 GLL5        0.0000 
     21 CA         57.9510   -7.9380   22.1170 C.3       2 GLP5        0.0000 
     22 CA         56.3135   -6.7750   24.2698 C.3       1 GLC5        0.0000 
     23 CA         57.4310   -8.2580   24.6000 C.3       2 GLP5        0.0000 
     24 CA         54.4695   -3.4478   25.7325 C.3       1 GLC5        0.0000 
     25 CA         52.7400   -3.1450   26.4450 C.3       2 GLP5        0.0000 
     26 CA         55.0090   -2.4888   23.8105 C.3       1 GLC5        0.0000 
     27 CA         56.1783   -0.6140   24.4215 C.3       1 GLC5        0.0000 
     28 CA         57.4180   -2.0260   25.4890 C.3       3 GLL5        0.0000 
     29 CA         54.6420    0.6150   23.9610 C.3       2 GLP5        0.0000 
     30 CA         55.2641   -2.9406   21.9162 C.3       1 GLC5        0.0000 
     31 CA         56.8280   -3.4980   23.1850 C.3       3 GLL5        0.0000 
     32 CA         54.0980   -1.7360   21.2080 C.3       2 GLP5        0.0000 
     33 CA         56.2710   -3.3655   16.8100 C.3       1 GLC5        0.0000 
     34 CA         55.7150   -1.8710   15.7230 C.3       2 GLP5        0.0000 
     35 CA         56.2860   -6.7500   15.9065 C.3       1 GLC5        0.0000 
     36 CA         56.5370   -5.1540   17.3400 C.3       3 GLL5        0.0000 
     37 CA         56.7060   -8.1930   14.4790 C.3       2 GLP5        0.0000 
     38 CA         55.2608   -3.5895   16.7963 C.3       1 GLC5        0.0000 
     39 CA         55.1280   -7.1633   18.3432 C.3       1 GLC5        0.0000 
     40 CA         55.1140   -9.0950   18.8140 C.3       2 GLP5        0.0000 
     41 CA         53.1363   -6.1205   19.4593 C.3       1 GLC5        0.0000 
     42 CA         54.4180   -5.1560   18.4110 C.3       3 GLL5        0.0000 
     43 CA         51.5580   -7.3750   19.9530 C.3       2 GLP5        0.0000 
     44 CA         52.9292   -4.2410   18.7598 C.3       1 GLC5        0.0000 
     45 CA         51.1440   -3.6160   18.5540 C.3       2 GLP5        0.0000 
     46 CA         54.5742   -3.2642   20.0919 C.3       1 GLC5        0.0000 
@<TRIPOS>BOND
@<TRIPOS>SUBSTRUCTURE
     1 GLC5        1 GROUP        1 X    GLC  0     ROOT GLC X 6
     2 GLP5        3 GROUP        1 Y    GLP  0     ROOT GLP Y 13
     3 GLL5        2 GROUP        1 Z    GLL  0     ROOT GLL Z 20
@<TRIPOS>SET

