#    Name: 4n3e_2AN_3_ligand
#    Modification time : Tue Mar 25 12:33:09 2014

@<TRIPOS>MOLECULE
4n3e_2AN_3_ligand
   33    35     1     0     0
SMALL
NO_CHARGES


@<TRIPOS>ATOM
      1 C1         56.4690   -4.2510   22.0030 C.ar      1 2AN203      0.0000 
      2 C2         55.5960   -5.3340   22.1250 C.ar      1 2AN203      0.0000 
      3 C3         55.0440   -5.6510   23.3820 C.ar      1 2AN203      0.0000 
      4 C4         55.3480   -4.9330   24.4970 C.ar      1 2AN203      0.0000 
      5 C5         56.2460   -3.8510   24.4270 C.ar      1 2AN203      0.0000 
      6 C6         56.6010   -3.1090   25.5780 C.ar      1 2AN203      0.0000 
      7 C7         57.4180   -2.0260   25.4890 C.ar      1 2AN203      0.0000 
      8 C8         58.0110   -1.6600   24.2750 C.ar      1 2AN203      0.0000 
      9 N          56.9290   -3.8250   20.7410 N.pl3     1 2AN203      0.0000 
     10 S          58.4560   -1.8630   21.6100 S.o2      1 2AN203      0.0000 
     11 C9         57.7160   -2.3460   23.1370 C.ar      1 2AN203      0.0000 
     12 C10        56.8280   -3.4980   23.1850 C.ar      1 2AN203      0.0000 
     13 C11        56.3550   -4.2820   19.5610 C.ar      1 2AN203      0.0000 
     14 C12        57.1170   -4.5660   18.4540 C.ar      1 2AN203      0.0000 
     15 C13        56.5370   -5.1540   17.3400 C.ar      1 2AN203      0.0000 
     16 C14        55.1950   -5.4600   17.3280 C.ar      1 2AN203      0.0000 
     17 C15        54.4180   -5.1560   18.4110 C.ar      1 2AN203      0.0000 
     18 C16        55.0110   -4.5760   19.5200 C.ar      1 2AN203      0.0000 
     19 O1         59.3330   -2.9380   21.1770 O.co2     1 2AN203      0.0000 
     20 O2         59.2460   -0.6500   21.8000 O.co2     1 2AN203      0.0000 
     21 O3         57.4290   -1.6280   20.5880 O.co2     1 2AN203      0.0000 
     22 H          55.3543   -5.8992   21.3073 H         1 2AN203      0.0000 
     23 H          54.3887   -6.4593   23.4374 H         1 2AN203      0.0000 
     24 H          54.9275   -5.1671   25.4122 H         1 2AN203      0.0000 
     25 H          56.2198   -3.4152   26.4923 H         1 2AN203      0.0000 
     26 H          57.6175   -1.4461   26.3304 H         1 2AN203      0.0000 
     27 H          58.6709   -0.8660   24.2608 H         1 2AN203      0.0000 
     28 H          57.7179   -3.1519   20.7007 H         1 2AN203      0.0000 
     29 H          58.1258   -4.3432   18.4455 H         1 2AN203      0.0000 
     30 H          57.1226   -5.3630   16.5120 H         1 2AN203      0.0000 
     31 H          54.7797   -5.9185   16.5001 H         1 2AN203      0.0000 
     32 H          53.4108   -5.3512   18.4102 H         1 2AN203      0.0000 
     33 H          54.4152   -4.3557   20.3514 H         1 2AN203      0.0000 
@<TRIPOS>BOND
     1    2    1 ar   
     2    9    1 1    
     3   12    1 ar   
     4    3    2 ar   
     5   22    2 1    
     6    4    3 ar   
     7   23    3 1    
     8    5    4 ar   
     9   24    4 1    
    10    6    5 ar   
    11   12    5 ar   
    12    7    6 ar   
    13   25    6 1    
    14    8    7 ar   
    15   26    7 1    
    16   11    8 ar   
    17   27    8 1    
    18   13    9 1    
    19   28    9 1    
    20   11   10 1    
    21   19   10 ar   
    22   20   10 ar   
    23   21   10 ar   
    24   12   11 ar   
    25   14   13 ar   
    26   18   13 ar   
    27   15   14 ar   
    28   29   14 1    
    29   16   15 ar   
    30   30   15 1    
    31   17   16 ar   
    32   31   16 1    
    33   18   17 ar   
    34   32   17 1    
    35   33   18 1    
@<TRIPOS>SUBSTRUCTURE
     1 2AN203      1 GROUP   
@<TRIPOS>SET

