#    Name: 2ops_HBQ_1_INTS_M
#    Modification time : Mon Mar 24 17:48:17 2014

@<TRIPOS>MOLECULE
2ops_HBQ_1_INTS_M
   61     0     9     0     0
SMALL
NO_CHARGES


@<TRIPOS>ATOM
      1 CA          1.0020  -34.6515   22.8515 C.3       3 GLC5        0.0000 
      2 CA          0.0660  -36.6510   23.1690 C.3       9 GLL5        0.0000 
      3 CA          1.9380  -32.6520   22.5340 C.3       6 GLP5        0.0000 
      4 CA         -4.6870  -32.0670   24.5870 C.3       3 GLC5        0.0000 
      5 CA         -4.1610  -33.9010   23.4840 C.3       9 GLL5        0.0000 
      6 CA         -5.2130  -30.2330   25.6900 C.3       6 GLP5        0.0000 
      7 CA         -6.1830  -34.1760   22.7975 C.3       3 GLC5        0.0000 
      8 CA         -8.2050  -34.4510   22.1110 C.3       6 GLP5        0.0000 
      9 CA         -1.3320  -33.1080   24.0785 C.3       3 GLC5        0.0000 
     10 CA         -2.4490  -34.5650   25.0710 C.3       9 GLL5        0.0000 
     11 CA         -0.2150  -31.6510   23.0860 C.3       6 GLP5        0.0000 
     12 CA         -2.0200  -35.7545   26.5950 C.3       3 GLC5        0.0000 
     13 CA         -1.5910  -36.9440   28.1190 C.3       6 GLP5        0.0000 
     14 CA         -1.9530  -38.6605   21.6820 C.3       3 GLC5        0.0000 
     15 CA         -0.6700  -37.9680   23.3870 C.3       9 GLL5        0.0000 
     16 CA         -3.2360  -39.3530   19.9770 C.3       6 GLP5        0.0000 
     17 CA         -2.4800  -37.8320   24.6565 C.3       3 GLC5        0.0000 
     18 CA         -4.2900  -37.6960   25.9260 C.3       6 GLP5        0.0000 
     19 CA         -0.8395  -37.8555   26.3045 C.3       3 GLC5        0.0000 
     20 CA         -0.0880  -38.7670   24.4900 C.3       9 GLL5        0.0000 
     21 CA         -0.8100  -40.2785   25.9165 C.3       3 GLC5        0.0000 
     22 CA         -1.5320  -41.7900   27.3430 C.3       6 GLP5        0.0000 
     23 CA          2.2790  -34.7025   28.0140 C.3       3 GLC5        0.0000 
     24 CA          1.0300  -33.7400   27.0120 C.3       9 GLL5        0.0000 
     25 CA          3.5280  -35.6650   29.0160 C.3       6 GLP5        0.0000 
     26 CA          0.3720  -31.2220   28.5120 C.3       3 GLC5        0.0000 
     27 CA         -0.0610  -33.0620   27.8550 C.3       9 GLL5        0.0000 
     28 CA          0.8050  -29.3820   29.1690 C.3       6 GLP5        0.0000 
     29 CA         -1.4265  -31.8460   27.0225 C.3       3 GLC5        0.0000 
     30 CA         -2.7920  -30.6300   26.1900 C.3       6 GLP5        0.0000 
     31 CA          3.6515  -32.1525   26.3275 C.3       3 GLC5        0.0000 
     32 CA          1.9870  -32.7000   26.7770 C.3       9 GLL5        0.0000 
     33 CA          5.3160  -31.6050   25.8780 C.3       6 GLP5        0.0000 
     34 CA          1.9625  -32.6760   24.6555 C.3       3 GLC5        0.0000 
     35 CA          3.0395  -33.6060   28.1630 C.3       3 GLC5        0.0000 
     36 CA          4.0920  -34.5120   29.5490 C.3       6 GLP5        0.0000 
     37 CA          2.6745  -31.1065   27.4105 C.3       3 GLC5        0.0000 
     38 CA          3.3620  -29.5130   28.0440 C.3       6 GLP5        0.0000 
     39 CA         -5.2820  -33.7335   27.2680 C.3       3 GLC5        0.0000 
     40 CA         -4.4540  -33.5960   25.8030 C.3       9 GLL5        0.0000 
     41 CA         -6.1100  -33.8710   28.7330 C.3       6 GLP5        0.0000 
     42 O          -1.8365  -35.2645   20.3220 O.2       1 ALC1        0.0000 
     43 O          -1.2620  -35.3310   21.6060 O.2       7 ALL1        0.0000 
     44 O          -2.4110  -35.1980   19.0380 O.2       4 ALP1        0.0000 
     45 N           0.2590  -35.2905   19.6080 N.am      2 SEC2        0.0000 
     46 N           0.5190  -36.5000   20.8200 N.am      8 SEL2        0.0000 
     47 N          -0.0010  -34.0810   18.3960 N.am      5 SEP2        0.0000 
     48 CA         -3.1638  -36.2415   25.2342 C.3       3 GLC5        0.0000 
     49 CA         -1.6260  -35.0090   24.0140 C.3       9 GLL5        0.0000 
     50 CA         -1.4119  -33.1478   22.9764 C.3       3 GLC5        0.0000 
     51 CA         -4.6982  -35.8443   23.3745 C.3       3 GLC5        0.0000 
     52 CA         -3.3580  -34.3380   22.3960 C.3       9 GLL5        0.0000 
     53 CA         -5.6370  -37.5690   23.8090 C.3       6 GLP5        0.0000 
     54 CA         -4.1770  -35.7542   25.6073 C.3       3 GLC5        0.0000 
     55 CA         -3.6740  -34.0290   24.7740 C.3       9 GLL5        0.0000 
     56 CA         -1.6360  -39.7848   23.8908 C.3       3 GLC5        0.0000 
     57 CA         -2.8930  -41.2020   23.8430 C.3       6 GLP5        0.0000 
     58 CA          1.2295  -39.1391   23.2250 C.3       3 GLC5        0.0000 
     59 CA          2.6540  -40.2400   22.5660 C.3       6 GLP5        0.0000 
     60 CA         -0.5533  -35.1725   27.7763 C.3       3 GLC5        0.0000 
     61 CA         -3.2749  -32.2882   25.7764 C.3       3 GLC5        0.0000 
@<TRIPOS>BOND
@<TRIPOS>SUBSTRUCTURE
     1 ALC1       42 GROUP        1 X    ALC  0     ROOT ALC X 1
     2 SEC2       45 GROUP        1 X    SEC  0     **** SEC X 2
     3 GLC5        1 GROUP        1 X    GLC  0     **** GLC X 6
     4 ALP1       44 GROUP        1 Y    ALP  0     ROOT ALP Y 8
     5 SEP2       47 GROUP        1 Y    SEP  0     **** SEP Y 9
     6 GLP5        3 GROUP        1 Y    GLP  0     **** GLP Y 13
     7 ALL1       43 GROUP        1 Z    ALL  0     ROOT ALL Z 15
     8 SEL2       46 GROUP        1 Z    SEL  0     **** SEL Z 16
     9 GLL5        2 GROUP        1 Z    GLL  0     **** GLL Z 20
@<TRIPOS>SET

