#    Name: 2ops_HBQ_1_ligand
#    Modification time : Mon Mar 24 17:48:17 2014

@<TRIPOS>MOLECULE
2ops_HBQ_1_ligand
   37    38     1     0     0
SMALL
NO_CHARGES


@<TRIPOS>ATOM
      1 C1         -0.1990  -36.1590   21.7470 C.2       1 HBQ999      0.0000 
      2 C2          0.0660  -36.6510   23.1690 C.3       1 HBQ999      0.0000 
      3 C3         -1.6260  -35.0090   24.0140 C.ar      1 HBQ999      0.0000 
      4 C4         -2.0930  -34.8930   22.6610 C.ar      1 HBQ999      0.0000 
      5 C5         -3.3580  -34.3380   22.3960 C.ar      1 HBQ999      0.0000 
      6 C6         -4.1610  -33.9010   23.4840 C.ar      1 HBQ999      0.0000 
      7 C7         -3.6740  -34.0290   24.7740 C.ar      1 HBQ999      0.0000 
      8 C8         -2.4490  -34.5650   25.0710 C.ar      1 HBQ999      0.0000 
      9 C9         -0.6700  -37.9680   23.3870 C.3       1 HBQ999      0.0000 
     10 C10        -0.0880  -38.7670   24.4900 C.3       1 HBQ999      0.0000 
     11 C11         0.6860  -35.1240   25.1010 C.2       1 HBQ999      0.0000 
     12 C12         1.0300  -33.7400   27.0120 C.3       1 HBQ999      0.0000 
     13 C13        -0.0610  -33.0620   27.8550 C.3       1 HBQ999      0.0000 
     14 C14         1.9870  -32.7000   26.7770 C.3       1 HBQ999      0.0000 
     15 F1         -4.4540  -33.5960   25.8030 F         1 HBQ999      0.0000 
     16 N1         -0.3030  -35.6040   24.1940 N.am      1 HBQ999      0.0000 
     17 N2         -1.2620  -35.3310   21.6060 N.am      1 HBQ999      0.0000 
     18 O1          0.5190  -36.5000   20.8200 O.2       1 HBQ999      0.0000 
     19 O2          0.2990  -34.0410   25.7960 O.3       1 HBQ999      0.0000 
     20 O3          1.7710  -35.7100   25.2040 O.2       1 HBQ999      0.0000 
     21 H           1.1412  -36.8549   23.2468 H         1 HBQ999      0.0000 
     22 H          -3.6978  -34.2482   21.4452 H         1 HBQ999      0.0000 
     23 H          -5.0790  -33.5017   23.3004 H         1 HBQ999      0.0000 
     24 H          -2.1200  -34.6501   26.0331 H         1 HBQ999      0.0000 
     25 H          -0.6417  -38.5420   22.4472 H         1 HBQ999      0.0000 
     26 H          -1.7279  -37.7446   23.5980 H         1 HBQ999      0.0000 
     27 H           1.3739  -34.5546   27.5020 H         1 HBQ999      0.0000 
     28 H          -1.5090  -34.9699   20.6339 H         1 HBQ999      0.0000 
     29 H           0.8682  -39.0013   24.3144 H         1 HBQ999      0.0000 
     30 H          -0.1140  -38.2739   25.3596 H         1 HBQ999      0.0000 
     31 H          -0.5803  -39.6268   24.6257 H         1 HBQ999      0.0000 
     32 H           0.3016  -32.7097   28.7178 H         1 HBQ999      0.0000 
     33 H          -0.4755  -32.2894   27.3740 H         1 HBQ999      0.0000 
     34 H          -0.8002  -33.6952   28.0845 H         1 HBQ999      0.0000 
     35 H           2.4914  -32.4648   27.6078 H         1 HBQ999      0.0000 
     36 H           2.6626  -32.9655   26.0892 H         1 HBQ999      0.0000 
     37 H           1.5512  -31.8610   26.4512 H         1 HBQ999      0.0000 
@<TRIPOS>BOND
     1    2    1 1    
     2   17    1 am   
     3   18    1 2    
     4    9    2 1    
     5   16    2 1    
     6   21    2 1    
     7    4    3 ar   
     8    8    3 ar   
     9   16    3 1    
    10    5    4 ar   
    11   17    4 1    
    12    6    5 ar   
    13   22    5 1    
    14    7    6 ar   
    15   23    6 1    
    16    8    7 ar   
    17   15    7 1    
    18   24    8 1    
    19   10    9 1    
    20   25    9 1    
    21   26    9 1    
    22   29   10 1    
    23   30   10 1    
    24   31   10 1    
    25   16   11 am   
    26   19   11 1    
    27   20   11 2    
    28   13   12 1    
    29   14   12 1    
    30   19   12 1    
    31   27   12 1    
    32   32   13 1    
    33   33   13 1    
    34   34   13 1    
    35   35   14 1    
    36   36   14 1    
    37   37   14 1    
    38   28   17 1    
@<TRIPOS>SUBSTRUCTURE
     1 HBQ999      1 GROUP   
@<TRIPOS>SET

