#    Name: 4ehv_0SJ_1_INTS_M
#    Modification time : Mon Mar 24 17:51:48 2014

@<TRIPOS>MOLECULE
4ehv_0SJ_1_INTS_M
   46     0     6     0     0
SMALL
NO_CHARGES


@<TRIPOS>ATOM
      1 N          -0.5405  -12.1760   10.6070 N.am      1 SEC2        0.0000 
      2 N          -0.7810  -11.3950   11.9250 N.am      5 SEL2        0.0000 
      3 N          -0.3000  -12.9570    9.2890 N.am      3 SEP2        0.0000 
      4 CA          1.5385  -11.1180   12.5850 C.3       2 GLC5        0.0000 
      5 CA          0.4520   -9.6660   12.7670 C.3       6 GLL5        0.0000 
      6 CA          2.6250  -12.5700   12.4030 C.3       4 GLP5        0.0000 
      7 CA         -0.2960   -9.9685   10.7055 C.3       2 GLC5        0.0000 
      8 CA         -1.0440  -10.2710    8.6440 C.3       4 GLP5        0.0000 
      9 CA         -6.9110   -9.5060   12.7680 C.3       2 GLC5        0.0000 
     10 CA         -4.8260   -9.4360   13.2090 C.3       6 GLL5        0.0000 
     11 CA         -8.9960   -9.5760   12.3270 C.3       4 GLP5        0.0000 
     12 CA         -5.5370   -9.2730   16.1840 C.3       2 GLC5        0.0000 
     13 CA         -3.7580   -9.9720   15.4550 C.3       6 GLL5        0.0000 
     14 CA         -7.3160   -8.5740   16.9130 C.3       4 GLP5        0.0000 
     15 CA         -5.4920   -8.1050   15.7580 C.3       2 GLC5        0.0000 
     16 CA         -3.6680   -7.6360   14.6030 C.3       6 GLL5        0.0000 
     17 CA         -5.7545   -4.6545   12.8780 C.3       2 GLC5        0.0000 
     18 CA         -3.8990   -5.1080   12.0220 C.3       6 GLL5        0.0000 
     19 CA         -7.6100   -4.2010   13.7340 C.3       4 GLP5        0.0000 
     20 CA          0.6835   -1.3100   12.1485 C.3       2 GLC5        0.0000 
     21 CA         -1.1950   -2.1570   11.7510 C.3       6 GLL5        0.0000 
     22 CA          2.5620   -0.4630   12.5460 C.3       4 GLP5        0.0000 
     23 CA         -1.4140   -0.4850   10.4230 C.3       2 GLC5        0.0000 
     24 CA         -1.6330    1.1870    9.0950 C.3       4 GLP5        0.0000 
     25 CA         -0.6640   -0.5955   13.2165 C.3       2 GLC5        0.0000 
     26 CA         -0.1330    0.9660   14.6820 C.3       4 GLP5        0.0000 
     27 CA         -0.4310   -2.8320   13.3405 C.3       2 GLC5        0.0000 
     28 CA          0.3330   -3.5070   14.9300 C.3       4 GLP5        0.0000 
     29 CA          2.1778   -8.2300   12.3012 C.3       2 GLC5        0.0000 
     30 CA          0.5230   -8.5960   13.6560 C.3       6 GLL5        0.0000 
     31 CA          3.8680   -7.3290   11.3910 C.3       4 GLP5        0.0000 
     32 CA         -1.6350  -10.0800   16.1313 C.3       2 GLC5        0.0000 
     33 CA         -2.8240   -8.7600   15.2500 C.3       6 GLL5        0.0000 
     34 CA          0.0210  -10.7940   16.9100 C.3       4 GLP5        0.0000 
     35 CA         -2.5269   -5.4346   10.2643 C.3       2 GLC5        0.0000 
     36 CA         -3.1100   -6.2630   12.0540 C.3       6 GLL5        0.0000 
     37 CA         -1.6400   -6.1070    8.5400 C.3       4 GLP5        0.0000 
     38 CA         -1.8602   -3.6195   13.7105 C.3       2 GLC5        0.0000 
     39 CA         -1.9340   -3.7230   11.8670 C.3       6 GLL5        0.0000 
     40 CA         -1.0920   -3.4580   15.5180 C.3       4 GLP5        0.0000 
     41 CA         -0.9267   -3.4725   10.0115 C.3       2 GLC5        0.0000 
     42 CA         -0.2890   -4.0050    8.2140 C.3       4 GLP5        0.0000 
     43 CA         -1.5345   -5.8060   10.2320 C.3       2 GLC5        0.0000 
     44 CA         -1.1380   -4.8700   11.8840 C.3       6 GLL5        0.0000 
     45 CA         -0.5480   -4.5060   13.4270 C.3       2 GLC5        0.0000 
     46 CA         -1.7200   -6.1400   11.9640 C.3       6 GLL5        0.0000 
@<TRIPOS>BOND
@<TRIPOS>SUBSTRUCTURE
     1 SEC2        1 GROUP        1 X    SEC  0     ROOT SEC X 2
     2 GLC5        4 GROUP        1 X    GLC  0     **** GLC X 6
     3 SEP2        3 GROUP        1 Y    SEP  0     ROOT SEP Y 9
     4 GLP5        6 GROUP        1 Y    GLP  0     **** GLP Y 13
     5 SEL2        2 GROUP        1 Z    SEL  0     ROOT SEL Z 16
     6 GLL5        5 GROUP        1 Z    GLL  0     **** GLL Z 20
@<TRIPOS>SET

