#    Name: 4ehv_0SJ_1_ligand
#    Modification time : Mon Mar 24 17:51:48 2014

@<TRIPOS>MOLECULE
4ehv_0SJ_1_ligand
   40    43     1     0     0
SMALL
NO_CHARGES


@<TRIPOS>ATOM
      1 OAB        -0.7810  -11.3950   11.9250 O.2       1 0SJ401      0.0000 
      2 CAU        -0.7130  -10.4360   12.7100 C.2       1 0SJ401      0.0000 
      3 CAL         0.4520   -9.6660   12.7670 C.2       1 0SJ401      0.0000 
      4 CAF         0.5230   -8.5960   13.6560 C.2       1 0SJ401      0.0000 
      5 CAG        -0.5740   -8.3140   14.4670 C.2       1 0SJ401      0.0000 
      6 CAT        -1.7290   -9.1040   14.3960 C.2       1 0SJ401      0.0000 
      7 NAY        -1.7690  -10.1460   13.5070 N.am      1 0SJ401      0.0000 
      8 CAP        -2.9550  -11.0480   13.3660 C.3       1 0SJ401      0.0000 
      9 CAV        -4.1840  -10.5230   14.0790 C.3       1 0SJ401      0.0000 
     10 CAN        -4.8260   -9.4360   13.2090 C.3       1 0SJ401      0.0000 
     11 CAM        -3.7580   -9.9720   15.4550 C.3       1 0SJ401      0.0000 
     12 CAW        -2.8240   -8.7600   15.2500 C.3       1 0SJ401      0.0000 
     13 CAO        -3.6680   -7.6360   14.6030 C.3       1 0SJ401      0.0000 
     14 NAX        -4.0870   -8.1280   13.2610 N.am      1 0SJ401      0.0000 
     15 CAQ        -3.7520   -7.5100   12.1020 C.2       1 0SJ401      0.0000 
     16 OAA        -4.0760   -7.9970   11.0140 O.2       1 0SJ401      0.0000 
     17 CAR        -3.1100   -6.2630   12.0540 C.ar      1 0SJ401      0.0000 
     18 CAH        -3.8990   -5.1080   12.0220 C.ar      1 0SJ401      0.0000 
     19 CAJ        -3.3230   -3.8390   11.9390 C.ar      1 0SJ401      0.0000 
     20 CAS        -1.9340   -3.7230   11.8670 C.ar      1 0SJ401      0.0000 
     21 CL1        -1.1950   -2.1570   11.7510 Cl        1 0SJ401      0.0000 
     22 CAK        -1.1380   -4.8700   11.8840 C.ar      1 0SJ401      0.0000 
     23 CAI        -1.7200   -6.1400   11.9640 C.ar      1 0SJ401      0.0000 
     24 H           1.2448   -9.8881   12.1600 H         1 0SJ401      0.0000 
     25 H           1.3684   -8.0255   13.7126 H         1 0SJ401      0.0000 
     26 H          -0.5394   -7.5222   15.1228 H         1 0SJ401      0.0000 
     27 H          -2.7098  -12.0456   13.7668 H         1 0SJ401      0.0000 
     28 H          -3.1928  -11.1808   12.2975 H         1 0SJ401      0.0000 
     29 H          -4.8767  -11.3219   14.2196 H         1 0SJ401      0.0000 
     30 H          -5.8641   -9.2889   13.5434 H         1 0SJ401      0.0000 
     31 H          -4.8660   -9.7982   12.1706 H         1 0SJ401      0.0000 
     32 H          -3.2305  -10.7396   15.9990 H         1 0SJ401      0.0000 
     33 H          -4.6340   -9.6578   16.0003 H         1 0SJ401      0.0000 
     34 H          -2.5063   -8.4188   16.2112 H         1 0SJ401      0.0000 
     35 H          -3.0557   -6.7572   14.5145 H         1 0SJ401      0.0000 
     36 H          -4.5233   -7.4494   15.2265 H         1 0SJ401      0.0000 
     37 H          -4.9293   -5.1975   12.0607 H         1 0SJ401      0.0000 
     38 H          -3.9120   -3.0044   11.9311 H         1 0SJ401      0.0000 
     39 H          -0.1127   -4.7819   11.8373 H         1 0SJ401      0.0000 
     40 H          -1.1293   -6.9766   11.9566 H         1 0SJ401      0.0000 
@<TRIPOS>BOND
     1    2    1 2    
     2    3    2 1    
     3    7    2 am   
     4    4    3 2    
     5   24    3 1    
     6    5    4 1    
     7   25    4 1    
     8    6    5 2    
     9   26    5 1    
    10    7    6 1    
    11   12    6 1    
    12    8    7 1    
    13    9    8 1    
    14   27    8 1    
    15   28    8 1    
    16   10    9 1    
    17   11    9 1    
    18   29    9 1    
    19   14   10 1    
    20   30   10 1    
    21   31   10 1    
    22   12   11 1    
    23   32   11 1    
    24   33   11 1    
    25   13   12 1    
    26   34   12 1    
    27   14   13 1    
    28   35   13 1    
    29   36   13 1    
    30   15   14 am   
    31   16   15 2    
    32   17   15 1    
    33   18   17 ar   
    34   23   17 ar   
    35   19   18 ar   
    36   37   18 1    
    37   20   19 ar   
    38   38   19 1    
    39   21   20 1    
    40   22   20 ar   
    41   23   22 ar   
    42   39   22 1    
    43   40   23 1    
@<TRIPOS>SUBSTRUCTURE
     1 0SJ401      1 GROUP   
@<TRIPOS>SET

