#    Name: 2CIC_1_CAVITY_N1_6.mol2
#    Modification time : Tue Mar 11 07:17:36 2014

@<TRIPOS>MOLECULE
2CIC_1_CAVITY_N1_6.mol2
  126     0     7     0     0
SMALL
NO_CHARGES


@<TRIPOS>ATOM
      1 CA         33.1774   56.6312   17.8001 C.3       6 GLY6        0.0000 
      2 CA         33.2154   57.9988   17.1853 C.3       6 GLY6        0.0000 
      3 CA         33.7880   54.6940   17.1882 C.3       6 GLY6        0.0000 
      4 DU         33.8260   56.0616   16.5733 H         7 CUB7        0.0000 
      5 DU         33.8640   57.4293   15.9585 H         7 CUB7        0.0000 
      6 O          34.4365   54.1244   15.9614 O.2       2 ALA2        0.0000 
      7 CZ         35.0851   53.5549   14.7346 C.ar      5 PHE5        0.0000 
      8 DU         35.1231   54.9226   14.1197 H         7 CUB7        0.0000 
      9 CZ         35.7336   52.9854   13.5078 C.ar      5 PHE5        0.0000 
     10 CA         31.2149   58.3336   17.8063 C.3       6 GLY6        0.0000 
     11 CA         31.2529   59.7013   17.1915 C.3       6 GLY6        0.0000 
     12 N          31.8254   56.3964   17.1944 N.2       2 ALA2        0.0000 
     13 N          31.8634   57.7641   16.5795 N.2       2 ALA2        0.0000 
     14 N          31.9014   59.1318   15.9647 N.2       2 ALA2        0.0000 
     15 CA         32.4359   54.4592   16.5824 C.3       6 GLY6        0.0000 
     16 DU         32.4740   55.8269   15.9676 H         7 CUB7        0.0000 
     17 DU         32.5120   57.1946   15.3527 H         7 CUB7        0.0000 
     18 DU         32.5500   58.5622   14.7379 H         7 CUB7        0.0000 
     19 O          33.0845   53.8897   15.3556 O.2       2 ALA2        0.0000 
     20 DU         33.1225   55.2574   14.7408 H         7 CUB7        0.0000 
     21 DU         33.1985   57.9927   13.5111 H         7 CUB7        0.0000 
     22 CZ         33.7330   53.3202   14.1288 C.ar      5 PHE5        0.0000 
     23 DU         33.7710   54.6878   13.5140 H         7 CUB7        0.0000 
     24 CZ         34.3816   52.7506   12.9020 C.ar      5 PHE5        0.0000 
     25 CZ         34.4196   54.1183   12.2872 C.ar      5 PHE5        0.0000 
     26 CA         29.8629   58.0989   17.2006 C.3       6 GLY6        0.0000 
     27 N          30.4734   56.1617   16.5886 N.2       2 ALA2        0.0000 
     28 N          30.5114   57.5294   15.9738 N.2       2 ALA2        0.0000 
     29 CA         30.5494   58.8970   15.3590 C.3       6 GLY6        0.0000 
     30 CA         31.0839   54.2245   15.9766 C.3       6 GLY6        0.0000 
     31 DU         31.1219   55.5922   15.3618 H         7 CUB7        0.0000 
     32 DU         31.1600   56.9598   14.7470 H         7 CUB7        0.0000 
     33 CA         31.1980   58.3275   14.1322 C.3       6 GLY6        0.0000 
     34 CA         31.2360   59.6952   13.5173 C.3       6 GLY6        0.0000 
     35 CA         31.6945   52.2873   15.3647 C.3       6 GLY6        0.0000 
     36 CA         31.7325   53.6550   14.7498 C.3       6 GLY6        0.0000 
     37 DU         31.7705   55.0226   14.1350 H         7 CUB7        0.0000 
     38 DU         31.8085   56.3903   13.5202 H         7 CUB7        0.0000 
     39 CA         31.8465   57.7580   12.9054 C.3       6 GLY6        0.0000 
     40 CA         31.8845   59.1257   12.2905 C.3       6 GLY6        0.0000 
     41 O          32.3050   50.3501   14.7527 O.2       2 ALA2        0.0000 
     42 O          32.3430   51.7178   14.1379 O.2       2 ALA2        0.0000 
     43 DU         32.3810   53.0854   13.5231 H         7 CUB7        0.0000 
     44 DU         32.4570   55.8208   12.2934 H         7 CUB7        0.0000 
     45 DU         32.4951   57.1885   11.6786 H         7 CUB7        0.0000 
     46 CZ         32.9916   51.1482   12.9111 C.ar      5 PHE5        0.0000 
     47 CZ         33.0296   52.5159   12.2963 C.ar      5 PHE5        0.0000 
     48 DU         33.0676   53.8836   11.6814 H         7 CUB7        0.0000 
     49 DU         33.1056   55.2513   11.0666 H         7 CUB7        0.0000 
     50 CZ         33.6781   51.9464   11.0695 C.ar      5 PHE5        0.0000 
     51 CZ         33.7161   53.3141   10.4546 C.ar      5 PHE5        0.0000 
     52 O          29.0834   54.5593   16.5977 O.2       2 ALA2        0.0000 
     53 CZ         29.1214   55.9269   15.9829 C.ar      5 PHE5        0.0000 
     54 CZ         29.1594   57.2946   15.3680 C.ar      5 PHE5        0.0000 
     55 CA         29.6939   52.6221   15.9857 C.3       6 GLY6        0.0000 
     56 CA         29.7319   53.9897   15.3709 C.3       6 GLY6        0.0000 
     57 DU         29.7699   55.3574   14.7561 H         7 CUB7        0.0000 
     58 CA         29.8079   56.7251   14.1412 C.3       6 GLY6        0.0000 
     59 OG         30.3044   50.6849   15.3737 O.2       1 SER1        0.0000 
     60 CA         30.3424   52.0525   14.7589 C.3       6 GLY6        0.0000 
     61 DU         30.3805   53.4202   14.1441 H         7 CUB7        0.0000 
     62 CZ         30.4185   54.7879   13.5293 C.ar      5 PHE5        0.0000 
     63 CZ         30.4565   56.1556   12.9144 C.ar      5 PHE5        0.0000 
     64 N          30.9530   50.1153   14.1470 N.2       2 ALA2        0.0000 
     65 DU         30.9910   51.4830   13.5321 H         7 CUB7        0.0000 
     66 DU         31.0290   52.8507   12.9173 H         7 CUB7        0.0000 
     67 CZ         31.0670   54.2184   12.3025 C.ar      5 PHE5        0.0000 
     68 CZ         31.1050   55.5860   11.6876 C.ar      5 PHE5        0.0000 
     69 CA         31.1430   56.9537   11.0728 C.3       6 GLY6        0.0000 
     70 N          31.6015   49.5458   12.9202 N.2       2 ALA2        0.0000 
     71 N          31.6395   50.9135   12.3053 N.2       2 ALA2        0.0000 
     72 DU         31.6775   52.2812   11.6905 H         7 CUB7        0.0000 
     73 CZ         31.7156   53.6488   11.0757 C.ar      5 PHE5        0.0000 
     74 CZ         31.7536   55.0165   10.4608 C.ar      5 PHE5        0.0000 
     75 O          32.2881   50.3440   11.0785 O.2       2 ALA2        0.0000 
     76 O          32.3261   51.7116   10.4637 O.2       2 ALA2        0.0000 
     77 OD1        32.3641   53.0793    9.8489 O.3       3 ASP3        0.0000 
     78 OD1        32.4021   54.4470    9.2340 O.3       3 ASP3        0.0000 
     79 O          32.9746   51.1421    9.2369 O.2       2 ALA2        0.0000 
     80 OD1        33.0126   52.5098    8.6221 O.3       3 ASP3        0.0000 
     81 O          33.6232   50.5726    8.0101 O.2       2 ALA2        0.0000 
     82 OD1        33.6612   51.9403    7.3953 O.3       3 ASP3        0.0000 
     83 N          27.7314   54.3245   15.9919 N.2       2 ALA2        0.0000 
     84 N          28.3419   52.3873   15.3800 N.2       2 ALA2        0.0000 
     85 N          28.3799   53.7550   14.7651 N.2       2 ALA2        0.0000 
     86 CZ         28.4179   55.1227   14.1503 C.ar      5 PHE5        0.0000 
     87 CZ         28.4559   56.4903   13.5355 C.ar      5 PHE5        0.0000 
     88 CA         28.9524   50.4501   14.7680 C.3       6 GLY6        0.0000 
     89 DU         28.9904   51.8178   14.1532 H         7 CUB7        0.0000 
     90 CZ         29.0284   53.1855   13.5383 C.ar      5 PHE5        0.0000 
     91 N          29.6010   49.8806   13.5412 N.2       2 ALA2        0.0000 
     92 N          29.6390   51.2483   12.9264 N.2       2 ALA2        0.0000 
     93 CZ         29.6770   52.6159   12.3115 C.ar      5 PHE5        0.0000 
     94 N          30.2875   50.6787   11.6996 N.2       2 ALA2        0.0000 
     95 CZ         30.3255   52.0464   11.0847 C.ar      5 PHE5        0.0000 
     96 CZ         30.3635   53.4141   10.4699 C.ar      5 PHE5        0.0000 
     97 N          30.9361   50.1092   10.4728 N.2       2 ALA2        0.0000 
     98 DU         30.9741   51.4769    9.8579 H         7 CUB7        0.0000 
     99 CZ         31.0121   52.8446    9.2431 C.ar      5 PHE5        0.0000 
    100 CZ         31.0501   54.2122    8.6283 C.ar      5 PHE5        0.0000 
    101 O          31.6226   50.9074    8.6311 O.2       2 ALA2        0.0000 
    102 OD1        32.2712   50.3378    7.4043 O.3       3 ASP3        0.0000 
    103 OD1        32.9197   49.7683    6.1775 O.3       3 ASP3        0.0000 
    104 N          26.9899   52.1526   14.7742 N.2       2 ALA2        0.0000 
    105 N          27.0279   53.5203   14.1594 N.2       2 ALA2        0.0000 
    106 CZ         27.0659   54.8879   13.5445 C.ar      5 PHE5        0.0000 
    107 CA         27.6384   51.5831   13.5474 C.3       6 GLY6        0.0000 
    108 CZ         27.6764   52.9507   12.9326 C.ar      5 PHE5        0.0000 
    109 O          28.2870   51.0135   12.3206 O.2       2 ALA2        0.0000 
    110 CZ         28.3250   52.3812   11.7058 C.ar      5 PHE5        0.0000 
    111 O          28.9355   50.4440   11.0938 O.2       2 ALA2        0.0000 
    112 CZ         28.9735   51.8117   10.4790 C.ar      5 PHE5        0.0000 
    113 N          29.5840   49.8745    9.8670 N.2       2 ALA2        0.0000 
    114 NZ         29.6221   51.2422    9.2522 N.2       4 LYS4        0.0000 
    115 CZ         29.6601   52.6098    8.6373 C.ar      5 PHE5        0.0000 
    116 CA         30.2326   49.3050    8.6402 C.3       6 GLY6        0.0000 
    117 NZ         30.2706   50.6726    8.0254 N.2       4 LYS4        0.0000 
    118 NZ         30.3086   52.0403    7.4105 N.2       4 LYS4        0.0000 
    119 CA         26.2864   51.3483   12.9416 C.3       6 GLY6        0.0000 
    120 CA         26.3244   52.7160   12.3268 C.3       6 GLY6        0.0000 
    121 CA         26.9349   50.7788   11.7148 C.3       6 GLY6        0.0000 
    122 CA         26.9730   52.1465   11.1000 C.3       6 GLY6        0.0000 
    123 O          27.5835   50.2093   10.4880 O.2       2 ALA2        0.0000 
    124 CZ         27.6215   51.5769    9.8732 C.ar      5 PHE5        0.0000 
    125 NZ         28.2320   49.6397    9.2612 N.2       4 LYS4        0.0000 
    126 NZ         28.2700   51.0074    8.6464 N.2       4 LYS4        0.0000 
@<TRIPOS>BOND
@<TRIPOS>SUBSTRUCTURE
     1 SER1       59 GROUP   
     2 ALA2        6 GROUP   
     3 ASP3       77 GROUP   
     4 LYS4      114 GROUP   
     5 PHE5        7 GROUP   
     6 GLY6        1 GROUP   
     7 CUB7        4 GROUP   
@<TRIPOS>SET

