#    Name: 2cic_DUP_1_INTS_M
#    Modification time : Mon Mar 24 23:51:36 2014

@<TRIPOS>MOLECULE
2cic_DUP_1_INTS_M
   64     0    15     0     0
SMALL
NO_CHARGES


@<TRIPOS>ATOM
      1 N          28.1315   55.1765   17.7280 N.am      2 SEC2        0.0000 
      2 N          28.3460   54.8390   16.3030 N.am     12 SEL2        0.0000 
      3 N          27.9170   55.5140   19.1530 N.am      7 SEP2        0.0000 
      4 CA         30.2645   53.4020   16.3755 C.3       5 GLC5        0.0000 
      5 CA         29.5190   54.0780   14.4780 C.3      15 GLL5        0.0000 
      6 CA         31.0100   52.7260   18.2730 C.3      10 GLP5        0.0000 
      7 O          26.3110   53.1735   16.0330 O.2       1 ALC1        0.0000 
      8 O          27.3470   53.2060   15.0010 O.2      11 ALL1        0.0000 
      9 O          25.2750   53.1410   17.0650 O.2       6 ALP1        0.0000 
     10 N          25.1410   51.8090   14.2360 N.am      2 SEC2        0.0000 
     11 N          26.4720   51.6290   13.6640 N.am     12 SEL2        0.0000 
     12 N          23.8100   51.9890   14.8080 N.am      7 SEP2        0.0000 
     13 CA         26.6380   50.3310   11.9585 C.3       5 GLC5        0.0000 
     14 CA         28.5980   51.4070   12.0250 C.3      15 GLL5        0.0000 
     15 CA         24.6780   49.2550   11.8920 C.3      10 GLP5        0.0000 
     16 CA         27.6100   51.0460    7.7320 C.3       5 GLC5        0.0000 
     17 CA         28.2210   51.0260    9.7120 C.3      15 GLL5        0.0000 
     18 CA         26.9990   51.0660    5.7520 C.3      10 GLP5        0.0000 
     19 N          27.7065   48.8935   10.5705 N.am      2 SEC2        0.0000 
     20 N          27.6500   49.7290    9.3660 N.am     12 SEL2        0.0000 
     21 N          27.7630   48.0580   11.7750 N.am      7 SEP2        0.0000 
     22 O          27.7490   49.3935    8.0785 O.2       1 ALC1        0.0000 
     23 O          27.6500   49.7290    9.3660 O.2      11 ALL1        0.0000 
     24 O          27.8480   49.0580    6.7910 O.2       6 ALP1        0.0000 
     25 Zn         32.5555   53.2470    7.0230 Zn        4 ZIC7        0.0000 
     26 Zn         32.9860   53.1550    8.1440 Zn       14 ZIL7        0.0000 
     27 Zn         32.1250   53.3390    5.9020 Zn        9 ZIP7        0.0000 
     28 N          35.1655   50.9160   10.0420 N.am      2 SEC2        0.0000 
     29 N          34.3090   51.9240    9.9110 N.am     12 SEL2        0.0000 
     30 N          36.0220   49.9080   10.1730 N.am      7 SEP2        0.0000 
     31 NZ         31.0665   47.9680    7.0135 N.4       3 LYC4        0.0000 
     32 NZ         32.2830   48.6560    7.1050 N.4      13 LYL4        0.0000 
     33 NZ         29.8500   47.2800    6.9220 N.4       8 LYP4        0.0000 
     34 NZ         32.7090   48.3390    8.4225 N.4       3 LYC4        0.0000 
     35 NZ         33.9220   46.9930    9.5480 N.4       8 LYP4        0.0000 
     36 N          31.0665   47.9680    7.0135 N.am      2 SEC2        0.0000 
     37 N          32.2830   48.6560    7.1050 N.am     12 SEL2        0.0000 
     38 N          29.8500   47.2800    6.9220 N.am      7 SEP2        0.0000 
     39 N          32.7090   48.3390    8.4225 N.am      2 SEC2        0.0000 
     40 N          33.1350   48.0220    9.7400 N.am      7 SEP2        0.0000 
     41 N          33.2405   47.6300    7.7130 N.am      2 SEC2        0.0000 
     42 N          34.1980   46.6040    8.3210 N.am      7 SEP2        0.0000 
     43 N          32.7170   47.4365    6.1515 N.am      2 SEC2        0.0000 
     44 N          33.1510   46.2170    5.1980 N.am      7 SEP2        0.0000 
     45 Zn         32.0430   52.1380    5.9715 Zn        4 ZIC7        0.0000 
     46 Zn         31.9610   50.9370    6.0410 Zn       14 ZIL7        0.0000 
     47 Zn         31.3530   50.8405    5.0865 Zn        4 ZIC7        0.0000 
     48 Zn         30.7450   50.7440    4.1320 Zn        9 ZIP7        0.0000 
     49 N          35.4500   49.4265    6.5675 N.am      2 SEC2        0.0000 
     50 N          34.0740   49.4260    5.6150 N.am     12 SEL2        0.0000 
     51 N          36.8260   49.4270    7.5200 N.am      7 SEP2        0.0000 
     52 N          33.6125   47.8215    5.4065 N.am      2 SEC2        0.0000 
     53 NZ         36.6505   49.7115    6.6205 N.4       3 LYC4        0.0000 
     54 NZ         36.4750   49.9960    5.7210 N.4      13 LYL4        0.0000 
     55 NZ         36.8260   49.4270    7.5200 N.4       8 LYP4        0.0000 
     56 CA         28.6495   54.4933   12.4848 C.3       5 GLC5        0.0000 
     57 CA         29.5750   53.1710   13.3910 C.3      15 GLL5        0.0000 
     58 CA         27.7520   55.3620   11.0350 C.3      10 GLP5        0.0000 
     59 CA         28.2432   53.2165   10.6890 C.3       5 GLC5        0.0000 
     60 CA         28.4430   54.9570    9.8820 C.3      10 GLP5        0.0000 
     61 CA         25.9805   51.3872   10.5297 C.3       5 GLC5        0.0000 
     62 CA         27.4890   51.5450   10.9670 C.3      15 GLL5        0.0000 
     63 CA         24.1060   51.4890   10.7200 C.3      10 GLP5        0.0000 
     64 CA         29.1261   53.1036    9.6982 C.3       5 GLC5        0.0000 
@<TRIPOS>BOND
@<TRIPOS>SUBSTRUCTURE
     1 ALC1        7 GROUP        1 X    ALC  0     ROOT ALC X 1
     2 SEC2        1 GROUP        1 X    SEC  0     **** SEC X 2
     3 LYC4       31 GROUP        1 X    LYC  0     **** LYC X 4
     4 ZIC7       25 GROUP        1 X    ZIC  0     **** ZIC X 5
     5 GLC5        4 GROUP        1 X    GLC  0     **** GLC X 6
     6 ALP1        9 GROUP        1 Y    ALP  0     ROOT ALP Y 8
     7 SEP2        3 GROUP        1 Y    SEP  0     **** SEP Y 9
     8 LYP4       33 GROUP        1 Y    LYP  0     **** LYP Y 11
     9 ZIP7       27 GROUP        1 Y    ZIP  0     **** ZIP Y 12
    10 GLP5        6 GROUP        1 Y    GLP  0     **** GLP Y 13
    11 ALL1        8 GROUP        1 Z    ALL  0     ROOT ALL Z 15
    12 SEL2        2 GROUP        1 Z    SEL  0     **** SEL Z 16
    13 LYL4       32 GROUP        1 Z    LYL  0     **** LYL Z 18
    14 ZIL7       26 GROUP        1 Z    ZIL  0     **** ZIL Z 19
    15 GLL5        5 GROUP        1 Z    GLL  0     **** GLL Z 20
@<TRIPOS>SET

