#    Name: 2cic_DUP_1_ligand
#    Modification time : Mon Mar 24 23:51:36 2014

@<TRIPOS>MOLECULE
2cic_DUP_1_ligand
   39    40     1     0     0
SMALL
NO_CHARGES


@<TRIPOS>ATOM
      1 O4         28.3460   54.8390   16.3030 O.2       1 DUP1968     0.0000 
      2 C4         28.3660   54.0570   15.2920 C.2       1 DUP1968     0.0000 
      3 C5         29.5190   54.0780   14.4780 C.2       1 DUP1968     0.0000 
      4 C6         29.5750   53.1710   13.3910 C.2       1 DUP1968     0.0000 
      5 N3         27.3470   53.2060   15.0010 N.am      1 DUP1968     0.0000 
      6 C2         27.4120   52.3690   13.9200 C.2       1 DUP1968     0.0000 
      7 O2         26.4720   51.6290   13.6640 O.2       1 DUP1968     0.0000 
      8 N1         28.5100   52.3790   13.1240 N.am      1 DUP1968     0.0000 
      9 C1'        28.5980   51.4070   12.0250 C.3       1 DUP1968     0.0000 
     10 C2'        27.4890   51.5450   10.9670 C.3       1 DUP1968     0.0000 
     11 C3'        28.2210   51.0260    9.7120 C.3       1 DUP1968     0.0000 
     12 O3'        27.6500   49.7290    9.3660 O.3       1 DUP1968     0.0000 
     13 O4'        29.8800   51.5700   11.3970 O.3       1 DUP1968     0.0000 
     14 C4'        29.7060   50.9210   10.1060 C.3       1 DUP1968     0.0000 
     15 C5'        30.6550   51.5270    9.1200 C.3       1 DUP1968     0.0000 
     16 O5'        31.9820   51.2330    9.5780 O.3       1 DUP1968     0.0000 
     17 PA         33.2610   51.8500    8.8160 P.3       1 DUP1968     0.0000 
     18 O1A        32.9860   53.1550    8.1440 O.co2     1 DUP1968     0.0000 
     19 O2A        34.3090   51.9240    9.9110 O.co2     1 DUP1968     0.0000 
     20 N3A        33.7610   50.6540    7.8290 N.4       1 DUP1968     0.0000 
     21 PB         32.8970   49.8920    6.5780 P.3       1 DUP1968     0.0000 
     22 O1B        32.2830   48.6560    7.1050 O.co2     1 DUP1968     0.0000 
     23 O2B        31.9610   50.9370    6.0410 O.co2     1 DUP1968     0.0000 
     24 O3B        34.0740   49.4260    5.6150 O.3       1 DUP1968     0.0000 
     25 PG         35.3100   49.9700    4.7990 P.3       1 DUP1968     0.0000 
     26 O2G        36.4750   49.9960    5.7210 O.co2     1 DUP1968     0.0000 
     27 O1G        35.1050   51.3460    4.2320 O.co2     1 DUP1968     0.0000 
     28 O3G        35.1240   48.8610    3.7870 O.co2     1 DUP1968     0.0000 
     29 H          30.2751   54.7132   14.6610 H         1 DUP1968     0.0000 
     30 H          30.4325   53.1359   12.8251 H         1 DUP1968     0.0000 
     31 H          26.4983   53.1872   15.6099 H         1 DUP1968     0.0000 
     32 H          28.5330   50.3938   12.4366 H         1 DUP1968     0.0000 
     33 H          27.2419   52.5535   10.8399 H         1 DUP1968     0.0000 
     34 H          26.6931   50.9076   11.2005 H         1 DUP1968     0.0000 
     35 H          28.1099   51.7410    8.9460 H         1 DUP1968     0.0000 
     36 H          29.9398   49.8578   10.2176 H         1 DUP1968     0.0000 
     37 H          30.4787   52.5993    9.0752 H         1 DUP1968     0.0000 
     38 H          30.4680   51.0942    8.1399 H         1 DUP1968     0.0000 
     39 H          27.8847   49.5914    8.4037 H         1 DUP1968     0.0000 
@<TRIPOS>BOND
     1    2    1 2    
     2    3    2 1    
     3    5    2 1    
     4    4    3 2    
     5   29    3 1    
     6    8    4 1    
     7   30    4 1    
     8    6    5 1    
     9   31    5 1    
    10    7    6 2    
    11    8    6 1    
    12    9    8 1    
    13   10    9 1    
    14   13    9 1    
    15   32    9 1    
    16   11   10 1    
    17   33   10 1    
    18   34   10 1    
    19   12   11 1    
    20   14   11 1    
    21   35   11 1    
    22   39   12 1    
    23   14   13 1    
    24   15   14 1    
    25   36   14 1    
    26   16   15 1    
    27   37   15 1    
    28   38   15 1    
    29   17   16 1    
    30   18   17 ar   
    31   19   17 ar   
    32   20   17 1    
    33   21   20 1    
    34   22   21 ar   
    35   23   21 ar   
    36   24   21 1    
    37   25   24 1    
    38   26   25 ar   
    39   27   25 ar   
    40   28   25 ar   
@<TRIPOS>SUBSTRUCTURE
     1 DUP1968     1 GROUP   
@<TRIPOS>SET

