#    Name: 2vte_IK4_1_INTS_M
#    Modification time : Tue Mar 25 02:53:53 2014

@<TRIPOS>MOLECULE
2vte_IK4_1_INTS_M
   55     0     9     0     0
SMALL
NO_CHARGES


@<TRIPOS>ATOM
      1 N         -10.9605   -2.8220   22.7175 N.am      1 SEC2        0.0000 
      2 N         -11.3970   -1.6930   21.5350 N.am      7 SEL2        0.0000 
      3 N         -10.5240   -3.9510   23.9000 N.am      4 SEP2        0.0000 
      4 CA        -12.1960   -2.3525   19.7390 C.3       3 GLC5        0.0000 
      5 CA        -12.5220   -1.5440   21.5940 C.3       9 GLL5        0.0000 
      6 CA        -11.8700   -3.1610   17.8840 C.3       6 GLP5        0.0000 
      7 CA        -11.2385   -3.3100   21.6895 C.3       3 GLC5        0.0000 
      8 CA         -9.9550   -5.0760   21.7850 C.3       6 GLP5        0.0000 
      9 CA        -14.7880   -3.1695   24.0015 C.3       3 GLC5        0.0000 
     10 CA        -14.2780   -1.2990   23.0500 C.3       9 GLL5        0.0000 
     11 CA        -15.2980   -5.0400   24.9530 C.3       6 GLP5        0.0000 
     12 CA        -13.2450   -2.2995   19.2630 C.3       3 GLC5        0.0000 
     13 CA        -14.6200   -1.4380   20.6420 C.3       9 GLL5        0.0000 
     14 CA        -16.0870    0.6550   20.1175 C.3       3 GLC5        0.0000 
     15 CA        -15.9990   -1.3070   20.8660 C.3       9 GLL5        0.0000 
     16 CA        -16.1750    2.6170   19.3690 C.3       6 GLP5        0.0000 
     17 CA        -21.7740    0.6925   21.5420 C.3       3 GLC5        0.0000 
     18 CA        -19.9810    0.5860   20.3050 C.3       9 GLL5        0.0000 
     19 CA        -23.5670    0.7990   22.7790 C.3       6 GLP5        0.0000 
     20 CA        -22.3785    1.6290   21.0715 C.3       3 GLC5        0.0000 
     21 CA        -21.1900    2.4590   19.3640 C.3       9 GLL5        0.0000 
     22 CA        -18.3665    2.5550   15.6430 C.3       3 GLC5        0.0000 
     23 CA        -19.7970    2.0820   16.8720 C.3       9 GLL5        0.0000 
     24 CA        -16.9360    3.0280   14.4140 C.3       6 GLP5        0.0000 
     25 NZ        -26.1390    6.5875   21.9575 N.4       2 LYC4        0.0000 
     26 NZ        -25.5800    5.3820   21.2040 N.4       8 LYL4        0.0000 
     27 NZ        -26.6980    7.7930   22.7110 N.4       5 LYP4        0.0000 
     28 N         -26.1390    6.5875   21.9575 N.am      1 SEC2        0.0000 
     29 N         -25.5800    5.3820   21.2040 N.am      7 SEL2        0.0000 
     30 N         -26.6980    7.7930   22.7110 N.am      4 SEP2        0.0000 
     31 CA        -24.6600    1.6975   21.1685 C.3       3 GLC5        0.0000 
     32 CA        -25.7530    2.5960   19.5580 C.3       9 GLL5        0.0000 
     33 CA        -28.6630    3.5135   20.4225 C.3       3 GLC5        0.0000 
     34 CA        -26.9310    2.6900   20.5170 C.3       9 GLL5        0.0000 
     35 CA        -30.3950    4.3370   20.3280 C.3       6 GLP5        0.0000 
     36 CA        -26.8940    3.1765   22.3235 C.3       3 GLC5        0.0000 
     37 CA        -26.8570    3.6630   24.1300 C.3       6 GLP5        0.0000 
     38 CA        -25.8585    1.3215   21.8665 C.3       3 GLC5        0.0000 
     39 CA        -24.7860   -0.0470   23.2160 C.3       6 GLP5        0.0000 
     40 N         -28.6805    1.2100   22.8695 N.am      1 SEC2        0.0000 
     41 N         -28.4880    1.2340   21.5150 N.am      7 SEL2        0.0000 
     42 N         -28.8730    1.1860   24.2240 N.am      4 SEP2        0.0000 
     43 N         -28.7755    0.0720   22.1195 N.am      1 SEC2        0.0000 
     44 N         -29.0630   -1.0900   22.7240 N.am      4 SEP2        0.0000 
     45 N         -28.6145   -0.5110   19.6350 N.am      1 SEC2        0.0000 
     46 N         -27.5310    0.4950   19.6520 N.am      7 SEL2        0.0000 
     47 N         -29.6980   -1.5170   19.6180 N.am      4 SEP2        0.0000 
     48 CA        -16.2142   -3.0895   23.2755 C.3       3 GLC5        0.0000 
     49 CA        -16.5200   -1.1550   22.1650 C.3       9 GLL5        0.0000 
     50 CA        -16.3420   -5.0240   23.8390 C.3       6 GLP5        0.0000 
     51 CA        -17.4228    1.0440   19.4517 C.3       3 GLC5        0.0000 
     52 CA        -19.0120   -0.4290   20.1540 C.3       9 GLL5        0.0000 
     53 CA        -18.1453    1.8140   19.5633 C.3       3 GLC5        0.0000 
     54 CA        -17.8023    2.0115   18.3758 C.3       3 GLC5        0.0000 
     55 CA        -19.5460    1.2460   17.9680 C.3       9 GLL5        0.0000 
@<TRIPOS>BOND
@<TRIPOS>SUBSTRUCTURE
     1 SEC2        1 GROUP        1 X    SEC  0     ROOT SEC X 2
     2 LYC4       25 GROUP        1 X    LYC  0     **** LYC X 4
     3 GLC5        4 GROUP        1 X    GLC  0     **** GLC X 6
     4 SEP2        3 GROUP        1 Y    SEP  0     ROOT SEP Y 9
     5 LYP4       27 GROUP        1 Y    LYP  0     **** LYP Y 11
     6 GLP5        6 GROUP        1 Y    GLP  0     **** GLP Y 13
     7 SEL2        2 GROUP        1 Z    SEL  0     ROOT SEL Z 16
     8 LYL4       26 GROUP        1 Z    LYL  0     **** LYL Z 18
     9 GLL5        5 GROUP        1 Z    GLL  0     **** GLL Z 20
@<TRIPOS>SET

