#    Name: 2vte_IK4_1_ligand
#    Modification time : Tue Mar 25 02:53:53 2014

@<TRIPOS>MOLECULE
2vte_IK4_1_ligand
   51    53     1     0     0
SMALL
NO_CHARGES


@<TRIPOS>ATOM
      1 N31       -11.3970   -1.6930   21.5350 N.1       1 IK41440     0.0000 
      2 C30       -12.5220   -1.5440   21.5940 C.1       1 IK41440     0.0000 
      3 C27       -13.7770   -1.4300   21.7460 C.ar      1 IK41440     0.0000 
      4 C28       -14.2780   -1.2990   23.0500 C.ar      1 IK41440     0.0000 
      5 C29       -15.6530   -1.1550   23.2590 C.ar      1 IK41440     0.0000 
      6 C26       -14.6200   -1.4380   20.6420 C.ar      1 IK41440     0.0000 
      7 C25       -15.9990   -1.3070   20.8660 C.ar      1 IK41440     0.0000 
      8 C24       -16.5200   -1.1550   22.1650 C.ar      1 IK41440     0.0000 
      9 C23       -18.0040   -0.9880   22.4060 C.3       1 IK41440     0.0000 
     10 C19       -18.3290   -0.6290   18.9150 C.ar      1 IK41440     0.0000 
     11 C20       -19.0120   -0.4290   20.1540 C.ar      1 IK41440     0.0000 
     12 C21       -19.9810    0.5860   20.3050 C.ar      1 IK41440     0.0000 
     13 C18       -18.5780    0.2140   17.8180 C.ar      1 IK41440     0.0000 
     14 C16       -19.5460    1.2460   17.9680 C.ar      1 IK41440     0.0000 
     15 C15       -20.2500    1.4360   19.2100 C.ar      1 IK41440     0.0000 
     16 C14       -21.1900    2.4590   19.3640 C.ar      1 IK41440     0.0000 
     17 C17       -19.7970    2.0820   16.8720 C.ar      1 IK41440     0.0000 
     18 C12       -20.7420    3.1010   17.0380 C.ar      1 IK41440     0.0000 
     19 C13       -21.4440    3.2890   18.2670 C.ar      1 IK41440     0.0000 
     20 S11       -22.5340    4.4690   18.3270 S.o2      1 IK41440     0.0000 
     21 O33       -22.3690    5.3400   17.1820 O.2       1 IK41440     0.0000 
     22 O32       -22.4130    5.3210   19.4760 O.2       1 IK41440     0.0000 
     23 N         -24.0440    3.8210   18.3060 N.pl3     1 IK41440     0.0000 
     24 CA        -24.7800    3.7800   19.5940 C.3       1 IK41440     0.0000 
     25 C         -25.4260    5.1040   20.0100 C.2       1 IK41440     0.0000 
     26 O         -25.5800    5.3820   21.2040 O.co2     1 IK41440     0.0000 
     27 OXT       -25.8250    5.9550   19.1920 O.co2     1 IK41440     0.0000 
     28 CB        -25.7530    2.5960   19.5580 C.3       1 IK41440     0.0000 
     29 CG        -26.9310    2.6900   20.5170 C.3       1 IK41440     0.0000 
     30 CD        -27.6770    1.3730   20.5610 C.2       1 IK41440     0.0000 
     31 OE1       -28.4880    1.2340   21.5150 O.co2     1 IK41440     0.0000 
     32 OE2       -27.5310    0.4950   19.6520 O.co2     1 IK41440     0.0000 
     33 O22       -18.7580   -1.2920   21.2150 O.3       1 IK41440     0.0000 
     34 H         -13.6346   -1.3091   23.8476 H         1 IK41440     0.0000 
     35 H         -16.0203   -1.0504   24.2082 H         1 IK41440     0.0000 
     36 H         -14.2571   -1.5350   19.7020 H         1 IK41440     0.0000 
     37 H         -16.6475   -1.3222   20.0617 H         1 IK41440     0.0000 
     38 H         -18.1849    0.0469   22.7353 H         1 IK41440     0.0000 
     39 H         -18.2943   -1.6489   23.2373 H         1 IK41440     0.0000 
     40 H         -17.6551   -1.3949   18.8358 H         1 IK41440     0.0000 
     41 H         -20.4739    0.7027   21.1814 H         1 IK41440     0.0000 
     42 H         -18.0880    0.0970   16.9450 H         1 IK41440     0.0000 
     43 H         -21.6727    2.5956   20.2428 H         1 IK41440     0.0000 
     44 H         -19.3144    1.9537   15.9965 H         1 IK41440     0.0000 
     45 H         -20.9466    3.7440   16.2532 H         1 IK41440     0.0000 
     46 H         -24.3669    3.5063   17.4693 H         1 IK41440     0.0000 
     47 H         -24.0263    3.5185   20.3909 H         1 IK41440     0.0000 
     48 H         -25.1863    1.6675   19.7734 H         1 IK41440     0.0000 
     49 H         -26.1381    2.4877   18.5238 H         1 IK41440     0.0000 
     50 H         -27.6032    3.4784   20.1834 H         1 IK41440     0.0000 
     51 H         -26.5647    2.9346   21.5123 H         1 IK41440     0.0000 
@<TRIPOS>BOND
     1    2    1 3    
     2    3    2 1    
     3    4    3 ar   
     4    6    3 ar   
     5    5    4 ar   
     6   34    4 1    
     7    8    5 ar   
     8   35    5 1    
     9    7    6 ar   
    10   36    6 1    
    11    8    7 ar   
    12   37    7 1    
    13    9    8 1    
    14   33    9 1    
    15   38    9 1    
    16   39    9 1    
    17   11   10 ar   
    18   13   10 ar   
    19   40   10 1    
    20   12   11 ar   
    21   33   11 1    
    22   15   12 ar   
    23   41   12 1    
    24   14   13 ar   
    25   42   13 1    
    26   15   14 ar   
    27   17   14 ar   
    28   16   15 ar   
    29   19   16 ar   
    30   43   16 1    
    31   18   17 ar   
    32   44   17 1    
    33   19   18 ar   
    34   45   18 1    
    35   20   19 1    
    36   21   20 2    
    37   22   20 2    
    38   23   20 1    
    39   24   23 1    
    40   46   23 1    
    41   25   24 1    
    42   28   24 1    
    43   47   24 1    
    44   26   25 ar   
    45   27   25 ar   
    46   29   28 1    
    47   48   28 1    
    48   49   28 1    
    49   30   29 1    
    50   50   29 1    
    51   51   29 1    
    52   31   30 ar   
    53   32   30 ar   
@<TRIPOS>SUBSTRUCTURE
     1 IK41440     1 GROUP   
@<TRIPOS>SET

