#    Name: 1og5_SWF_2_INTS_M
#    Modification time : Mon Mar 24 20:05:38 2014

@<TRIPOS>MOLECULE
1og5_SWF_2_INTS_M
   56     0     6     0     0
SMALL
NO_CHARGES


@<TRIPOS>ATOM
      1 CA        -67.0360   41.9950   28.9725 C.3       2 GLC5        0.0000 
      2 CA        -65.3890   42.6220   29.3170 C.3       6 GLL5        0.0000 
      3 CA        -68.6830   41.3680   28.6280 C.3       4 GLP5        0.0000 
      4 CA        -64.8510   40.6790   28.8115 C.3       2 GLC5        0.0000 
      5 CA        -64.3130   38.7360   28.3060 C.3       4 GLP5        0.0000 
      6 CA        -66.5240   43.4705   27.8845 C.3       2 GLC5        0.0000 
      7 CA        -67.6590   44.3190   26.4520 C.3       4 GLP5        0.0000 
      8 N         -65.9110   39.7085   30.1285 N.am      1 SEC2        0.0000 
      9 N         -65.3360   40.8180   30.8470 N.am      5 SEL2        0.0000 
     10 N         -66.4860   38.5990   29.4100 N.am      3 SEP2        0.0000 
     11 N         -65.6515   41.6790   32.3080 N.am      1 SEC2        0.0000 
     12 N         -65.9670   42.5400   33.7690 N.am      3 SEP2        0.0000 
     13 CA        -63.4320   40.9270   32.2920 C.3       2 GLC5        0.0000 
     14 CA        -63.5540   42.3680   31.2260 C.3       6 GLL5        0.0000 
     15 CA        -63.3100   39.4860   33.3580 C.3       4 GLP5        0.0000 
     16 CA        -57.4065   46.1215   32.9905 C.3       2 GLC5        0.0000 
     17 CA        -58.9240   44.8350   32.2150 C.3       6 GLL5        0.0000 
     18 CA        -55.8890   47.4080   33.7660 C.3       4 GLP5        0.0000 
     19 CA        -57.4755   44.1565   29.7740 C.3       2 GLC5        0.0000 
     20 CA        -59.1030   44.9490   30.8010 C.3       6 GLL5        0.0000 
     21 CA        -55.8480   43.3640   28.7470 C.3       4 GLP5        0.0000 
     22 CA        -58.1070   41.3160   25.1540 C.3       2 GLC5        0.0000 
     23 CA        -59.5660   40.0640   25.2530 C.3       6 GLL5        0.0000 
     24 CA        -56.6480   42.5680   25.0550 C.3       4 GLP5        0.0000 
     25 CA        -58.8605   37.0900   24.8490 C.3       2 GLC5        0.0000 
     26 CA        -59.1980   38.8220   25.9000 C.3       6 GLL5        0.0000 
     27 CA        -58.5230   35.3580   23.7980 C.3       4 GLP5        0.0000 
     28 N         -61.8320   38.9300   31.6590 N.am      1 SEC2        0.0000 
     29 N         -61.4720   40.1970   31.1780 N.am      5 SEL2        0.0000 
     30 N         -62.1920   37.6630   32.1400 N.am      3 SEP2        0.0000 
     31 CA        -59.6485   42.3095   31.6540 C.3       2 GLC5        0.0000 
     32 CA        -60.9940   43.4420   32.4080 C.3       6 GLL5        0.0000 
     33 CA        -58.2060   41.1280   31.6180 C.3       4 GLP5        0.0000 
     34 CA        -58.8005   42.7945   32.1183 C.3       2 GLC5        0.0000 
     35 CA        -58.0010   43.8355   33.8783 C.3       2 GLC5        0.0000 
     36 CA        -59.8660   44.0870   33.0220 C.3       6 GLL5        0.0000 
     37 CA        -56.6070   43.2100   35.1380 C.3       4 GLP5        0.0000 
     38 CA        -58.7180   43.0975   30.3720 C.3       2 GLC5        0.0000 
     39 CA        -57.7750   41.5640   30.2560 C.3       4 GLP5        0.0000 
     40 CA        -62.9013   40.2732   28.5335 C.3       2 GLC5        0.0000 
     41 CA        -61.6410   41.6970   29.4470 C.3       6 GLL5        0.0000 
     42 CA        -59.6322   41.6872   29.5085 C.3       2 GLC5        0.0000 
     43 CA        -62.3690   39.4880   27.9748 C.3       2 GLC5        0.0000 
     44 CA        -60.6080   40.8740   27.3010 C.3       6 GLL5        0.0000 
     45 CA        -58.7020   41.9890   26.5410 C.3       2 GLC5        0.0000 
     46 CA        -56.9680   42.9990   26.4670 C.3       4 GLP5        0.0000 
     47 CA        -59.1000   40.9020   28.9498 C.3       2 GLC5        0.0000 
     48 CA        -57.7168   38.3422   26.9592 C.3       2 GLC5        0.0000 
     49 CA        -56.0670   37.9770   27.3370 C.3       4 GLP5        0.0000 
     50 CA        -58.7267   39.7780   24.1073 C.3       2 GLC5        0.0000 
     51 CA        -57.8970   39.8580   22.4690 C.3       4 GLP5        0.0000 
     52 CA        -61.0667   37.4552   28.3947 C.3       2 GLC5        0.0000 
     53 CA        -59.5350   38.5930   27.2630 C.3       6 GLL5        0.0000 
     54 CA        -62.2450   35.8110   29.1650 C.3       4 GLP5        0.0000 
     55 CA        -60.3661   46.1937   31.6614 C.3       2 GLC5        0.0000 
     56 CA        -61.0830   47.9380   31.6700 C.3       4 GLP5        0.0000 
@<TRIPOS>BOND
@<TRIPOS>SUBSTRUCTURE
     1 SEC2        8 GROUP        1 X    SEC  0     ROOT SEC X 2
     2 GLC5        1 GROUP        1 X    GLC  0     **** GLC X 6
     3 SEP2       10 GROUP        1 Y    SEP  0     ROOT SEP Y 9
     4 GLP5        3 GROUP        1 Y    GLP  0     **** GLP Y 13
     5 SEL2        9 GROUP        1 Z    SEL  0     ROOT SEL Z 16
     6 GLL5        2 GROUP        1 Z    GLL  0     **** GLL Z 20
@<TRIPOS>SET

