#    Name: 1og5_SWF_2_ligand
#    Modification time : Mon Mar 24 20:05:39 2014

@<TRIPOS>MOLECULE
1og5_SWF_2_ligand
   39    41     1     0     0
SMALL
NO_CHARGES


@<TRIPOS>ATOM
      1 C1        -65.3890   42.6220   29.3170 C.3       1 SWF502      0.0000 
      2 C2        -64.8040   41.8590   30.4860 C.2       1 SWF502      0.0000 
      3 O3        -65.3360   40.8180   30.8470 O.2       1 SWF502      0.0000 
      4 C4        -63.5540   42.3680   31.2260 C.3       1 SWF502      0.0000 
      5 C5        -62.3840   42.8380   30.2550 C.3       1 SWF502      0.0000 
      6 C6        -61.1880   43.5400   30.9720 C.ar      1 SWF502      0.0000 
      7 C7        -60.9940   43.4420   32.4080 C.ar      1 SWF502      0.0000 
      8 C8        -59.8660   44.0870   33.0220 C.ar      1 SWF502      0.0000 
      9 C9        -58.9240   44.8350   32.2150 C.ar      1 SWF502      0.0000 
     10 C10       -59.1030   44.9490   30.8010 C.ar      1 SWF502      0.0000 
     11 C11       -60.2190   44.3130   30.1750 C.ar      1 SWF502      0.0000 
     12 C12       -61.6410   41.6970   29.4470 C.2       1 SWF502      0.0000 
     13 C13       -61.3380   41.9240   28.0750 C.2       1 SWF502      0.0000 
     14 O14       -61.6980   43.1200   27.4680 O.3       1 SWF502      0.0000 
     15 C15       -60.6080   40.8740   27.3010 C.ar      1 SWF502      0.0000 
     16 C16       -60.2640   41.0840   25.9290 C.ar      1 SWF502      0.0000 
     17 C17       -59.5660   40.0640   25.2530 C.ar      1 SWF502      0.0000 
     18 C18       -59.1980   38.8220   25.9000 C.ar      1 SWF502      0.0000 
     19 C19       -59.5350   38.5930   27.2630 C.ar      1 SWF502      0.0000 
     20 C20       -60.2420   39.6060   27.9860 C.ar      1 SWF502      0.0000 
     21 O21       -60.5870   39.4320   29.3190 O.3       1 SWF502      0.0000 
     22 C22       -61.2420   40.4180   30.0350 C.2       1 SWF502      0.0000 
     23 O23       -61.4720   40.1970   31.1780 O.2       1 SWF502      0.0000 
     24 H         -63.1560   41.5758   31.8655 H         1 SWF502      0.0000 
     25 H         -63.8210   43.2182   31.8592 H         1 SWF502      0.0000 
     26 H         -62.7636   43.5380   29.5235 H         1 SWF502      0.0000 
     27 H         -61.6528   42.9212   32.9669 H         1 SWF502      0.0000 
     28 H         -59.7247   44.0212   34.0228 H         1 SWF502      0.0000 
     29 H         -58.1291   45.2811   32.6667 H         1 SWF502      0.0000 
     30 H         -58.4413   45.4785   30.2457 H         1 SWF502      0.0000 
     31 H         -60.3625   44.3827   29.1745 H         1 SWF502      0.0000 
     32 H         -60.5182   41.9412   25.4673 H         1 SWF502      0.0000 
     33 H         -59.3008   40.1903   24.2641 H         1 SWF502      0.0000 
     34 H         -58.6961   38.1166   25.3677 H         1 SWF502      0.0000 
     35 H         -59.2804   37.7281   27.7182 H         1 SWF502      0.0000 
     36 H         -64.8671   43.4510   29.1161 H         1 SWF502      0.0000 
     37 H         -65.3985   42.0720   28.4819 H         1 SWF502      0.0000 
     38 H         -66.3320   42.9046   29.4925 H         1 SWF502      0.0000 
     39 H         -60.8661   43.6749   27.4761 H         1 SWF502      0.0000 
@<TRIPOS>BOND
     1    2    1 1    
     2   36    1 1    
     3   37    1 1    
     4   38    1 1    
     5    3    2 2    
     6    4    2 1    
     7    5    4 1    
     8   24    4 1    
     9   25    4 1    
    10    6    5 1    
    11   12    5 1    
    12   26    5 1    
    13    7    6 ar   
    14   11    6 ar   
    15    8    7 ar   
    16   27    7 1    
    17    9    8 ar   
    18   28    8 1    
    19   10    9 ar   
    20   29    9 1    
    21   11   10 ar   
    22   30   10 1    
    23   31   11 1    
    24   13   12 2    
    25   22   12 1    
    26   14   13 1    
    27   15   13 1    
    28   39   14 1    
    29   16   15 ar   
    30   20   15 ar   
    31   17   16 ar   
    32   32   16 1    
    33   18   17 ar   
    34   33   17 1    
    35   19   18 ar   
    36   34   18 1    
    37   20   19 ar   
    38   35   19 1    
    39   21   20 1    
    40   22   21 1    
    41   23   22 2    
@<TRIPOS>SUBSTRUCTURE
     1 SWF502      1 GROUP   
@<TRIPOS>SET

