#    Name: 1em6_CP4_1_INTS_M
#    Modification time : Tue Mar 25 00:04:56 2014

@<TRIPOS>MOLECULE
1em6_CP4_1_INTS_M
   92     0     6     0     0
SMALL
NO_CHARGES


@<TRIPOS>ATOM
      1 CA         -6.9770   33.1845   73.3420 C.3       2 GLC5        0.0000 
      2 CA         -7.3100   34.8440   73.7970 C.3       6 GLL5        0.0000 
      3 CA         -6.6440   31.5250   72.8870 C.3       4 GLP5        0.0000 
      4 CA         -9.3925   35.0775   74.0645 C.3       2 GLC5        0.0000 
      5 CA        -11.4750   35.3110   74.3320 C.3       4 GLP5        0.0000 
      6 O          -2.6665   34.9365   72.9675 O.2       1 ALC1        0.0000 
      7 O          -3.9470   35.0350   72.5920 O.2       5 ALL1        0.0000 
      8 O          -1.3860   34.8380   73.3430 O.2       3 ALP1        0.0000 
      9 CA         -3.5635   32.3170   75.0475 C.3       2 GLC5        0.0000 
     10 CA         -4.7000   34.0420   74.7690 C.3       6 GLL5        0.0000 
     11 CA         -2.4270   30.5920   75.3260 C.3       4 GLP5        0.0000 
     12 CA         -2.7060   34.0070   75.1235 C.3       2 GLC5        0.0000 
     13 CA         -0.7120   33.9720   75.4780 C.3       4 GLP5        0.0000 
     14 CA         -9.6640   32.8125   77.0545 C.3       2 GLC5        0.0000 
     15 CA         -8.5880   33.8840   76.0230 C.3       6 GLL5        0.0000 
     16 CA        -10.7400   31.7410   78.0860 C.3       4 GLP5        0.0000 
     17 CA        -10.0315   34.5975   75.1775 C.3       2 GLC5        0.0000 
     18 CA         -8.2015   35.1395   77.2030 C.3       2 GLC5        0.0000 
     19 CA         -7.8150   36.3950   78.3830 C.3       4 GLP5        0.0000 
     20 CA         -7.3315   33.1280   77.5550 C.3       2 GLC5        0.0000 
     21 CA         -6.0750   32.3720   79.0870 C.3       4 GLP5        0.0000 
     22 O          -5.5460   37.5165   69.4945 O.2       1 ALC1        0.0000 
     23 O          -4.2650   36.7460   69.3280 O.2       5 ALL1        0.0000 
     24 O          -6.8270   38.2870   69.6610 O.2       3 ALP1        0.0000 
     25 CA         -1.6610   30.0895   62.0780 C.3       2 GLC5        0.0000 
     26 CA         -2.2180   31.3660   63.7530 C.3       6 GLL5        0.0000 
     27 CA         -1.1040   28.8130   60.4030 C.3       4 GLP5        0.0000 
     28 O          -3.7065   30.8890   61.9075 O.2       1 ALC1        0.0000 
     29 O          -2.7510   31.7670   62.4360 O.2       5 ALL1        0.0000 
     30 O          -4.6620   30.0110   61.3790 O.2       3 ALP1        0.0000 
     31 O          -0.5235   34.1230   59.4265 O.2       1 ALC1        0.0000 
     32 O          -1.8460   33.6570   59.3900 O.2       5 ALL1        0.0000 
     33 O           0.7990   34.5890   59.4630 O.2       3 ALP1        0.0000 
     34 CA         -1.2290   36.5675   57.0740 C.3       2 GLC5        0.0000 
     35 CA         -2.0660   34.5620   57.0560 C.3       6 GLL5        0.0000 
     36 CA         -0.3920   38.5730   57.0920 C.3       4 GLP5        0.0000 
     37 CA         -0.0680   35.0925   57.3325 C.3       2 GLC5        0.0000 
     38 CA          1.9300   35.6230   57.6090 C.3       4 GLP5        0.0000 
     39 CA         -4.7905   35.0595   57.7195 C.3       2 GLC5        0.0000 
     40 CA         -4.7110   33.3750   57.2460 C.3       6 GLL5        0.0000 
     41 CA         -4.8700   36.7440   58.1930 C.3       4 GLP5        0.0000 
     42 CA         -6.2130   34.9655   53.3500 C.3       2 GLC5        0.0000 
     43 CA         -5.3900   34.1520   54.7060 C.3       6 GLL5        0.0000 
     44 CA         -7.0360   35.7790   51.9940 C.3       4 GLP5        0.0000 
     45 CA         -6.7595   33.1055   55.0835 C.3       2 GLC5        0.0000 
     46 CA         -8.1290   32.0590   55.4610 C.3       4 GLP5        0.0000 
     47 CA         -4.3295   32.9895   53.7485 C.3       2 GLC5        0.0000 
     48 CA         -3.2690   31.8270   52.7910 C.3       4 GLP5        0.0000 
     49 CA         -3.8255   35.1590   53.5850 C.3       2 GLC5        0.0000 
     50 CA         -2.2610   36.1660   52.4640 C.3       4 GLP5        0.0000 
     51 CA         -6.9600   36.7877   73.1315 C.3       2 GLC5        0.0000 
     52 CA         -6.1280   35.0740   73.0490 C.3       6 GLL5        0.0000 
     53 CA         -7.9490   38.1860   73.8810 C.3       4 GLP5        0.0000 
     54 CA         -6.1499   33.4095   72.6921 C.3       2 GLC5        0.0000 
     55 CA         -4.4875   37.2508   72.0548 C.3       2 GLC5        0.0000 
     56 CA         -5.8140   35.7050   71.7150 C.3       6 GLL5        0.0000 
     57 CA         -3.8260   38.8380   72.4790 C.3       4 GLP5        0.0000 
     58 CA         -7.5953   36.3535   74.1557 C.3       2 GLC5        0.0000 
     59 CA         -5.9680   32.7235   74.0225 C.3       2 GLC5        0.0000 
     60 CA         -5.8840   33.8020   75.5470 C.3       6 GLL5        0.0000 
     61 CA         -4.1769   36.1393   74.3591 C.3       2 GLC5        0.0000 
     62 CA         -3.2550   37.8160   74.6940 C.3       4 GLP5        0.0000 
     63 CA         -5.0265   33.5205   77.0460 C.3       2 GLC5        0.0000 
     64 CA         -4.7610   33.1190   78.9340 C.3       4 GLP5        0.0000 
     65 CA         -7.8223   32.5725   74.6847 C.3       2 GLC5        0.0000 
     66 CA         -7.1730   34.1980   75.0640 C.3       6 GLL5        0.0000 
     67 CA         -7.7640   31.1040   73.8260 C.3       4 GLP5        0.0000 
     68 CA         -5.5040   37.3445   67.0418 C.3       2 GLC5        0.0000 
     69 CA         -3.4750   37.3030   68.2180 C.3       6 GLL5        0.0000 
     70 CA         -7.4390   37.7410   66.5410 C.3       4 GLP5        0.0000 
     71 CA         -4.4127   31.0180   64.2558 C.3       2 GLC5        0.0000 
     72 CA         -2.9110   32.0760   64.9520 C.3       6 GLL5        0.0000 
     73 CA         -6.2610   30.3150   64.1590 C.3       4 GLP5        0.0000 
     74 CA         -2.0280   31.4945   59.8440 C.3       2 GLC5        0.0000 
     75 CA         -2.5830   32.9810   60.2520 C.3       6 GLL5        0.0000 
     76 CA         -0.8680   30.1430   59.7110 C.3       4 GLP5        0.0000 
     77 CA         -4.3295   34.8773   58.6015 C.3       2 GLC5        0.0000 
     78 CA         -3.7850   33.3100   58.3180 C.3       6 GLL5        0.0000 
     79 CA         -3.7848   31.7556   57.8360 C.3       2 GLC5        0.0000 
     80 CA         -2.5020   33.8780   58.2300 C.3       6 GLL5        0.0000 
     81 CA         -4.4240   30.0670   57.0520 C.3       4 GLP5        0.0000 
     82 CA         -1.2489   32.7040   57.7010 C.3       2 GLC5        0.0000 
     83 CA          0.1070   31.3300   57.7370 C.3       4 GLP5        0.0000 
     84 CA         -1.7325   35.1487   54.7773 C.3       2 GLC5        0.0000 
     85 CA         -0.9380   35.6980   53.0450 C.3       4 GLP5        0.0000 
     86 CA         -4.4635   31.8895   56.8515 C.3       2 GLC5        0.0000 
     87 CA         -4.2950   34.0490   56.0560 C.3       6 GLL5        0.0000 
     88 CA         -6.3160   32.8855   56.0560 C.3       2 GLC5        0.0000 
     89 CA         -3.7530   35.5862   57.4980 C.3       2 GLC5        0.0000 
     90 CA         -2.9880   34.6370   55.9630 C.3       6 GLL5        0.0000 
     91 CA         -5.2743   35.5182   56.1595 C.3       2 GLC5        0.0000 
     92 CA         -5.7060   36.9360   56.9380 C.3       4 GLP5        0.0000 
@<TRIPOS>BOND
@<TRIPOS>SUBSTRUCTURE
     1 ALC1        6 GROUP        1 X    ALC  0     ROOT ALC X 1
     2 GLC5        1 GROUP        1 X    GLC  0     **** GLC X 6
     3 ALP1        8 GROUP        1 Y    ALP  0     ROOT ALP Y 8
     4 GLP5        3 GROUP        1 Y    GLP  0     **** GLP Y 13
     5 ALL1        7 GROUP        1 Z    ALL  0     ROOT ALL Z 15
     6 GLL5        2 GROUP        1 Z    GLL  0     **** GLL Z 20
@<TRIPOS>SET

