#    Name: 1em6_CP4_1_ligand
#    Modification time : Tue Mar 25 00:04:57 2014

@<TRIPOS>MOLECULE
1em6_CP4_1_ligand
   58    61     1     0     0
SMALL
NO_CHARGES


@<TRIPOS>ATOM
      1 C0         -6.1280   35.0740   73.0490 C.ar      1 CP4862      0.0000 
      2 C1         -4.8670   34.6920   73.5100 C.ar      1 CP4862      0.0000 
      3 C2         -5.8140   35.7050   71.7150 C.2       1 CP4862      0.0000 
      4 C3         -7.3100   34.8440   73.7970 C.ar      1 CP4862      0.0000 
      5 N4         -3.9470   35.0350   72.5920 N.pl3     1 CP4862      0.0000 
      6 C5         -4.7000   34.0420   74.7690 C.ar      1 CP4862      0.0000 
      7 C6         -4.4840   35.6220   71.5460 C.2       1 CP4862      0.0000 
      8 C7         -7.1730   34.1980   75.0640 C.ar      1 CP4862      0.0000 
      9 C8         -5.8840   33.8020   75.5470 C.ar      1 CP4862      0.0000 
     10 C9         -3.6730   36.1100   70.3930 C.2       1 CP4862      0.0000 
     11 CL10       -8.5880   33.8840   76.0230 Cl        1 CP4862      0.0000 
     12 N11        -4.2650   36.7460   69.3280 N.am      1 CP4862      0.0000 
     13 O12        -2.4520   35.9340   70.4660 O.2       1 CP4862      0.0000 
     14 C13        -3.4750   37.3030   68.2180 C.3       1 CP4862      0.0000 
     15 C14        -3.6630   36.5930   66.8670 C.3       1 CP4862      0.0000 
     16 O15        -3.0110   35.3100   67.0030 O.3       1 CP4862      0.0000 
     17 C16        -1.6740   35.2240   66.4440 C.3       1 CP4862      0.0000 
     18 C17        -1.4970   33.7590   65.9740 C.3       1 CP4862      0.0000 
     19 O18        -2.4980   33.4600   64.9830 O.3       1 CP4862      0.0000 
     20 C19        -2.9110   32.0760   64.9520 C.3       1 CP4862      0.0000 
     21 C20        -2.2180   31.3660   63.7530 C.3       1 CP4862      0.0000 
     22 N21        -2.7510   31.7670   62.4360 N.am      1 CP4862      0.0000 
     23 C22        -2.0580   32.5990   61.6040 C.2       1 CP4862      0.0000 
     24 C23        -2.5830   32.9810   60.2520 C.2       1 CP4862      0.0000 
     25 O24        -0.9590   33.0560   61.9080 O.2       1 CP4862      0.0000 
     26 N25        -1.8460   33.6570   59.3900 N.pl3     1 CP4862      0.0000 
     27 C26        -3.7930   32.7110   59.7020 C.2       1 CP4862      0.0000 
     28 C27        -2.5020   33.8780   58.2300 C.ar      1 CP4862      0.0000 
     29 C28        -3.7850   33.3100   58.3180 C.ar      1 CP4862      0.0000 
     30 C29        -2.0660   34.5620   57.0560 C.ar      1 CP4862      0.0000 
     31 C30        -4.7110   33.3750   57.2460 C.ar      1 CP4862      0.0000 
     32 C31        -2.9880   34.6370   55.9630 C.ar      1 CP4862      0.0000 
     33 C32        -4.2950   34.0490   56.0560 C.ar      1 CP4862      0.0000 
     34 CL33       -5.3900   34.1520   54.7060 Cl        1 CP4862      0.0000 
     35 H          -6.4859   36.0591   71.1794 H         1 CP4862      0.0000 
     36 H          -8.2075   35.1212   73.4557 H         1 CP4862      0.0000 
     37 H          -2.9720   34.8572   72.7068 H         1 CP4862      0.0000 
     38 H          -3.8035   33.7647   75.0987 H         1 CP4862      0.0000 
     39 H          -5.8035   33.3437   76.4544 H         1 CP4862      0.0000 
     40 H          -5.2891   36.8572   69.2665 H         1 CP4862      0.0000 
     41 H          -2.3911   37.2755   68.4654 H         1 CP4862      0.0000 
     42 H          -3.7216   38.3775   68.0715 H         1 CP4862      0.0000 
     43 H          -3.2039   37.1980   66.1035 H         1 CP4862      0.0000 
     44 H          -4.7197   36.4895   66.6868 H         1 CP4862      0.0000 
     45 H          -0.9168   35.4295   67.1811 H         1 CP4862      0.0000 
     46 H          -1.5556   35.8639   65.5864 H         1 CP4862      0.0000 
     47 H          -1.5900   33.1197   66.8514 H         1 CP4862      0.0000 
     48 H          -0.4879   33.6625   65.5744 H         1 CP4862      0.0000 
     49 H          -3.9858   31.9760   64.8125 H         1 CP4862      0.0000 
     50 H          -2.6205   31.5452   65.8567 H         1 CP4862      0.0000 
     51 H          -2.3305   30.2776   63.9027 H         1 CP4862      0.0000 
     52 H          -1.1375   31.5851   63.8180 H         1 CP4862      0.0000 
     53 H          -3.6743   31.3838   62.1809 H         1 CP4862      0.0000 
     54 H          -0.9191   33.9726   59.5583 H         1 CP4862      0.0000 
     55 H          -4.5299   32.2600   60.0329 H         1 CP4862      0.0000 
     56 H          -1.1605   34.9702   56.9971 H         1 CP4862      0.0000 
     57 H          -5.6204   32.9671   57.3145 H         1 CP4862      0.0000 
     58 H          -2.7138   35.1154   55.1036 H         1 CP4862      0.0000 
@<TRIPOS>BOND
     1    2    1 ar   
     2    3    1 1    
     3    4    1 ar   
     4    5    2 1    
     5    6    2 ar   
     6    7    3 2    
     7   35    3 1    
     8    8    4 ar   
     9   36    4 1    
    10    7    5 1    
    11   37    5 1    
    12    9    6 ar   
    13   38    6 1    
    14   10    7 1    
    15    9    8 ar   
    16   11    8 1    
    17   39    9 1    
    18   12   10 am   
    19   13   10 2    
    20   14   12 1    
    21   40   12 1    
    22   15   14 1    
    23   41   14 1    
    24   42   14 1    
    25   16   15 1    
    26   43   15 1    
    27   44   15 1    
    28   17   16 1    
    29   18   17 1    
    30   45   17 1    
    31   46   17 1    
    32   19   18 1    
    33   47   18 1    
    34   48   18 1    
    35   20   19 1    
    36   21   20 1    
    37   49   20 1    
    38   50   20 1    
    39   22   21 1    
    40   51   21 1    
    41   52   21 1    
    42   23   22 am   
    43   53   22 1    
    44   24   23 1    
    45   25   23 2    
    46   26   24 1    
    47   27   24 2    
    48   28   26 1    
    49   54   26 1    
    50   29   27 1    
    51   55   27 1    
    52   29   28 ar   
    53   30   28 ar   
    54   31   29 ar   
    55   32   30 ar   
    56   56   30 1    
    57   33   31 ar   
    58   57   31 1    
    59   33   32 ar   
    60   58   32 1    
    61   34   33 1    
@<TRIPOS>SUBSTRUCTURE
     1 CP4862      1 GROUP   
@<TRIPOS>SET

