#    Name: 3sa8_K83_1_INTS_M
#    Modification time : Mon Apr  7 22:10:13 2014

@<TRIPOS>MOLECULE
3sa8_K83_1_INTS_M
   93     0     9     0     0
SMALL
NO_CHARGES


@<TRIPOS>ATOM
      1 CA         24.1060   29.2445   11.5735 C.3       3 GLC5        0.0000 
      2 CA         23.4250   27.5020   11.6740 C.3       9 GLL5        0.0000 
      3 CA         24.7870   30.9870   11.4730 C.3       6 GLP5        0.0000 
      4 CA         26.0405   25.4455   11.2645 C.3       3 GLC5        0.0000 
      5 CA         24.0620   26.4710   10.9900 C.3       9 GLL5        0.0000 
      6 CA         28.0190   24.4200   11.5390 C.3       6 GLP5        0.0000 
      7 O          25.9765   25.4095   10.2095 O.2       1 ALC1        0.0000 
      8 O          25.3970   26.6030   10.7480 O.2       7 ALL1        0.0000 
      9 O          26.5560   24.2160    9.6710 O.2       4 ALP1        0.0000 
     10 CA         23.0250   32.7980   18.9840 C.3       3 GLC5        0.0000 
     11 CA         22.4610   33.3690   17.1870 C.3       9 GLL5        0.0000 
     12 CA         23.5890   32.2270   20.7810 C.3       6 GLP5        0.0000 
     13 CA         23.1785   34.7765   15.6580 C.3       3 GLC5        0.0000 
     14 CA         23.8960   36.1840   14.1290 C.3       6 GLP5        0.0000 
     15 CA         24.0790   34.1010   17.8495 C.3       3 GLC5        0.0000 
     16 CA         25.6970   34.8330   18.5120 C.3       6 GLP5        0.0000 
     17 CA         24.1990   32.2730   17.3280 C.3       3 GLC5        0.0000 
     18 CA         25.9370   31.1770   17.4690 C.3       6 GLP5        0.0000 
     19 CA         23.0940   34.2885   14.5055 C.3       3 GLC5        0.0000 
     20 CA         22.2920   32.3930   14.8820 C.3       9 GLL5        0.0000 
     21 CA         21.3890   34.0070   13.6320 C.3       3 GLC5        0.0000 
     22 CA         20.4860   35.6210   12.3820 C.3       6 GLP5        0.0000 
     23 CA         23.3590   32.4020   12.9680 C.3       3 GLC5        0.0000 
     24 CA         24.4260   32.4110   11.0540 C.3       6 GLP5        0.0000 
     25 CA         17.6325   30.5835   17.8940 C.3       3 GLC5        0.0000 
     26 CA         19.1100   30.5150   16.2770 C.3       9 GLL5        0.0000 
     27 CA         16.1550   30.6520   19.5110 C.3       6 GLP5        0.0000 
     28 N          19.4180   27.7795   17.8395 N.am      2 SEC2        0.0000 
     29 N          19.9400   28.2480   16.5380 N.am      8 SEL2        0.0000 
     30 N          18.8960   27.3110   19.1410 N.am      5 SEP2        0.0000 
     31 O          20.8180   27.9350   17.4195 O.2       1 ALC1        0.0000 
     32 O          19.9400   28.2480   16.5380 O.2       7 ALL1        0.0000 
     33 O          21.6960   27.6220   18.3010 O.2       4 ALP1        0.0000 
     34 O          21.5165   28.6670   16.9765 O.2       1 ALC1        0.0000 
     35 O          23.0930   29.0860   17.4150 O.2       4 ALP1        0.0000 
     36 O          20.3810   26.6805   14.1570 O.2       1 ALC1        0.0000 
     37 O          20.5470   28.1630   13.6420 O.2       7 ALL1        0.0000 
     38 O          20.2150   25.1980   14.6720 O.2       4 ALP1        0.0000 
     39 CA         17.1090   30.8115   11.3520 C.3       3 GLC5        0.0000 
     40 CA         17.5300   28.8580   11.8790 C.3       9 GLL5        0.0000 
     41 CA         16.6880   32.7650   10.8250 C.3       6 GLP5        0.0000 
     42 CA         18.8120   29.4715    9.6165 C.3       3 GLC5        0.0000 
     43 CA         17.2870   28.5550   10.5470 C.3       9 GLL5        0.0000 
     44 CA         20.3370   30.3880    8.6860 C.3       6 GLP5        0.0000 
     45 CA         17.2035   30.3770    9.9955 C.3       3 GLC5        0.0000 
     46 CA         17.1200   32.1990    9.4440 C.3       6 GLP5        0.0000 
     47 CA         15.9495   33.1885   14.0955 C.3       3 GLC5        0.0000 
     48 CA         17.1960   33.3100   15.8370 C.3       9 GLL5        0.0000 
     49 CA         14.7030   33.0670   12.3540 C.3       6 GLP5        0.0000 
     50 CA         15.3040   31.0300   15.4605 C.3       3 GLC5        0.0000 
     51 CA         16.1890   32.7220   16.6040 C.3       9 GLL5        0.0000 
     52 CA         14.4190   29.3380   14.3170 C.3       6 GLP5        0.0000 
     53 CA         15.3920   36.8225   15.7790 C.3       3 GLC5        0.0000 
     54 CA         16.6670   35.4390   16.8910 C.3       9 GLL5        0.0000 
     55 CA         14.1170   38.2060   14.6670 C.3       6 GLP5        0.0000 
     56 CA         16.4510   33.1515   18.9055 C.3       3 GLC5        0.0000 
     57 CA         15.6680   34.8310   17.6490 C.3       9 GLL5        0.0000 
     58 CA         17.2340   31.4720   20.1620 C.3       6 GLP5        0.0000 
     59 CA         14.3515   35.3680   16.0465 C.3       3 GLC5        0.0000 
     60 CA         13.0350   35.9050   14.4440 C.3       6 GLP5        0.0000 
     61 N          14.4710   34.8080   19.9790 N.am      2 SEC2        0.0000 
     62 N          14.9320   35.5410   18.5710 N.am      8 SEL2        0.0000 
     63 N          14.0100   34.0750   21.3870 N.am      5 SEP2        0.0000 
     64 CA         15.7825   36.3320   20.5625 C.3       3 GLC5        0.0000 
     65 CA         15.2270   36.9290   18.7350 C.3       9 GLL5        0.0000 
     66 CA         16.3380   35.7350   22.3900 C.3       6 GLP5        0.0000 
     67 CA         13.6745   36.1225   19.5795 C.3       3 GLC5        0.0000 
     68 CA         12.1220   35.3160   20.4240 C.3       6 GLP5        0.0000 
     69 CA         14.1775   37.8355   17.2225 C.3       3 GLC5        0.0000 
     70 CA         13.1280   38.7420   15.7100 C.3       6 GLP5        0.0000 
     71 CA         23.1923   26.0727   13.2482 C.3       3 GLC5        0.0000 
     72 CA         22.0690   27.3900   11.9440 C.3       9 GLL5        0.0000 
     73 CA         22.9800   25.1870   15.0970 C.3       6 GLP5        0.0000 
     74 CA         23.3325   23.5368   11.2325 C.3       3 GLC5        0.0000 
     75 CA         23.3350   25.3520   10.5820 C.3       9 GLL5        0.0000 
     76 CA         24.0100   21.7740   11.7370 C.3       6 GLP5        0.0000 
     77 CA         22.3152   25.4772   13.1495 C.3       3 GLC5        0.0000 
     78 CA         21.9750   25.2470   10.8740 C.3       9 GLL5        0.0000 
     79 CA         15.9343   27.4652   11.4980 C.3       3 GLC5        0.0000 
     80 CA         14.4600   26.2240   11.7830 C.3       6 GLP5        0.0000 
     81 CA         16.1104   28.8990   13.5006 C.3       3 GLC5        0.0000 
     82 CA         16.0992   28.2117    9.0200 C.3       3 GLC5        0.0000 
     83 CA         14.8430   28.5220    7.7120 C.3       6 GLP5        0.0000 
     84 CA         16.0428   26.4880   11.1657 C.3       3 GLC5        0.0000 
     85 CA         17.4240   27.2480   10.1090 C.3       9 GLL5        0.0000 
     86 CA         17.1476   25.7995   13.8576 C.3       3 GLC5        0.0000 
     87 CA         18.0770   26.5640   12.3190 C.3       9 GLL5        0.0000 
     88 CA         16.2200   24.2860   14.8110 C.3       6 GLP5        0.0000 
     89 CA         16.2300   26.7210   12.1640 C.3       3 GLC5        0.0000 
     90 CA         15.9835   31.8730   18.2845 C.3       3 GLC5        0.0000 
     91 CA         13.8625   33.4627   16.6902 C.3       3 GLC5        0.0000 
     92 CA         15.4350   33.4660   17.5120 C.3       9 GLL5        0.0000 
     93 CA         11.9850   32.9630   16.0270 C.3       6 GLP5        0.0000 
@<TRIPOS>BOND
@<TRIPOS>SUBSTRUCTURE
     1 ALC1        7 GROUP        1 X    ALC  0     ROOT ALC X 1
     2 SEC2       28 GROUP        1 X    SEC  0     **** SEC X 2
     3 GLC5        1 GROUP        1 X    GLC  0     **** GLC X 6
     4 ALP1        9 GROUP        1 Y    ALP  0     ROOT ALP Y 8
     5 SEP2       30 GROUP        1 Y    SEP  0     **** SEP Y 9
     6 GLP5        3 GROUP        1 Y    GLP  0     **** GLP Y 13
     7 ALL1        8 GROUP        1 Z    ALL  0     ROOT ALL Z 15
     8 SEL2       29 GROUP        1 Z    SEL  0     **** SEL Z 16
     9 GLL5        2 GROUP        1 Z    GLL  0     **** GLL Z 20
@<TRIPOS>SET

