#    Name: 3sa8_K83_1_ligand
#    Modification time : Mon Apr  7 22:10:13 2014

@<TRIPOS>MOLECULE
3sa8_K83_1_ligand
   71    73     1     0     0
SMALL
NO_CHARGES


@<TRIPOS>ATOM
      1 C21        21.3610   28.4990   12.6520 C.2       1 K83200      0.0000 
      2 O22        21.5380   29.6300   12.2520 O.2       1 K83200      0.0000 
      3 C22        22.0690   27.3900   11.9440 C.ar      1 K83200      0.0000 
      4 C27        23.4250   27.5020   11.6740 C.ar      1 K83200      0.0000 
      5 C26        24.0620   26.4710   10.9900 C.ar      1 K83200      0.0000 
      6 C25        23.3350   25.3520   10.5820 C.ar      1 K83200      0.0000 
      7 C24        21.9750   25.2470   10.8740 C.ar      1 K83200      0.0000 
      8 C23        21.3260   26.2880   11.5300 C.ar      1 K83200      0.0000 
      9 O27        25.3970   26.6030   10.7480 O.3       1 K83200      0.0000 
     10 N11        19.3920   31.7690   15.5450 N.pl3     1 K83200      0.0000 
     11 C12        20.2120   32.7340   16.3150 C.3       1 K83200      0.0000 
     12 C13        21.7020   32.3850   16.2910 C.3       1 K83200      0.0000 
     13 C14        22.4610   33.3690   17.1870 C.3       1 K83200      0.0000 
     14 C15        22.2920   32.3930   14.8820 C.3       1 K83200      0.0000 
     15 C16        19.1100   30.5150   16.2770 C.3       1 K83200      0.0000 
     16 C17        19.9850   29.4060   15.6830 C.3       1 K83200      0.0000 
     17 O18        19.9400   28.2480   16.5380 O.3       1 K83200      0.0000 
     18 C19        19.5520   29.0180   14.2650 C.3       1 K83200      0.0000 
     19 N20        20.5470   28.1630   13.6420 N.am      1 K83200      0.0000 
     20 C32        18.2240   28.2520   14.2080 C.3       1 K83200      0.0000 
     21 C33        17.5300   28.8580   11.8790 C.ar      1 K83200      0.0000 
     22 C34        17.2870   28.5550   10.5470 C.ar      1 K83200      0.0000 
     23 C35        17.4240   27.2480   10.1090 C.ar      1 K83200      0.0000 
     24 C36        17.8270   26.2560   10.9880 C.ar      1 K83200      0.0000 
     25 C37        18.0770   26.5640   12.3190 C.ar      1 K83200      0.0000 
     26 C38        17.9230   27.8720   12.7710 C.ar      1 K83200      0.0000 
     27 S8         18.0920   32.4280   14.8130 S.o2      1 K83200      0.0000 
     28 O9         17.3250   31.3440   14.3000 O.2       1 K83200      0.0000 
     29 O10        18.7140   33.2930   13.8450 O.2       1 K83200      0.0000 
     30 C5         17.1960   33.3100   15.8370 C.ar      1 K83200      0.0000 
     31 C4         17.4250   34.6810   15.9920 C.ar      1 K83200      0.0000 
     32 C6         16.1890   32.7220   16.6040 C.ar      1 K83200      0.0000 
     33 C3         16.6670   35.4390   16.8910 C.ar      1 K83200      0.0000 
     34 C7         15.4350   33.4660   17.5120 C.ar      1 K83200      0.0000 
     35 C2         15.6680   34.8310   17.6490 C.ar      1 K83200      0.0000 
     36 O1         14.9320   35.5410   18.5710 O.3       1 K83200      0.0000 
     37 C1         15.2270   36.9290   18.7350 C.3       1 K83200      0.0000 
     38 H          23.9489   28.3264   11.9713 H         1 K83200      0.0000 
     39 H          23.8061   24.5982   10.0615 H         1 K83200      0.0000 
     40 H          21.4562   24.4035   10.6049 H         1 K83200      0.0000 
     41 H          20.3217   26.2449   11.7051 H         1 K83200      0.0000 
     42 H          19.8808   32.7623   17.3643 H         1 K83200      0.0000 
     43 H          20.0884   33.7487   15.9069 H         1 K83200      0.0000 
     44 H          21.8273   31.3912   16.7163 H         1 K83200      0.0000 
     45 H          18.0705   30.2315   16.1669 H         1 K83200      0.0000 
     46 H          19.3518   30.6208   17.3274 H         1 K83200      0.0000 
     47 H          21.0069   29.7845   15.6265 H         1 K83200      0.0000 
     48 H          19.4362   29.9226   13.6741 H         1 K83200      0.0000 
     49 H          20.5893   27.1725   14.0581 H         1 K83200      0.0000 
     50 H          17.4336   28.8849   14.5929 H         1 K83200      0.0000 
     51 H          18.3049   27.3579   14.8142 H         1 K83200      0.0000 
     52 H          17.4164   29.8320   12.2103 H         1 K83200      0.0000 
     53 H          17.0080   29.2941    9.8922 H         1 K83200      0.0000 
     54 H          17.2252   27.0124    9.1244 H         1 K83200      0.0000 
     55 H          17.9419   25.2878   10.6554 H         1 K83200      0.0000 
     56 H          18.3757   25.8278   12.9714 H         1 K83200      0.0000 
     57 H          18.1631   35.1399   15.4358 H         1 K83200      0.0000 
     58 H          15.9969   31.7082   16.4963 H         1 K83200      0.0000 
     59 H          16.8489   36.4449   16.9908 H         1 K83200      0.0000 
     60 H          14.7116   33.0068   18.0760 H         1 K83200      0.0000 
     61 H          23.4424   33.1774   17.2012 H         1 K83200      0.0000 
     62 H          22.3512   34.3136   16.8776 H         1 K83200      0.0000 
     63 H          22.1414   33.3316   18.1338 H         1 K83200      0.0000 
     64 H          23.2654   32.1640   14.8857 H         1 K83200      0.0000 
     65 H          21.8375   31.7316   14.2853 H         1 K83200      0.0000 
     66 H          22.2034   33.2892   14.4473 H         1 K83200      0.0000 
     67 H          16.1740   37.0762   19.0205 H         1 K83200      0.0000 
     68 H          15.0941   37.4398   17.8856 H         1 K83200      0.0000 
     69 H          14.6430   37.3536   19.4268 H         1 K83200      0.0000 
     70 H          25.6779   25.7246   10.3614 H         1 K83200      0.0000 
     71 H          20.8511   28.1926   16.9466 H         1 K83200      0.0000 
@<TRIPOS>BOND
     1    2    1 2    
     2    3    1 1    
     3   19    1 am   
     4    4    3 ar   
     5    8    3 ar   
     6    5    4 ar   
     7   38    4 1    
     8    6    5 ar   
     9    9    5 1    
    10    7    6 ar   
    11   39    6 1    
    12    8    7 ar   
    13   40    7 1    
    14   41    8 1    
    15   70    9 1    
    16   11   10 1    
    17   15   10 1    
    18   27   10 1    
    19   12   11 1    
    20   42   11 1    
    21   43   11 1    
    22   13   12 1    
    23   14   12 1    
    24   44   12 1    
    25   61   13 1    
    26   62   13 1    
    27   63   13 1    
    28   64   14 1    
    29   65   14 1    
    30   66   14 1    
    31   16   15 1    
    32   45   15 1    
    33   46   15 1    
    34   17   16 1    
    35   18   16 1    
    36   47   16 1    
    37   71   17 1    
    38   19   18 1    
    39   20   18 1    
    40   48   18 1    
    41   49   19 1    
    42   26   20 1    
    43   50   20 1    
    44   51   20 1    
    45   22   21 ar   
    46   26   21 ar   
    47   52   21 1    
    48   23   22 ar   
    49   53   22 1    
    50   24   23 ar   
    51   54   23 1    
    52   25   24 ar   
    53   55   24 1    
    54   26   25 ar   
    55   56   25 1    
    56   28   27 2    
    57   29   27 2    
    58   30   27 1    
    59   31   30 ar   
    60   32   30 ar   
    61   33   31 ar   
    62   57   31 1    
    63   34   32 ar   
    64   58   32 1    
    65   35   33 ar   
    66   59   33 1    
    67   35   34 ar   
    68   60   34 1    
    69   36   35 1    
    70   37   36 1    
    71   67   37 1    
    72   68   37 1    
    73   69   37 1    
@<TRIPOS>SUBSTRUCTURE
     1 K83200      1 GROUP   
@<TRIPOS>SET

