#    Name: 3eyg_MI1_1_INTS_M
#    Modification time : Tue Mar 25 02:57:07 2014

@<TRIPOS>MOLECULE
3eyg_MI1_1_INTS_M
   59     0     9     0     0
SMALL
NO_CHARGES


@<TRIPOS>ATOM
      1 CA         10.9100   15.9180  -18.0170 C.3       3 GLC5        0.0000 
      2 CA         11.1110   14.1980  -16.8320 C.3       9 GLL5        0.0000 
      3 CA         10.7090   17.6380  -19.2020 C.3       6 GLP5        0.0000 
      4 CA          6.9590   15.2340  -19.4095 C.3       3 GLC5        0.0000 
      5 CA          6.4020   13.8860  -17.8860 C.3       9 GLL5        0.0000 
      6 CA          7.5160   16.5820  -20.9330 C.3       6 GLP5        0.0000 
      7 CA          4.8475   13.7205  -16.7555 C.3       3 GLC5        0.0000 
      8 CA          3.2930   13.5550  -15.6250 C.3       6 GLP5        0.0000 
      9 CA         14.4875   11.4560  -16.7345 C.3       3 GLC5        0.0000 
     10 CA         13.0070   11.9550  -15.7290 C.3       9 GLL5        0.0000 
     11 CA         15.9680   10.9570  -17.7400 C.3       6 GLP5        0.0000 
     12 CA         13.6080   11.6285  -14.2110 C.3       3 GLC5        0.0000 
     13 CA         14.2090   11.3020  -12.6930 C.3       6 GLP5        0.0000 
     14 CA         12.9870   17.2810  -15.6055 C.3       3 GLC5        0.0000 
     15 CA         13.6000   15.3730  -15.8880 C.3       9 GLL5        0.0000 
     16 CA         12.3740   19.1890  -15.3230 C.3       6 GLP5        0.0000 
     17 CA         15.7020   14.8705  -15.3520 C.3       3 GLC5        0.0000 
     18 CA         17.8040   14.3680  -14.8160 C.3       6 GLP5        0.0000 
     19 CA         14.2955   14.0000  -14.3565 C.3       3 GLC5        0.0000 
     20 CA         14.9910   12.6270  -12.8250 C.3       6 GLP5        0.0000 
     21 CA         12.6250   17.3075  -13.2180 C.3       3 GLC5        0.0000 
     22 CA         12.8720   15.1980  -13.6120 C.3       9 GLL5        0.0000 
     23 CA         12.3780   19.4170  -12.8240 C.3       6 GLP5        0.0000 
     24 CA         13.9315   13.9125  -13.2185 C.3       3 GLC5        0.0000 
     25 CA         10.6575   12.7025   -9.5915 C.3       3 GLC5        0.0000 
     26 CA         10.5020   14.0170  -11.1370 C.3       9 GLL5        0.0000 
     27 CA         10.8130   11.3880   -8.0460 C.3       6 GLP5        0.0000 
     28 O          11.5820   14.9410   -8.9530 O.2       1 ALC1        0.0000 
     29 O          11.4780   14.6740  -10.4210 O.2       7 ALL1        0.0000 
     30 O          11.6860   15.2080   -7.4850 O.2       4 ALP1        0.0000 
     31 CA         13.0920   16.0955   -9.4120 C.3       3 GLC5        0.0000 
     32 CA         12.4150   15.1380  -11.2680 C.3       9 GLL5        0.0000 
     33 CA         13.7690   17.0530   -7.5560 C.3       6 GLP5        0.0000 
     34 N          14.4480   15.7235   -9.8420 N.am      2 SEC2        0.0000 
     35 N          13.5300   15.8160  -10.9460 N.am      8 SEL2        0.0000 
     36 N          15.3660   15.6310   -8.7380 N.am      5 SEP2        0.0000 
     37 CA         13.3435   17.7955  -12.4130 C.3       3 GLC5        0.0000 
     38 CA         14.3090   16.1740  -12.0020 C.3       9 GLL5        0.0000 
     39 CA         15.4600   15.5080  -10.4550 C.3       3 GLC5        0.0000 
     40 CA         16.6110   14.8420   -8.9080 C.3       6 GLP5        0.0000 
     41 CA         14.6500   14.4005  -12.4135 C.3       3 GLC5        0.0000 
     42 CA          8.9312   10.4360  -15.8205 C.3       3 GLC5        0.0000 
     43 CA         10.5440   11.6320  -15.5380 C.3       9 GLL5        0.0000 
     44 CA          7.5690    9.1040  -15.3910 C.3       6 GLP5        0.0000 
     45 CA         12.0478   11.7795  -13.5935 C.3       3 GLC5        0.0000 
     46 CA         12.9670   11.4670  -11.8570 C.3       6 GLP5        0.0000 
     47 CA          6.3115   13.3880  -19.4642 C.3       3 GLC5        0.0000 
     48 CA          7.5860   13.0420  -17.6590 C.3       9 GLL5        0.0000 
     49 CA          5.6290   13.3120  -21.1560 C.3       6 GLP5        0.0000 
     50 CA          7.1730   14.8100  -16.3282 C.3       3 GLC5        0.0000 
     51 CA          7.3520   16.1560  -14.8840 C.3       6 GLP5        0.0000 
     52 CA         10.1780   15.9905  -13.0270 C.3       3 GLC5        0.0000 
     53 CA         10.7790   14.0680  -12.4890 C.3       9 GLL5        0.0000 
     54 CA          8.9480   17.5490  -13.5330 C.3       6 GLP5        0.0000 
     55 CA          8.6913   14.2737  -11.2345 C.3       3 GLC5        0.0000 
     56 CA          6.7420   14.5050  -10.6560 C.3       6 GLP5        0.0000 
     57 CA         10.9510   16.1296  -10.7103 C.3       3 GLC5        0.0000 
     58 CA         10.2170   17.5780   -9.8720 C.3       6 GLP5        0.0000 
     59 CA         12.3260   13.0741  -11.7027 C.3       3 GLC5        0.0000 
@<TRIPOS>BOND
@<TRIPOS>SUBSTRUCTURE
     1 ALC1       28 GROUP        1 X    ALC  0     ROOT ALC X 1
     2 SEC2       34 GROUP        1 X    SEC  0     **** SEC X 2
     3 GLC5        1 GROUP        1 X    GLC  0     **** GLC X 6
     4 ALP1       30 GROUP        1 Y    ALP  0     ROOT ALP Y 8
     5 SEP2       36 GROUP        1 Y    SEP  0     **** SEP Y 9
     6 GLP5        3 GROUP        1 Y    GLP  0     **** GLP Y 13
     7 ALL1       29 GROUP        1 Z    ALL  0     ROOT ALL Z 15
     8 SEL2       35 GROUP        1 Z    SEL  0     **** SEL Z 16
     9 GLL5        2 GROUP        1 Z    GLL  0     **** GLL Z 20
@<TRIPOS>SET

