#    Name: 3eyg_MI1_1_ligand
#    Modification time : Tue Mar 25 02:57:07 2014

@<TRIPOS>MOLECULE
3eyg_MI1_1_ligand
   43    45     1     0     0
SMALL
NO_CHARGES


@<TRIPOS>ATOM
      1 C1         11.4000   14.0760  -15.3490 C.3       1 MI11        0.0000 
      2 C2         11.1110   14.1980  -16.8320 C.3       1 MI11        0.0000 
      3 C4         10.0430   11.9040  -16.9620 C.3       1 MI11        0.0000 
      4 C5         10.5440   11.6320  -15.5380 C.3       1 MI11        0.0000 
      5 C6         11.7130   12.5520  -15.1220 C.3       1 MI11        0.0000 
      6 N3          9.9090   13.3800  -17.0700 N.am      1 MI11        0.0000 
      7 O21         8.6640   15.1600  -17.5640 O.2       1 MI11        0.0000 
      8 C20         8.7790   13.9460  -17.4370 C.2       1 MI11        0.0000 
      9 C22         7.5860   13.0420  -17.6590 C.3       1 MI11        0.0000 
     10 C23         6.4020   13.8860  -17.8860 C.1       1 MI11        0.0000 
     11 N24         5.4400   14.5060  -18.0770 N.1       1 MI11        0.0000 
     12 C7         13.0070   11.9550  -15.7290 C.3       1 MI11        0.0000 
     13 N8         12.6080   14.8790  -14.9290 N.3       1 MI11        0.0000 
     14 C9         13.6000   15.3730  -15.8880 C.3       1 MI11        0.0000 
     15 C10        12.8720   15.1980  -13.6120 C.ar      1 MI11        0.0000 
     16 C15        12.0370   14.7960  -12.5530 C.ar      1 MI11        0.0000 
     17 C16        10.7790   14.0680  -12.4890 C.2       1 MI11        0.0000 
     18 C11        10.5020   14.0170  -11.1370 C.2       1 MI11        0.0000 
     19 N12        11.4780   14.6740  -10.4210 N.pl3     1 MI11        0.0000 
     20 C14        12.4150   15.1380  -11.2680 C.ar      1 MI11        0.0000 
     21 N17        13.5300   15.8160  -10.9460 N.ar      1 MI11        0.0000 
     22 C18        14.3090   16.1740  -12.0020 C.ar      1 MI11        0.0000 
     23 N19        14.0160   15.9020  -13.3080 N.ar      1 MI11        0.0000 
     24 H          10.5506   14.3169  -14.7835 H         1 MI11        0.0000 
     25 H          11.9494   13.8177  -17.3871 H         1 MI11        0.0000 
     26 H          10.9261   15.2295  -17.0715 H         1 MI11        0.0000 
     27 H           9.0928   11.4243  -17.0931 H         1 MI11        0.0000 
     28 H          10.7676   11.5347  -17.6612 H         1 MI11        0.0000 
     29 H          10.8739   10.5895  -15.4659 H         1 MI11        0.0000 
     30 H           9.7171   11.7731  -14.8328 H         1 MI11        0.0000 
     31 H          11.8015   12.4032  -14.0024 H         1 MI11        0.0000 
     32 H           7.4483   12.4174  -16.7809 H         1 MI11        0.0000 
     33 H           7.7774   12.4107  -18.5221 H         1 MI11        0.0000 
     34 H          10.3187   13.7416  -13.2002 H         1 MI11        0.0000 
     35 H           9.7305   13.5807  -10.7495 H         1 MI11        0.0000 
     36 H          11.4741   14.7762   -9.4595 H         1 MI11        0.0000 
     37 H          15.2140   16.7053  -11.7979 H         1 MI11        0.0000 
     38 H          13.8259   12.4074  -15.3759 H         1 MI11        0.0000 
     39 H          13.0986   10.9807  -15.5232 H         1 MI11        0.0000 
     40 H          13.0273   12.0475  -16.7245 H         1 MI11        0.0000 
     41 H          14.3320   15.8826  -15.4358 H         1 MI11        0.0000 
     42 H          14.0318   14.6261  -16.3936 H         1 MI11        0.0000 
     43 H          13.1903   15.9859  -16.5636 H         1 MI11        0.0000 
@<TRIPOS>BOND
     1    2    1 1    
     2    5    1 1    
     3   13    1 1    
     4   24    1 1    
     5    6    2 1    
     6   25    2 1    
     7   26    2 1    
     8    4    3 1    
     9    6    3 1    
    10   27    3 1    
    11   28    3 1    
    12    5    4 1    
    13   29    4 1    
    14   30    4 1    
    15   12    5 1    
    16   31    5 1    
    17    8    6 am   
    18    8    7 2    
    19    9    8 1    
    20   10    9 1    
    21   32    9 1    
    22   33    9 1    
    23   11   10 3    
    24   38   12 1    
    25   39   12 1    
    26   40   12 1    
    27   14   13 1    
    28   15   13 1    
    29   41   14 1    
    30   42   14 1    
    31   43   14 1    
    32   16   15 ar   
    33   23   15 ar   
    34   17   16 1    
    35   20   16 ar   
    36   18   17 2    
    37   34   17 1    
    38   19   18 1    
    39   35   18 1    
    40   20   19 1    
    41   36   19 1    
    42   21   20 ar   
    43   22   21 ar   
    44   23   22 ar   
    45   37   22 1    
@<TRIPOS>SUBSTRUCTURE
     1 MI11        1 GROUP   
@<TRIPOS>SET

