#    Name: 3ioc_A5D_1_INTS_M
#    Modification time : Tue Mar 25 17:00:07 2014

@<TRIPOS>MOLECULE
3ioc_A5D_1_INTS_M
   75     0     9     0     0
SMALL
NO_CHARGES


@<TRIPOS>ATOM
      1 N          13.8610    9.5470   -7.1230 N.am      2 SEC2        0.0000 
      2 N          13.9990    9.7850   -5.6050 N.am      8 SEL2        0.0000 
      3 N          13.7230    9.3090   -8.6410 N.am      5 SEP2        0.0000 
      4 CA         13.1335   11.5175   -5.1115 C.3       3 GLC5        0.0000 
      5 CA         13.0560    9.3000   -4.8030 C.3       9 GLL5        0.0000 
      6 CA         13.2110   13.7350   -5.4200 C.3       6 GLP5        0.0000 
      7 CA         12.4015    8.0165   -3.4210 C.3       3 GLC5        0.0000 
      8 CA         11.7470    6.7330   -2.0390 C.3       6 GLP5        0.0000 
      9 CA         14.7760    8.0870   -4.2730 C.3       3 GLC5        0.0000 
     10 CA         16.4960    6.8740   -3.7430 C.3       6 GLP5        0.0000 
     11 CA         13.2740    8.1530   -6.3485 C.3       3 GLC5        0.0000 
     12 CA         13.4920    7.0060   -7.8940 C.3       6 GLP5        0.0000 
     13 CA         12.9815    8.3880   -2.4730 C.3       3 GLC5        0.0000 
     14 CA         14.2160   10.0430   -2.9070 C.3       9 GLL5        0.0000 
     15 CA         15.3560    8.4585   -3.3250 C.3       3 GLC5        0.0000 
     16 O          15.9585   10.8460   -7.6605 O.2       1 ALC1        0.0000 
     17 O          16.0210   10.8720   -5.9610 O.2       7 ALL1        0.0000 
     18 O          15.8960   10.8200   -9.3600 O.2       4 ALP1        0.0000 
     19 O          17.2820   11.2830   -5.7390 O.2       1 ALC1        0.0000 
     20 O          18.5430   11.6940   -5.5170 O.2       4 ALP1        0.0000 
     21 N          11.9205    7.4175    0.5105 N.am      2 SEC2        0.0000 
     22 N          12.6650    8.0150    1.7470 N.am      8 SEL2        0.0000 
     23 N          11.1760    6.8200   -0.7260 N.am      5 SEP2        0.0000 
     24 O          11.6700    8.7155    2.6185 O.2       1 ALC1        0.0000 
     25 O          12.6650    8.0150    1.7470 O.2       7 ALL1        0.0000 
     26 O          10.6750    9.4160    3.4900 O.2       4 ALP1        0.0000 
     27 O          15.8350    7.4265   -0.2945 O.2       1 ALC1        0.0000 
     28 O          14.4840    7.5600   -0.3940 O.2       7 ALL1        0.0000 
     29 O          17.1860    7.2930   -0.1950 O.2       4 ALP1        0.0000 
     30 CA         12.1570   10.2025   10.6830 C.3       3 GLC5        0.0000 
     31 CA         13.9240    9.6520    9.4870 C.3       9 GLL5        0.0000 
     32 CA         10.3900   10.7530   11.8790 C.3       6 GLP5        0.0000 
     33 CA         13.0460   12.1175    6.4345 C.3       3 GLC5        0.0000 
     34 CA         13.6530   10.3690    7.2350 C.3       9 GLL5        0.0000 
     35 CA         12.4390   13.8660    5.6340 C.3       6 GLP5        0.0000 
     36 CA         12.5695    7.7380    5.3360 C.3       3 GLC5        0.0000 
     37 CA         14.1060    8.8320    5.3030 C.3       9 GLL5        0.0000 
     38 CA         11.0330    6.6440    5.3690 C.3       6 GLP5        0.0000 
     39 CA         17.0465   10.2705    5.6960 C.3       3 GLC5        0.0000 
     40 CA         15.7130    9.5640    4.7870 C.3       9 GLL5        0.0000 
     41 CA         18.3800   10.9770    6.6050 C.3       6 GLP5        0.0000 
     42 CA         16.8190   11.1260    5.1670 C.3       3 GLC5        0.0000 
     43 CA         15.2580   11.2750    3.7290 C.3       9 GLL5        0.0000 
     44 CA         12.4440    7.6125    2.8370 C.3       3 GLC5        0.0000 
     45 CA         13.8310    8.8450    1.6830 C.3       9 GLL5        0.0000 
     46 CA         11.0570    6.3800    3.9910 C.3       6 GLP5        0.0000 
     47 CA         11.6650   10.3530    0.7620 C.3       3 GLC5        0.0000 
     48 CA         13.3430   10.3100    1.7460 C.3       9 GLL5        0.0000 
     49 CA          9.9870   10.3960   -0.2220 C.3       6 GLP5        0.0000 
     50 CA         11.8950   10.1625   -0.3340 C.3       3 GLC5        0.0000 
     51 CA         13.8030    9.9290   -0.4460 C.3       9 GLL5        0.0000 
     52 CA         14.1833   12.1098   -4.9185 C.3       3 GLC5        0.0000 
     53 CA         15.2170   10.5550   -3.7200 C.3       9 GLL5        0.0000 
     54 CA         16.3607    9.0302   -4.4970 C.3       3 GLC5        0.0000 
     55 CA         15.0940   10.4140   -5.1140 C.3       9 GLL5        0.0000 
     56 CA         17.5660    7.5760   -4.5770 C.3       6 GLP5        0.0000 
     57 CA         14.1367    8.8195   10.9470 C.3       3 GLC5        0.0000 
     58 CA         14.3170    8.3960    9.0170 C.3       9 GLL5        0.0000 
     59 CA         14.1530    8.6150   12.6420 C.3       6 GLP5        0.0000 
     60 CA         15.2443   11.7545    7.7432 C.3       3 GLC5        0.0000 
     61 CA         16.8700   13.0050    7.5720 C.3       6 GLP5        0.0000 
     62 CA         15.1780    6.4208    8.6810 C.3       3 GLC5        0.0000 
     63 CA         16.0030    4.5850    9.0200 C.3       6 GLP5        0.0000 
     64 CA         12.9684    7.4698    9.2023 C.3       3 GLC5        0.0000 
     65 CA         14.3890    8.1170    7.6670 C.3       9 GLL5        0.0000 
     66 CA         11.6820    6.3690    9.9450 C.3       6 GLP5        0.0000 
     67 CA         13.4232   12.5125    4.5210 C.3       3 GLC5        0.0000 
     68 CA         13.4805   12.5083    1.5793 C.3       3 GLC5        0.0000 
     69 CA         13.5570   11.0430    3.0870 C.3       9 GLL5        0.0000 
     70 CA         13.5110   14.3400    0.7420 C.3       6 GLP5        0.0000 
     71 CA         11.8026   10.1002    7.3786 C.3       3 GLC5        0.0000 
     72 CA         14.0360    9.1090    6.7920 C.3       9 GLL5        0.0000 
     73 CA          9.7780   10.3940    7.4040 C.3       6 GLP5        0.0000 
     74 CA         12.9603    8.0493   -1.0555 C.3       3 GLC5        0.0000 
     75 CA         14.5440    8.8020    0.3020 C.3       9 GLL5        0.0000 
@<TRIPOS>BOND
@<TRIPOS>SUBSTRUCTURE
     1 ALC1       16 GROUP        1 X    ALC  0     ROOT ALC X 1
     2 SEC2        1 GROUP        1 X    SEC  0     **** SEC X 2
     3 GLC5        4 GROUP        1 X    GLC  0     **** GLC X 6
     4 ALP1       18 GROUP        1 Y    ALP  0     ROOT ALP Y 8
     5 SEP2        3 GROUP        1 Y    SEP  0     **** SEP Y 9
     6 GLP5        6 GROUP        1 Y    GLP  0     **** GLP Y 13
     7 ALL1       17 GROUP        1 Z    ALL  0     ROOT ALL Z 15
     8 SEL2        2 GROUP        1 Z    SEL  0     **** SEL Z 16
     9 GLL5        5 GROUP        1 Z    GLL  0     **** GLL Z 20
@<TRIPOS>SET

