#    Name: 3ioc_A5D_1_ligand
#    Modification time : Tue Mar 25 17:00:07 2014

@<TRIPOS>MOLECULE
3ioc_A5D_1_ligand
   46    49     1     0     0
SMALL
NO_CHARGES


@<TRIPOS>ATOM
      1 N1         13.9990    9.7850   -5.6050 N.ar      1 A5D301      0.0000 
      2 C2         13.0560    9.3000   -4.8030 C.ar      1 A5D301      0.0000 
      3 N3         13.1640    9.4250   -3.4890 N.ar      1 A5D301      0.0000 
      4 C4         14.2160   10.0430   -2.9070 C.ar      1 A5D301      0.0000 
      5 C5         15.2170   10.5550   -3.7200 C.ar      1 A5D301      0.0000 
      6 C6         15.0940   10.4140   -5.1140 C.ar      1 A5D301      0.0000 
      7 N6         16.0210   10.8720   -5.9610 N.pl3     1 A5D301      0.0000 
      8 N7         16.1190   11.0910   -2.9090 N.2       1 A5D301      0.0000 
      9 C8         15.7200   10.9500   -1.6470 C.2       1 A5D301      0.0000 
     10 N9         14.5520   10.3070   -1.6450 N.pl3     1 A5D301      0.0000 
     11 OAB        12.6650    8.0150    1.7470 O.3       1 A5D301      0.0000 
     12 OAC        14.4840    7.5600   -0.3940 O.3       1 A5D301      0.0000 
     13 CAD        13.9240    9.6520    9.4870 C.ar      1 A5D301      0.0000 
     14 CAE        13.5840   10.6390    8.5940 C.ar      1 A5D301      0.0000 
     15 CAF        14.3170    8.3960    9.0170 C.ar      1 A5D301      0.0000 
     16 CAG        13.6530   10.3690    7.2350 C.ar      1 A5D301      0.0000 
     17 CAH        14.3890    8.1170    7.6670 C.ar      1 A5D301      0.0000 
     18 CAK        14.1060    8.8320    5.3030 C.3       1 A5D301      0.0000 
     19 CAL        13.5570   11.0430    3.0870 C.3       1 A5D301      0.0000 
     20 OAP        13.9190   10.9550    0.5700 O.3       1 A5D301      0.0000 
     21 SAQ        15.7130    9.5640    4.7870 S.3       1 A5D301      0.0000 
     22 SAR        15.2580   11.2750    3.7290 S.3       1 A5D301      0.0000 
     23 CAS        14.0360    9.1090    6.7920 C.ar      1 A5D301      0.0000 
     24 CAW        13.8310    8.8450    1.6830 C.3       1 A5D301      0.0000 
     25 CAX        14.5440    8.8020    0.3020 C.3       1 A5D301      0.0000 
     26 CAY        13.3430   10.3100    1.7460 C.3       1 A5D301      0.0000 
     27 CAZ        13.8030    9.9290   -0.4460 C.3       1 A5D301      0.0000 
     28 H          12.2195    8.8142   -5.2172 H         1 A5D301      0.0000 
     29 H          15.6908   11.1655   -6.8581 H         1 A5D301      0.0000 
     30 H          16.9616   10.8800   -5.6215 H         1 A5D301      0.0000 
     31 H          16.1978   11.2621   -0.8601 H         1 A5D301      0.0000 
     32 H          13.8929    9.8263   10.5001 H         1 A5D301      0.0000 
     33 H          13.2833   11.5625    8.9205 H         1 A5D301      0.0000 
     34 H          14.5601    7.6570    9.7082 H         1 A5D301      0.0000 
     35 H          13.4199   11.1039    6.5517 H         1 A5D301      0.0000 
     36 H          14.6947    7.2033    7.3387 H         1 A5D301      0.0000 
     37 H          14.2411    7.8334    5.0556 H         1 A5D301      0.0000 
     38 H          13.4336    9.3769    4.7305 H         1 A5D301      0.0000 
     39 H          13.1815   12.0784    3.0700 H         1 A5D301      0.0000 
     40 H          13.0667   10.5346    3.9322 H         1 A5D301      0.0000 
     41 H          14.5259    8.7024    2.4384 H         1 A5D301      0.0000 
     42 H          15.5486    9.1672    0.4659 H         1 A5D301      0.0000 
     43 H          12.2307   10.2466    1.5709 H         1 A5D301      0.0000 
     44 H          12.8341    9.6437   -0.6018 H         1 A5D301      0.0000 
     45 H          12.0297    8.5069    2.3423 H         1 A5D301      0.0000 
     46 H          15.4302    7.2385   -0.4315 H         1 A5D301      0.0000 
@<TRIPOS>BOND
     1    2    1 ar   
     2    6    1 ar   
     3    3    2 ar   
     4   28    2 1    
     5    4    3 ar   
     6    5    4 ar   
     7   10    4 1    
     8    6    5 ar   
     9    8    5 1    
    10    7    6 1    
    11   29    7 1    
    12   30    7 1    
    13    9    8 2    
    14   10    9 1    
    15   31    9 1    
    16   27   10 1    
    17   24   11 1    
    18   45   11 1    
    19   25   12 1    
    20   46   12 1    
    21   14   13 ar   
    22   15   13 ar   
    23   32   13 1    
    24   16   14 ar   
    25   33   14 1    
    26   17   15 ar   
    27   34   15 1    
    28   23   16 ar   
    29   35   16 1    
    30   23   17 ar   
    31   36   17 1    
    32   21   18 1    
    33   23   18 1    
    34   37   18 1    
    35   38   18 1    
    36   22   19 1    
    37   26   19 1    
    38   39   19 1    
    39   40   19 1    
    40   26   20 1    
    41   27   20 1    
    42   22   21 1    
    43   25   24 1    
    44   26   24 1    
    45   41   24 1    
    46   27   25 1    
    47   42   25 1    
    48   43   26 1    
    49   44   27 1    
@<TRIPOS>SUBSTRUCTURE
     1 A5D301      1 GROUP   
@<TRIPOS>SET

