#    Name: 3l16_JZX_1_INTS_M
#    Modification time : Mon Mar 24 20:46:51 2014

@<TRIPOS>MOLECULE
3l16_JZX_1_INTS_M
   71     0     9     0     0
SMALL
NO_CHARGES


@<TRIPOS>ATOM
      1 CA         21.2670   61.1220   19.9080 C.3       3 GLC5        0.0000 
      2 CA         22.8870   62.1780   21.0220 C.3       9 GLL5        0.0000 
      3 CA         19.6470   60.0660   18.7940 C.3       6 GLP5        0.0000 
      4 N          17.1150   58.6530   24.2790 N.am      2 SEC2        0.0000 
      5 N          18.0620   59.5570   24.0480 N.am      8 SEL2        0.0000 
      6 N          16.1680   57.7490   24.5100 N.am      5 SEP2        0.0000 
      7 O          28.3275   60.7880   20.5440 O.2       1 ALC1        0.0000 
      8 O          27.8120   59.6690   20.1990 O.2       7 ALL1        0.0000 
      9 O          28.8430   61.9070   20.8890 O.2       4 ALP1        0.0000 
     10 CA         18.8080   68.9175   15.4580 C.3       3 GLC5        0.0000 
     11 CA         18.1300   67.8360   17.2340 C.3       9 GLL5        0.0000 
     12 CA         19.4860   69.9990   13.6820 C.3       6 GLP5        0.0000 
     13 CA         19.9175   59.9560   20.8430 C.3       3 GLC5        0.0000 
     14 CA         20.1880   59.8460   22.8920 C.3       9 GLL5        0.0000 
     15 CA         21.2180   58.2775   22.0490 C.3       3 GLC5        0.0000 
     16 CA         22.2480   56.7090   21.2060 C.3       6 GLP5        0.0000 
     17 CA         20.8715   58.4645   25.4170 C.3       3 GLC5        0.0000 
     18 CA         19.4830   59.4210   24.1720 C.3       9 GLL5        0.0000 
     19 CA         22.2600   57.5080   26.6620 C.3       6 GLP5        0.0000 
     20 CA         18.0325   58.1495   23.2450 C.3       3 GLC5        0.0000 
     21 CA         16.5820   56.8780   22.3180 C.3       6 GLP5        0.0000 
     22 CA         18.0635   58.8245   25.5245 C.3       3 GLC5        0.0000 
     23 CA         16.6440   58.2280   26.8770 C.3       6 GLP5        0.0000 
     24 CA         19.6040   61.5150   24.7990 C.3       3 GLC5        0.0000 
     25 CA         19.7250   63.6090   25.4260 C.3       6 GLP5        0.0000 
     26 CA         19.6890   59.9465   26.0935 C.3       3 GLC5        0.0000 
     27 CA         19.8950   60.4720   28.0150 C.3       6 GLP5        0.0000 
     28 CA         16.6185   59.3010   24.7035 C.3       3 GLC5        0.0000 
     29 CA         17.6240   60.8390   23.5730 C.3       9 GLL5        0.0000 
     30 CA         15.6130   57.7630   25.8340 C.3       6 GLP5        0.0000 
     31 CA         16.9895   61.9010   20.7385 C.3       3 GLC5        0.0000 
     32 CA         18.3150   61.2450   22.2610 C.3       9 GLL5        0.0000 
     33 CA         15.6640   62.5570   19.2160 C.3       6 GLP5        0.0000 
     34 CA         18.9810   60.6555   20.5275 C.3       3 GLC5        0.0000 
     35 CA         25.9655   61.7245   17.8910 C.3       3 GLC5        0.0000 
     36 CA         25.1020   61.9600   19.8820 C.3       9 GLL5        0.0000 
     37 CA         26.8290   61.4890   15.9000 C.3       6 GLP5        0.0000 
     38 CA         24.4720   61.2470   23.3295 C.3       3 GLC5        0.0000 
     39 CA         24.5300   60.3630   21.5720 C.3       9 GLL5        0.0000 
     40 CA         24.4140   62.1310   25.0870 C.3       6 GLP5        0.0000 
     41 CA         23.5312   62.9792   22.3708 C.3       3 GLC5        0.0000 
     42 CA         24.1920   61.4910   20.8130 C.3       9 GLL5        0.0000 
     43 CA         23.5230   64.1240   23.8240 C.3       6 GLP5        0.0000 
     44 CA         18.9342   64.7392   23.0245 C.3       3 GLC5        0.0000 
     45 CA         19.9090   65.4730   20.8620 C.3       9 GLL5        0.0000 
     46 CA         18.3720   64.6240   24.8000 C.3       6 GLP5        0.0000 
     47 CA         20.1133   61.3640   20.2338 C.3       3 GLC5        0.0000 
     48 CA         20.4820   63.3180   21.4770 C.3       9 GLL5        0.0000 
     49 CA         20.1523   63.1355   23.5497 C.3       3 GLC5        0.0000 
     50 CA         20.6770   62.0060   21.8700 C.3       9 GLL5        0.0000 
     51 CA         22.0512   63.3930   22.7488 C.3       3 GLC5        0.0000 
     52 CA         22.4102   64.3777   22.2613 C.3       3 GLC5        0.0000 
     53 CA         21.4770   64.0310   20.8530 C.3       9 GLL5        0.0000 
     54 CA         24.4135   59.2470   20.1363 C.3       3 GLC5        0.0000 
     55 CA         24.4660   57.5670   19.0800 C.3       6 GLP5        0.0000 
     56 CA         16.1953   64.5312   19.0697 C.3       3 GLC5        0.0000 
     57 CA         17.1910   66.2560   19.4710 C.3       9 GLL5        0.0000 
     58 CA         18.7395   65.9472   16.4767 C.3       3 GLC5        0.0000 
     59 CA         19.0900   67.3370   18.2990 C.3       9 GLL5        0.0000 
     60 CA         18.8690   64.3080   15.1870 C.3       6 GLP5        0.0000 
     61 CA         21.4842   60.5102   24.4415 C.3       3 GLC5        0.0000 
     62 CA         23.1330   61.3870   25.3510 C.3       6 GLP5        0.0000 
     63 CA         16.4352   59.7945   22.2740 C.3       3 GLC5        0.0000 
     64 CA         14.9010   58.5470   21.6310 C.3       6 GLP5        0.0000 
     65 CA         18.8473   62.3255   24.1715 C.3       3 GLC5        0.0000 
     66 CA         25.3253   58.7782   19.9910 C.3       3 GLC5        0.0000 
     67 CA         25.7520   59.7330   21.3770 C.3       9 GLL5        0.0000 
     68 CA         27.2357   60.7503   22.2205 C.3       3 GLC5        0.0000 
     69 CA         28.2870   61.5110   23.5390 C.3       6 GLP5        0.0000 
     70 CA         26.2553   61.9446   21.9044 C.3       3 GLC5        0.0000 
     71 CA         27.9220   62.8450   22.8490 C.3       6 GLP5        0.0000 
@<TRIPOS>BOND
@<TRIPOS>SUBSTRUCTURE
     1 ALC1        7 GROUP        1 X    ALC  0     ROOT ALC X 1
     2 SEC2        4 GROUP        1 X    SEC  0     **** SEC X 2
     3 GLC5        1 GROUP        1 X    GLC  0     **** GLC X 6
     4 ALP1        9 GROUP        1 Y    ALP  0     ROOT ALP Y 8
     5 SEP2        6 GROUP        1 Y    SEP  0     **** SEP Y 9
     6 GLP5        3 GROUP        1 Y    GLP  0     **** GLP Y 13
     7 ALL1        8 GROUP        1 Z    ALL  0     ROOT ALL Z 15
     8 SEL2        5 GROUP        1 Z    SEL  0     **** SEL Z 16
     9 GLL5        2 GROUP        1 Z    GLL  0     **** GLL Z 20
@<TRIPOS>SET

