#    Name: 3l16_JZX_1_ligand
#    Modification time : Mon Mar 24 20:46:52 2014

@<TRIPOS>MOLECULE
3l16_JZX_1_ligand
   61    65     1     0     0
SMALL
NO_CHARGES


@<TRIPOS>ATOM
      1 C1         22.8870   62.1780   21.0220 C.ar      1 JZX1        0.0000 
      2 N1         22.6870   63.4650   20.6230 N.ar      1 JZX1        0.0000 
      3 O1         18.0620   59.5570   24.0480 O.3       1 JZX1        0.0000 
      4 S1         19.0840   64.2360   21.6360 S.3       1 JZX1        0.0000 
      5 C2         20.6770   62.0060   21.8700 C.ar      1 JZX1        0.0000 
      6 N2         21.8990   61.4830   21.6420 N.ar      1 JZX1        0.0000 
      7 O2         14.9580   66.2910   15.8760 O.2       1 JZX1        0.0000 
      8 S2         16.1120   67.1480   15.8470 S.o2      1 JZX1        0.0000 
      9 C3         21.4770   64.0310   20.8530 C.ar      1 JZX1        0.0000 
     10 N3         18.3420   67.1750   19.5610 N.4       1 JZX1        0.0000 
     11 O3         16.8960   66.8800   14.6740 O.2       1 JZX1        0.0000 
     12 C4         20.4820   63.3180   21.4770 C.ar      1 JZX1        0.0000 
     13 N4         19.7440   61.2270   22.5940 N.3       1 JZX1        0.0000 
     14 C5         19.9090   65.4730   20.8620 C.2       1 JZX1        0.0000 
     15 N5         17.0450   66.8380   17.1220 N.pl3     1 JZX1        0.0000 
     16 C6         21.1180   65.2320   20.5440 C.2       1 JZX1        0.0000 
     17 N6         26.2730   61.3340   19.7140 N.ar      1 JZX1        0.0000 
     18 C7         19.2530   66.8380   20.6730 C.3       1 JZX1        0.0000 
     19 N7         27.8120   59.6690   20.1990 N.pl3     1 JZX1        0.0000 
     20 C8         24.1920   61.4910   20.8130 C.ar      1 JZX1        0.0000 
     21 C9         17.1910   66.2560   19.4710 C.3       1 JZX1        0.0000 
     22 C10        16.2620   66.7550   18.3760 C.3       1 JZX1        0.0000 
     23 C11        18.1300   67.8360   17.2340 C.3       1 JZX1        0.0000 
     24 C12        19.0900   67.3370   18.2990 C.3       1 JZX1        0.0000 
     25 C13        20.1880   59.8460   22.8920 C.3       1 JZX1        0.0000 
     26 C14        19.4830   59.4210   24.1720 C.3       1 JZX1        0.0000 
     27 C15        17.6240   60.8390   23.5730 C.3       1 JZX1        0.0000 
     28 C16        18.3150   61.2450   22.2610 C.3       1 JZX1        0.0000 
     29 C17        25.1020   61.9600   19.8820 C.ar      1 JZX1        0.0000 
     30 C18        26.6170   60.2460   20.4270 C.ar      1 JZX1        0.0000 
     31 C19        24.5300   60.3630   21.5720 C.ar      1 JZX1        0.0000 
     32 C20        25.7520   59.7330   21.3770 C.ar      1 JZX1        0.0000 
     33 C21        15.5770   68.7290   15.8400 C.3       1 JZX1        0.0000 
     34 H          17.9181   68.2024   19.8110 H         1 JZX1        0.0000 
     35 H          21.7378   65.9020   20.0975 H         1 JZX1        0.0000 
     36 H          18.7220   67.0892   21.6691 H         1 JZX1        0.0000 
     37 H          20.1052   67.6193   20.6966 H         1 JZX1        0.0000 
     38 H          27.7889   58.7317   19.8514 H         1 JZX1        0.0000 
     39 H          28.6161   60.2293   20.3976 H         1 JZX1        0.0000 
     40 H          16.6458   66.2324   20.4094 H         1 JZX1        0.0000 
     41 H          17.5211   65.2526   19.2204 H         1 JZX1        0.0000 
     42 H          15.4410   66.0584   18.2665 H         1 JZX1        0.0000 
     43 H          15.8831   67.7302   18.6532 H         1 JZX1        0.0000 
     44 H          17.7357   68.7953   17.5364 H         1 JZX1        0.0000 
     45 H          18.6602   67.9293   16.2973 H         1 JZX1        0.0000 
     46 H          19.5084   66.3880   17.9784 H         1 JZX1        0.0000 
     47 H          19.8895   68.0615   18.4190 H         1 JZX1        0.0000 
     48 H          21.2543   59.8147   23.0512 H         1 JZX1        0.0000 
     49 H          19.9058   59.1751   22.0960 H         1 JZX1        0.0000 
     50 H          19.7701   58.3789   24.3853 H         1 JZX1        0.0000 
     51 H          19.8758   60.0394   24.9949 H         1 JZX1        0.0000 
     52 H          17.8271   61.6347   24.3129 H         1 JZX1        0.0000 
     53 H          16.5340   60.8507   23.3892 H         1 JZX1        0.0000 
     54 H          18.0787   60.5213   21.5134 H         1 JZX1        0.0000 
     55 H          17.9884   62.2248   21.9930 H         1 JZX1        0.0000 
     56 H          24.8568   62.8005   19.3228 H         1 JZX1        0.0000 
     57 H          23.8688   60.0055   22.2727 H         1 JZX1        0.0000 
     58 H          26.0042   58.9097   21.9237 H         1 JZX1        0.0000 
     59 H          16.3373   69.3783   15.8193 H         1 JZX1        0.0000 
     60 H          15.0037   68.9235   15.0441 H         1 JZX1        0.0000 
     61 H          15.0329   68.9406   16.6519 H         1 JZX1        0.0000 
@<TRIPOS>BOND
     1    2    1 ar   
     2    6    1 ar   
     3   20    1 1    
     4    9    2 ar   
     5   26    3 1    
     6   27    3 1    
     7   12    4 1    
     8   14    4 1    
     9    6    5 ar   
    10   12    5 ar   
    11   13    5 1    
    12    8    7 2    
    13   11    8 2    
    14   15    8 1    
    15   33    8 1    
    16   12    9 ar   
    17   16    9 1    
    18   18   10 1    
    19   21   10 1    
    20   24   10 1    
    21   34   10 1    
    22   25   13 1    
    23   28   13 1    
    24   16   14 2    
    25   18   14 1    
    26   22   15 1    
    27   23   15 1    
    28   35   16 1    
    29   29   17 ar   
    30   30   17 ar   
    31   36   18 1    
    32   37   18 1    
    33   30   19 1    
    34   38   19 1    
    35   39   19 1    
    36   29   20 ar   
    37   31   20 ar   
    38   22   21 1    
    39   40   21 1    
    40   41   21 1    
    41   42   22 1    
    42   43   22 1    
    43   24   23 1    
    44   44   23 1    
    45   45   23 1    
    46   46   24 1    
    47   47   24 1    
    48   26   25 1    
    49   48   25 1    
    50   49   25 1    
    51   50   26 1    
    52   51   26 1    
    53   28   27 1    
    54   52   27 1    
    55   53   27 1    
    56   54   28 1    
    57   55   28 1    
    58   56   29 1    
    59   32   30 ar   
    60   32   31 ar   
    61   57   31 1    
    62   58   32 1    
    63   59   33 1    
    64   60   33 1    
    65   61   33 1    
@<TRIPOS>SUBSTRUCTURE
     1 JZX1        1 GROUP   
@<TRIPOS>SET

