#    Name: 1i5b_ANP_1_INTS_M
#    Modification time : Tue Mar 25 06:41:01 2014

@<TRIPOS>MOLECULE
1i5b_ANP_1_INTS_M
   65     0    12     0     0
SMALL
NO_CHARGES


@<TRIPOS>ATOM
      1 Zn         22.4315   21.3655   70.6480 Zn        3 ZIC7        0.0000 
      2 Zn         22.3980   20.5490   69.6140 Zn       11 ZIL7        0.0000 
      3 Zn         22.4650   22.1820   71.6820 Zn        7 ZIP7        0.0000 
      4 N          21.1495   20.8950   70.5800 N.am      2 SEC2        0.0000 
      5 N          22.3980   20.5490   69.6140 N.am     10 SEL2        0.0000 
      6 N          19.9010   21.2410   71.5460 N.am      6 SEP2        0.0000 
      7 Zn         23.5280   22.6375   71.3680 Zn        3 ZIC7        0.0000 
      8 Zn         24.5910   23.0930   71.0540 Zn       11 ZIL7        0.0000 
      9 N          25.2130   23.8390   71.8900 N.am      2 SEC2        0.0000 
     10 N          24.5910   23.0930   71.0540 N.am     10 SEL2        0.0000 
     11 N          25.8350   24.5850   72.7260 N.am      6 SEP2        0.0000 
     12 Zn         21.9535   23.0360   70.9700 Zn        3 ZIC7        0.0000 
     13 Zn         21.4420   23.8900   70.2580 Zn       11 ZIL7        0.0000 
     14 N          20.6715   22.5655   70.9020 N.am      2 SEC2        0.0000 
     15 N          21.4420   23.8900   70.2580 N.am     10 SEL2        0.0000 
     16 N          21.0655   24.4975   71.4190 N.am      2 SEC2        0.0000 
     17 N          20.6890   25.1050   72.5800 N.am      6 SEP2        0.0000 
     18 N          20.0725   23.8565   67.8255 N.am      2 SEC2        0.0000 
     19 N          21.4430   24.3100   67.7560 N.am     10 SEL2        0.0000 
     20 N          18.7020   23.4030   67.8950 N.am      6 SEP2        0.0000 
     21 CA         24.0935   25.2910   66.7060 C.3       4 GLC5        0.0000 
     22 CA         23.7220   26.3510   68.5850 C.3      12 GLL5        0.0000 
     23 CA         24.4650   24.2310   64.8270 C.3       8 GLP5        0.0000 
     24 CA         21.9885   26.7290   69.1755 C.3       4 GLC5        0.0000 
     25 CA         20.2550   27.1070   69.7660 C.3       8 GLP5        0.0000 
     26 CA         25.4320   26.2400   71.6500 C.3       4 GLC5        0.0000 
     27 CA         25.5370   26.8250   69.8780 C.3      12 GLL5        0.0000 
     28 CA         25.3270   25.6550   73.4220 C.3       8 GLP5        0.0000 
     29 CA         26.2305   27.2035   72.2515 C.3       4 GLC5        0.0000 
     30 CA         26.0790   28.0010   70.6840 C.3      12 GLL5        0.0000 
     31 CA         26.3820   26.4060   73.8190 C.3       8 GLP5        0.0000 
     32 N          28.6900   28.1400   69.2870 N.am      2 SEC2        0.0000 
     33 N          27.2100   28.5180   69.9910 N.am     10 SEL2        0.0000 
     34 N          30.1700   27.7620   68.5830 N.am      6 SEP2        0.0000 
     35 CA         25.1080   27.2695   72.0285 C.3       4 GLC5        0.0000 
     36 CA         24.8890   28.8840   70.6350 C.3      12 GLL5        0.0000 
     37 CA         23.9440   30.8735   71.0835 C.3       4 GLC5        0.0000 
     38 CA         22.9990   32.8630   71.5320 C.3       8 GLP5        0.0000 
     39 CA         22.1715   27.4290   74.3060 C.3       4 GLC5        0.0000 
     40 CA         22.9730   29.3570   73.7520 C.3      12 GLL5        0.0000 
     41 CA         21.3700   25.5010   74.8600 C.3       8 GLP5        0.0000 
     42 CA         22.5885   28.8655   76.7950 C.3       4 GLC5        0.0000 
     43 CA         22.9700   30.0650   74.9950 C.3      12 GLL5        0.0000 
     44 CA         22.2070   27.6660   78.5950 C.3       8 GLP5        0.0000 
     45 CA         24.2945   30.1310   76.6035 C.3       4 GLC5        0.0000 
     46 CA         25.6190   30.1970   78.2120 C.3       8 GLP5        0.0000 
     47 CA         22.0160   31.7910   75.2580 C.3       4 GLC5        0.0000 
     48 CA         21.0620   33.5170   75.5210 C.3       8 GLP5        0.0000 
     49 O          21.6645   30.6840   77.1185 O.2       1 ALC1        0.0000 
     50 O          21.9520   29.9140   75.9010 O.2       9 ALL1        0.0000 
     51 O          21.3770   31.4540   78.3360 O.2       5 ALP1        0.0000 
     52 CA         25.7380   29.3900   74.5165 C.3       4 GLC5        0.0000 
     53 CA         25.0330   31.0940   74.4500 C.3      12 GLL5        0.0000 
     54 CA         26.4430   27.6860   74.5830 C.3       8 GLP5        0.0000 
     55 CA         25.3260   30.6455   76.3310 C.3       4 GLC5        0.0000 
     56 CA         25.2385   33.2585   74.8245 C.3       4 GLC5        0.0000 
     57 CA         25.4440   35.4230   75.1990 C.3       8 GLP5        0.0000 
     58 CA         25.1505   32.5275   73.0805 C.3       4 GLC5        0.0000 
     59 CA         25.2680   33.9610   71.7110 C.3       8 GLP5        0.0000 
     60 CA         23.0793   28.2095   67.6080 C.3       4 GLC5        0.0000 
     61 CA         24.7450   27.5130   68.7850 C.3      12 GLL5        0.0000 
     62 CA         21.9250   29.4870   66.5310 C.3       8 GLP5        0.0000 
     63 CA         24.9849   28.6813   74.1214 C.3       4 GLC5        0.0000 
     64 CA         24.0820   29.6420   72.9460 C.3      12 GLL5        0.0000 
     65 CA         23.2629   31.2697   72.5959 C.3       4 GLC5        0.0000 
@<TRIPOS>BOND
@<TRIPOS>SUBSTRUCTURE
     1 ALC1       49 GROUP        1 X    ALC  0     ROOT ALC X 1
     2 SEC2        4 GROUP        1 X    SEC  0     **** SEC X 2
     3 ZIC7        1 GROUP        1 X    ZIC  0     **** ZIC X 5
     4 GLC5       21 GROUP        1 X    GLC  0     **** GLC X 6
     5 ALP1       51 GROUP        1 Y    ALP  0     ROOT ALP Y 8
     6 SEP2        6 GROUP        1 Y    SEP  0     **** SEP Y 9
     7 ZIP7        3 GROUP        1 Y    ZIP  0     **** ZIP Y 12
     8 GLP5       23 GROUP        1 Y    GLP  0     **** GLP Y 13
     9 ALL1       50 GROUP        1 Z    ALL  0     ROOT ALL Z 15
    10 SEL2        5 GROUP        1 Z    SEL  0     **** SEL Z 16
    11 ZIL7        2 GROUP        1 Z    ZIL  0     **** ZIL Z 19
    12 GLL5       22 GROUP        1 Z    GLL  0     **** GLL Z 20
@<TRIPOS>SET

