#    Name: 1i5b_ANP_1_ligand
#    Modification time : Tue Mar 25 06:41:01 2014

@<TRIPOS>MOLECULE
1i5b_ANP_1_ligand
   43    45     1     0     0
SMALL
NO_CHARGES


@<TRIPOS>ATOM
      1 PG         23.7230   19.8660   69.6140 P.3       1 ANP998      0.0000 
      2 O1G        23.8130   18.8510   68.4710 O.co2     1 ANP998      0.0000 
      3 O2G        22.3980   20.5490   69.6140 O.co2     1 ANP998      0.0000 
      4 O3G        24.2600   19.3960   70.9670 O.co2     1 ANP998      0.0000 
      5 PB         24.7530   22.6420   69.6650 P.3       1 ANP998      0.0000 
      6 O1B        25.9980   23.2150   69.0430 O.co2     1 ANP998      0.0000 
      7 O2B        24.5910   23.0930   71.0540 O.co2     1 ANP998      0.0000 
      8 N3B        24.8930   21.0740   69.4250 N.4       1 ANP998      0.0000 
      9 PA         22.2320   24.3310   69.0410 P.3       1 ANP998      0.0000 
     10 O1A        21.4420   23.8900   70.2580 O.co2     1 ANP998      0.0000 
     11 O2A        21.4430   24.3100   67.7560 O.co2     1 ANP998      0.0000 
     12 O3A        23.5510   23.4540   68.8570 O.3       1 ANP998      0.0000 
     13 O5'        22.8870   25.7010   69.5690 O.3       1 ANP998      0.0000 
     14 C5'        23.7220   26.3510   68.5850 C.3       1 ANP998      0.0000 
     15 C4'        24.7450   27.5130   68.7850 C.3       1 ANP998      0.0000 
     16 O4'        24.1140   28.5570   69.4820 O.3       1 ANP998      0.0000 
     17 C3'        25.5370   26.8250   69.8780 C.3       1 ANP998      0.0000 
     18 O3'        26.5040   25.9400   69.3360 O.3       1 ANP998      0.0000 
     19 C2'        26.0790   28.0010   70.6840 C.3       1 ANP998      0.0000 
     20 O2'        27.2100   28.5180   69.9910 O.3       1 ANP998      0.0000 
     21 C1'        24.8890   28.8840   70.6350 C.3       1 ANP998      0.0000 
     22 N9         23.9170   28.8990   71.8140 N.pl3     1 ANP998      0.0000 
     23 C8         22.7530   28.2540   72.0150 C.2       1 ANP998      0.0000 
     24 N7         22.1350   28.4980   73.1710 N.2       1 ANP998      0.0000 
     25 C5         22.9730   29.3570   73.7520 C.ar      1 ANP998      0.0000 
     26 C6         22.9700   30.0650   74.9950 C.ar      1 ANP998      0.0000 
     27 N6         21.9520   29.9140   75.9010 N.pl3     1 ANP998      0.0000 
     28 N1         24.0060   30.9190   75.3240 N.ar      1 ANP998      0.0000 
     29 C2         25.0330   31.0940   74.4500 C.ar      1 ANP998      0.0000 
     30 N3         25.1140   30.4650   73.2450 N.ar      1 ANP998      0.0000 
     31 C4         24.0820   29.6420   72.9460 C.ar      1 ANP998      0.0000 
     32 H          23.0420   26.7077   67.6892 H         1 ANP998      0.0000 
     33 H          24.3252   25.5250   67.9969 H         1 ANP998      0.0000 
     34 H          25.2741   27.6769   67.9976 H         1 ANP998      0.0000 
     35 H          24.8052   26.3202   70.5076 H         1 ANP998      0.0000 
     36 H          26.2539   27.6698   71.6521 H         1 ANP998      0.0000 
     37 H          25.2362   29.9386   70.4996 H         1 ANP998      0.0000 
     38 H          22.3699   27.6151   71.3177 H         1 ANP998      0.0000 
     39 H          21.2009   29.3152   75.6231 H         1 ANP998      0.0000 
     40 H          22.0497   30.4159   76.7604 H         1 ANP998      0.0000 
     41 H          25.8170   31.7591   74.7221 H         1 ANP998      0.0000 
     42 H          26.0644   25.0418   69.3413 H         1 ANP998      0.0000 
     43 H          27.7750   27.7189   69.7856 H         1 ANP998      0.0000 
@<TRIPOS>BOND
     1    2    1 ar   
     2    3    1 ar   
     3    4    1 ar   
     4    8    1 1    
     5    6    5 ar   
     6    7    5 ar   
     7    8    5 1    
     8   12    5 1    
     9   10    9 ar   
    10   11    9 ar   
    11   12    9 1    
    12   13    9 1    
    13   14   13 1    
    14   15   14 1    
    15   32   14 1    
    16   33   14 1    
    17   16   15 1    
    18   17   15 1    
    19   34   15 1    
    20   21   16 1    
    21   18   17 1    
    22   19   17 1    
    23   35   17 1    
    24   42   18 1    
    25   20   19 1    
    26   21   19 1    
    27   36   19 1    
    28   43   20 1    
    29   22   21 1    
    30   37   21 1    
    31   23   22 1    
    32   31   22 1    
    33   24   23 2    
    34   38   23 1    
    35   25   24 1    
    36   26   25 ar   
    37   31   25 ar   
    38   27   26 1    
    39   28   26 ar   
    40   39   27 1    
    41   40   27 1    
    42   29   28 ar   
    43   30   29 ar   
    44   41   29 1    
    45   31   30 ar   
@<TRIPOS>SUBSTRUCTURE
     1 ANP998      1 GROUP   
@<TRIPOS>SET

