#    Name: 4hv4_AMP_2_INTS_M
#    Modification time : Tue Mar 25 01:48:15 2014

@<TRIPOS>MOLECULE
4hv4_AMP_2_INTS_M
   56     0    12     0     0
SMALL
NO_CHARGES


@<TRIPOS>ATOM
      1 N          22.0020   67.7125   35.6225 N.am      2 SEC2        0.0000 
      2 N          21.2440   68.7860   35.2140 N.am     10 SEL2        0.0000 
      3 N          22.7600   66.6390   36.0310 N.am      6 SEP2        0.0000 
      4 N          21.5245   67.9570   34.2645 N.am      2 SEC2        0.0000 
      5 N          21.8050   67.1280   33.3150 N.am      6 SEP2        0.0000 
      6 N          21.8140   71.5600   36.3965 N.am      2 SEC2        0.0000 
      7 N          20.7220   70.7280   36.7270 N.am     10 SEL2        0.0000 
      8 N          22.9060   72.3920   36.0660 N.am      6 SEP2        0.0000 
      9 NZ         17.9780   68.2395   37.1385 N.4       3 LYC4        0.0000 
     10 NZ         18.9230   69.0660   36.3770 N.4      11 LYL4        0.0000 
     11 NZ         16.6330   66.8430   36.7780 N.4       7 LYP4        0.0000 
     12 N          18.1125   68.0535   36.0115 N.am      2 SEC2        0.0000 
     13 N          18.9230   69.0660   36.3770 N.am     10 SEL2        0.0000 
     14 N          17.3020   67.0410   35.6460 N.am      6 SEP2        0.0000 
     15 N          17.9780   68.2395   37.1385 N.am      2 SEC2        0.0000 
     16 N          17.0330   67.4130   37.9000 N.am      6 SEP2        0.0000 
     17 CA         18.1075   68.9660   33.7790 C.3       4 GLC5        0.0000 
     18 CA         18.3740   70.9270   34.2890 C.3      12 GLL5        0.0000 
     19 CA         17.8410   67.0050   33.2690 C.3       8 GLP5        0.0000 
     20 CA         18.0485   74.0785   33.6965 C.3       4 GLC5        0.0000 
     21 CA         18.1260   72.1650   33.4340 C.3      12 GLL5        0.0000 
     22 CA         17.9710   75.9920   33.9590 C.3       8 GLP5        0.0000 
     23 CA         17.4020   73.8555   32.3700 C.3       4 GLC5        0.0000 
     24 CA         17.8100   71.8020   31.9850 C.3      12 GLL5        0.0000 
     25 CA         16.9940   75.9090   32.7550 C.3       8 GLP5        0.0000 
     26 N          15.6620   72.1255   31.0125 N.am      2 SEC2        0.0000 
     27 N          16.7440   72.6120   31.4650 N.am     10 SEL2        0.0000 
     28 N          14.5800   71.6390   30.5600 N.am      6 SEP2        0.0000 
     29 O          16.3125   72.8330   29.8410 O.2       1 ALC1        0.0000 
     30 O          16.7440   72.6120   31.4650 O.2       9 ALL1        0.0000 
     31 O          15.8810   73.0540   28.2170 O.2       5 ALP1        0.0000 
     32 CA         18.8520   74.5910   33.0285 C.3       4 GLC5        0.0000 
     33 CA         19.7330   73.1900   32.0980 C.3      12 GLL5        0.0000 
     34 N          24.1970   71.0245   32.3530 N.am      2 SEC2        0.0000 
     35 N          23.1640   72.0800   32.5330 N.am     10 SEL2        0.0000 
     36 N          25.2300   69.9690   32.1730 N.am      6 SEP2        0.0000 
     37 CA         23.5305   72.3565   33.9525 C.3       4 GLC5        0.0000 
     38 CA         23.2950   73.4110   32.2930 C.3      12 GLL5        0.0000 
     39 CA         23.7660   71.3020   35.6120 C.3       8 GLP5        0.0000 
     40 CA         24.3525   74.0780   30.4005 C.3       4 GLC5        0.0000 
     41 CA         24.4240   74.3400   32.2130 C.3      12 GLL5        0.0000 
     42 CA         24.2810   73.8160   28.5880 C.3       8 GLP5        0.0000 
     43 O          26.3150   72.5090   32.7200 O.2       1 ALC1        0.0000 
     44 O          25.6890   73.8960   32.3800 O.2       9 ALL1        0.0000 
     45 O          26.9410   71.1220   33.0600 O.2       5 ALP1        0.0000 
     46 CA         22.5720   75.8170   33.6175 C.3       4 GLC5        0.0000 
     47 CA         22.9400   76.0910   31.7720 C.3      12 GLL5        0.0000 
     48 CA         22.2040   75.5430   35.4630 C.3       8 GLP5        0.0000 
     49 CA         23.6105   74.9535   30.1800 C.3       4 GLC5        0.0000 
     50 CA         22.1015   77.7790   31.9025 C.3       4 GLC5        0.0000 
     51 CA         21.2630   79.4670   32.0330 C.3       8 GLP5        0.0000 
     52 CA         20.9160   72.3385   30.2608 C.3       4 GLC5        0.0000 
     53 CA         22.4420   72.0070   28.8610 C.3       8 GLP5        0.0000 
     54 CA         22.5560   72.8468   30.5287 C.3       4 GLC5        0.0000 
     55 CA         22.5781   74.7309   33.8197 C.3       4 GLC5        0.0000 
     56 CA         22.0450   73.9620   32.1000 C.3      12 GLL5        0.0000 
@<TRIPOS>BOND
@<TRIPOS>SUBSTRUCTURE
     1 ALC1       29 GROUP        1 X    ALC  0     ROOT ALC X 1
     2 SEC2        1 GROUP        1 X    SEC  0     **** SEC X 2
     3 LYC4        9 GROUP        1 X    LYC  0     **** LYC X 4
     4 GLC5       17 GROUP        1 X    GLC  0     **** GLC X 6
     5 ALP1       31 GROUP        1 Y    ALP  0     ROOT ALP Y 8
     6 SEP2        3 GROUP        1 Y    SEP  0     **** SEP Y 9
     7 LYP4       11 GROUP        1 Y    LYP  0     **** LYP Y 11
     8 GLP5       19 GROUP        1 Y    GLP  0     **** GLP Y 13
     9 ALL1       30 GROUP        1 Z    ALL  0     ROOT ALL Z 15
    10 SEL2        2 GROUP        1 Z    SEL  0     **** SEL Z 16
    11 LYL4       10 GROUP        1 Z    LYL  0     **** LYL Z 18
    12 GLL5       18 GROUP        1 Z    GLL  0     **** GLL Z 20
@<TRIPOS>SET

