#    Name: 4hv4_AMP_2_ligand
#    Modification time : Tue Mar 25 01:48:16 2014

@<TRIPOS>MOLECULE
4hv4_AMP_2_ligand
   35    37     1     0     0
SMALL
NO_CHARGES


@<TRIPOS>ATOM
      1 P          20.1900   69.7000   35.7860 P.3       1 AMP501      0.0000 
      2 O1P        21.2440   68.7860   35.2140 O.co2     1 AMP501      0.0000 
      3 O2P        20.7220   70.7280   36.7270 O.co2     1 AMP501      0.0000 
      4 O3P        18.9230   69.0660   36.3770 O.co2     1 AMP501      0.0000 
      5 O5'        19.7350   70.5320   34.4520 O.3       1 AMP501      0.0000 
      6 C5'        18.3740   70.9270   34.2890 C.3       1 AMP501      0.0000 
      7 C4'        18.1260   72.1650   33.4340 C.3       1 AMP501      0.0000 
      8 O4'        19.2380   73.0590   33.4380 O.3       1 AMP501      0.0000 
      9 C3'        17.8100   71.8020   31.9850 C.3       1 AMP501      0.0000 
     10 O3'        16.7440   72.6120   31.4650 O.3       1 AMP501      0.0000 
     11 C2'        19.0470   72.1500   31.2230 C.3       1 AMP501      0.0000 
     12 O2'        18.6770   72.7040   29.9640 O.3       1 AMP501      0.0000 
     13 C1'        19.7330   73.1900   32.0980 C.3       1 AMP501      0.0000 
     14 N9         21.1770   72.9790   32.2020 N.pl3     1 AMP501      0.0000 
     15 C8         21.8290   71.8270   32.4790 C.2       1 AMP501      0.0000 
     16 N7         23.1640   72.0800   32.5330 N.2       1 AMP501      0.0000 
     17 C5         23.2950   73.4110   32.2930 C.ar      1 AMP501      0.0000 
     18 C6         24.4240   74.3400   32.2130 C.ar      1 AMP501      0.0000 
     19 N6         25.6890   73.8960   32.3800 N.pl3     1 AMP501      0.0000 
     20 N1         24.1780   75.6390   31.9640 N.ar      1 AMP501      0.0000 
     21 C2         22.9400   76.0910   31.7720 C.ar      1 AMP501      0.0000 
     22 N3         21.8820   75.2840   31.8450 N.ar      1 AMP501      0.0000 
     23 C4         22.0450   73.9620   32.1000 C.ar      1 AMP501      0.0000 
     24 H          17.8887   71.1134   35.2868 H         1 AMP501      0.0000 
     25 H          17.7651   70.0922   33.8439 H         1 AMP501      0.0000 
     26 H          17.2368   72.6748   33.8322 H         1 AMP501      0.0000 
     27 H          17.6283   70.7728   31.9114 H         1 AMP501      0.0000 
     28 H          19.6642   71.3011   31.1519 H         1 AMP501      0.0000 
     29 H          19.5241   74.1660   31.7203 H         1 AMP501      0.0000 
     30 H          21.4179   70.9640   32.6166 H         1 AMP501      0.0000 
     31 H          25.7908   72.9207   32.5759 H         1 AMP501      0.0000 
     32 H          26.4112   74.5821   32.2930 H         1 AMP501      0.0000 
     33 H          22.7923   77.1169   31.5560 H         1 AMP501      0.0000 
     34 H          17.1392   73.0853   30.6777 H         1 AMP501      0.0000 
     35 H          18.2826   71.9412   29.4516 H         1 AMP501      0.0000 
@<TRIPOS>BOND
     1    2    1 ar   
     2    3    1 ar   
     3    4    1 ar   
     4    5    1 1    
     5    6    5 1    
     6    7    6 1    
     7   24    6 1    
     8   25    6 1    
     9    8    7 1    
    10    9    7 1    
    11   26    7 1    
    12   13    8 1    
    13   10    9 1    
    14   11    9 1    
    15   27    9 1    
    16   34   10 1    
    17   12   11 1    
    18   13   11 1    
    19   28   11 1    
    20   35   12 1    
    21   14   13 1    
    22   29   13 1    
    23   15   14 1    
    24   23   14 1    
    25   16   15 2    
    26   30   15 1    
    27   17   16 1    
    28   18   17 ar   
    29   23   17 ar   
    30   19   18 1    
    31   20   18 ar   
    32   31   19 1    
    33   32   19 1    
    34   21   20 ar   
    35   22   21 ar   
    36   33   21 1    
    37   23   22 ar   
@<TRIPOS>SUBSTRUCTURE
     1 AMP501      1 GROUP   
@<TRIPOS>SET

