#    Name: 1g5q_ASP_SER_TYR_THR_CYS_1_INTS_M
#    Modification time : Tue Mar 25 02:35:35 2014

@<TRIPOS>MOLECULE
1g5q_ASP_SER_TYR_THR_CYS_1_INTS_M
   75     0     9     0     0
SMALL
NO_CHARGES


@<TRIPOS>ATOM
      1 N         212.8985   81.6320   57.9960 N.am      2 SEC2        0.0000 
      2 N         212.8470   80.5920   57.1640 N.am      8 SEL2        0.0000 
      3 N         212.9500   82.6720   58.8280 N.am      5 SEP2        0.0000 
      4 N         207.7390   80.4175   56.5340 N.am      2 SEC2        0.0000 
      5 N         208.0940   79.4940   55.3770 N.am      8 SEL2        0.0000 
      6 N         207.3840   81.3410   57.6910 N.am      5 SEP2        0.0000 
      7 CA        206.4245   77.6070   56.4995 C.3       3 GLC5        0.0000 
      8 CA        207.4080   76.3830   55.1940 C.3       9 GLL5        0.0000 
      9 CA        205.4410   78.8310   57.8050 C.3       6 GLP5        0.0000 
     10 CA        206.4700   75.2020   56.2290 C.3       3 GLC5        0.0000 
     11 CA        205.5320   74.0210   57.2640 C.3       6 GLP5        0.0000 
     12 CA        207.0560   75.2370   53.3275 C.3       3 GLC5        0.0000 
     13 CA        206.7040   74.0910   51.4610 C.3       6 GLP5        0.0000 
     14 N         206.8355   74.1860   54.7505 N.am      2 SEC2        0.0000 
     15 N         207.8860   75.0520   55.1940 N.am      8 SEL2        0.0000 
     16 N         205.7850   73.3200   54.3070 N.am      5 SEP2        0.0000 
     17 O         207.1415   78.4525   52.1875 O.2       1 ALC1        0.0000 
     18 O         207.0360   79.1060   53.4350 O.2       7 ALL1        0.0000 
     19 O         207.2470   77.7990   50.9400 O.2       4 ALP1        0.0000 
     20 N         204.6800   78.4495   51.9160 N.am      2 SEC2        0.0000 
     21 N         204.3390   79.4270   53.0270 N.am      8 SEL2        0.0000 
     22 N         205.0210   77.4720   50.8050 N.am      5 SEP2        0.0000 
     23 CA        205.6020   81.0815   50.8165 C.3       3 GLC5        0.0000 
     24 CA        206.9550   81.1750   52.1290 C.3       9 GLL5        0.0000 
     25 CA        204.2490   80.9880   49.5040 C.3       6 GLP5        0.0000 
     26 O         213.0510   81.8765   50.6430 O.2       1 ALC1        0.0000 
     27 O         212.5680   82.0460   51.8940 O.2       7 ALL1        0.0000 
     28 O         213.5340   81.7070   49.3920 O.2       4 ALP1        0.0000 
     29 O         205.3805   82.2675   54.7060 O.2       1 ALC1        0.0000 
     30 O         204.3830   81.4940   53.9010 O.2       7 ALL1        0.0000 
     31 O         206.3780   83.0410   55.5110 O.2       4 ALP1        0.0000 
     32 CA        203.7015   83.1275   55.2115 C.3       3 GLC5        0.0000 
     33 CA        202.9460   81.6140   54.0060 C.3       9 GLL5        0.0000 
     34 CA        204.4570   84.6410   56.4170 C.3       6 GLP5        0.0000 
     35 N         204.1100   85.0315   54.2315 N.am      2 SEC2        0.0000 
     36 N         203.3330   83.9730   53.9180 N.am      8 SEL2        0.0000 
     37 N         204.8870   86.0900   54.5450 N.am      5 SEP2        0.0000 
     38 N         203.5800   79.8495   56.8325 N.am      2 SEC2        0.0000 
     39 N         202.8200   79.9850   55.7930 N.am      8 SEL2        0.0000 
     40 N         204.3400   79.7140   57.8720 N.am      5 SEP2        0.0000 
     41 CA        199.2390   80.5470   54.9285 C.3       3 GLC5        0.0000 
     42 CA        201.0120   81.5340   55.5980 C.3       9 GLL5        0.0000 
     43 CA        197.4660   79.5600   54.2590 C.3       6 GLP5        0.0000 
     44 CA        202.5125   85.5820   52.1650 C.3       3 GLC5        0.0000 
     45 CA        201.0400   84.5420   52.5280 C.3       9 GLL5        0.0000 
     46 CA        203.9850   86.6220   51.8020 C.3       6 GLP5        0.0000 
     47 N         202.1625   87.4640   54.2235 N.am      2 SEC2        0.0000 
     48 N         201.0100   86.4560   53.9330 N.am      8 SEL2        0.0000 
     49 N         203.3150   88.4720   54.5140 N.am      5 SEP2        0.0000 
     50 N         200.7235   87.5345   54.0875 N.am      2 SEC2        0.0000 
     51 N         200.4370   88.6130   54.2420 N.am      5 SEP2        0.0000 
     52 CA        202.2840   85.3075   50.0555 C.3       3 GLC5        0.0000 
     53 CA        200.6030   84.4060   49.7840 C.3       9 GLL5        0.0000 
     54 CA        203.9650   86.2090   50.3270 C.3       6 GLP5        0.0000 
     55 CA        201.0540   83.9365   48.2695 C.3       3 GLC5        0.0000 
     56 CA        201.5050   83.4670   46.7550 C.3       6 GLP5        0.0000 
     57 N         198.6835   83.7845   54.9905 N.am      2 SEC2        0.0000 
     58 N         199.6420   84.7980   54.4400 N.am      8 SEL2        0.0000 
     59 N         197.7250   82.7710   55.5410 N.am      5 SEP2        0.0000 
     60 O         199.3130   83.4640   54.1135 O.2       1 ALC1        0.0000 
     61 O         199.6420   84.7980   54.4400 O.2       7 ALL1        0.0000 
     62 O         198.9840   82.1300   53.7870 O.2       4 ALP1        0.0000 
     63 CA        210.2362   81.5070   49.0320 C.3       3 GLC5        0.0000 
     64 CA        209.2010   80.9650   50.9880 C.3       9 GLL5        0.0000 
     65 CA        210.5840   81.9440   47.1060 C.3       6 GLP5        0.0000 
     66 CA        209.3492   82.6240   55.0238 C.3       3 GLC5        0.0000 
     67 CA        210.4890   82.2740   53.0690 C.3       9 GLL5        0.0000 
     68 CA        208.8980   83.0830   56.9530 C.3       6 GLP5        0.0000 
     69 CA        211.8682   83.6543   53.1355 C.3       3 GLC5        0.0000 
     70 CA        212.8860   85.2570   53.7530 C.3       6 GLP5        0.0000 
     71 CA        202.4307   83.0875   56.3312 C.3       3 GLC5        0.0000 
     72 CA        202.4950   81.3360   55.4490 C.3       9 GLL5        0.0000 
     73 CA        203.1080   84.7400   57.1390 C.3       6 GLP5        0.0000 
     74 CA        201.3913   80.2115   57.2043 C.3       3 GLC5        0.0000 
     75 CA        201.0290   78.9880   58.8850 C.3       6 GLP5        0.0000 
@<TRIPOS>BOND
@<TRIPOS>SUBSTRUCTURE
     1 ALC1       17 GROUP        1 X    ALC  0     ROOT ALC X 1
     2 SEC2        1 GROUP        1 X    SEC  0     **** SEC X 2
     3 GLC5        7 GROUP        1 X    GLC  0     **** GLC X 6
     4 ALP1       19 GROUP        1 Y    ALP  0     ROOT ALP Y 8
     5 SEP2        3 GROUP        1 Y    SEP  0     **** SEP Y 9
     6 GLP5        9 GROUP        1 Y    GLP  0     **** GLP Y 13
     7 ALL1       18 GROUP        1 Z    ALL  0     ROOT ALL Z 15
     8 SEL2        2 GROUP        1 Z    SEL  0     **** SEL Z 16
     9 GLL5        8 GROUP        1 Z    GLL  0     **** GLL Z 20
@<TRIPOS>SET

