#    Name: 1g5q_ASP_SER_TYR_THR_CYS_1_ligand
#    Modification time : Tue Mar 25 02:35:35 2014

@<TRIPOS>MOLECULE
1g5q_ASP_SER_TYR_THR_CYS_1_ligand
   72    72     5     0     0
SMALL
NO_CHARGES


@<TRIPOS>ATOM
      1 N         213.0880   78.3870   54.3260 N.4       1 ASP401      0.0000
      2 CA        212.0420   77.7440   55.1780 C.3       1 ASP401      0.0000
      3 C         210.7500   77.6030   54.3750 C.2       1 ASP401      0.0000
      4 O         210.7590   77.6500   53.1450 O.2       1 ASP401      0.0000
      5 CB        211.7510   78.6050   56.4200 C.3       1 ASP401      0.0000
      6 CG        212.9770   79.3680   56.9180 C.2       1 ASP401      0.0000
      7 OD1       214.0600   78.7480   57.0690 O.co2     1 ASP401      0.0000
      8 OD2       212.8470   80.5920   57.1640 O.co2     1 ASP401      0.0000
      9 HA        212.3589   76.7765   55.4954 H         1 ASP401      0.0000
     10 HB2       211.3806   77.9542   57.2216 H         1 ASP401      0.0000
     11 HB3       210.9557   79.3198   56.1754 H         1 ASP401      0.0000
     12 HNCA      213.2865   77.8451   53.5093 H         1 ASP401      0.0000
     13 H         212.8068   79.2947   54.0143 H         1 ASP401      0.0000
     14 H         213.9504   78.5005   54.8192 H         1 ASP401      0.0000
     15 N         209.6410   77.4140   55.0780 N.am      2 SER402      0.0000
     16 CA        208.3490   77.3140   54.4220 C.3       2 SER402      0.0000
     17 C         207.8050   78.7360   54.4490 C.2       2 SER402      0.0000
     18 O         208.0940   79.4940   55.3770 O.2       2 SER402      0.0000
     19 CB        207.4080   76.3830   55.1940 C.3       2 SER402      0.0000
     20 OG        207.8860   75.0520   55.1940 O.3       2 SER402      0.0000
     21 HNCA      209.6384   77.3295   56.1113 H         2 SER402      0.0000
     22 HA        208.4426   77.0011   53.4220 H         2 SER402      0.0000
     23 HB2       206.4109   76.4641   54.7265 H         2 SER402      0.0000
     24 HB3       207.3131   76.7881   56.2168 H         2 SER402      0.0000
     25 HG        208.0986   75.4984   56.0633 H         2 SER402      0.0000
     26 N         207.0360   79.1060   53.4350 N.am      3 TYR403      0.0000
     27 CA        206.4800   80.4450   53.3850 C.3       3 TYR403      0.0000
     28 C         204.9640   80.4080   53.4200 C.2       3 TYR403      0.0000
     29 O         204.3390   79.4270   53.0270 O.2       3 TYR403      0.0000
     30 CB        206.9550   81.1750   52.1290 C.3       3 TYR403      0.0000
     31 CG        208.4480   81.4000   52.0810 C.ar      3 TYR403      0.0000
     32 CD1       209.2010   80.9650   50.9880 C.ar      3 TYR403      0.0000
     33 CD2       209.1120   82.0560   53.1200 C.ar      3 TYR403      0.0000
     34 CE1       210.5760   81.1750   50.9280 C.ar      3 TYR403      0.0000
     35 CE2       210.4890   82.2740   53.0690 C.ar      3 TYR403      0.0000
     36 CZ        211.2120   81.8290   51.9670 C.ar      3 TYR403      0.0000
     37 OH        212.5680   82.0460   51.8940 O.3       3 TYR403      0.0000
     38 HNCA      206.7985   78.4784   52.6488 H         3 TYR403      0.0000
     39 HA        206.8202   81.0240   54.2459 H         3 TYR403      0.0000
     40 HB2       206.4367   82.1476   52.0690 H         3 TYR403      0.0000
     41 HB3       206.6444   80.5931   51.2441 H         3 TYR403      0.0000
     42 HD1       208.7253   80.4768   50.2078 H         3 TYR403      0.0000
     43 HD2       208.5741   82.3849   53.9393 H         3 TYR403      0.0000
     44 HE1       211.1100   80.8450   50.1162 H         3 TYR403      0.0000
     45 HE2       210.9620   82.7578   53.8373 H         3 TYR403      0.0000
     46 HH        212.8661   81.5486   51.0793 H         3 TYR403      0.0000
     47 N         204.3830   81.4940   53.9010 N.am      4 THR404      0.0000
     48 CA        202.9460   81.6140   54.0060 C.3       4 THR404      0.0000
     49 C         202.5890   83.0400   53.6180 C.2       4 THR404      0.0000
     50 O         203.3330   83.9730   53.9180 O.2       4 THR404      0.0000
     51 CB        202.4950   81.3360   55.4490 C.3       4 THR404      0.0000
     52 OG1       202.8200   79.9850   55.7930 O.3       4 THR404      0.0000
     53 CG2       201.0120   81.5340   55.5980 C.3       4 THR404      0.0000
     54 HNCA      204.9342   82.3208   54.2297 H         4 THR404      0.0000
     55 HA        202.4498   80.9423   53.3476 H         4 THR404      0.0000
     56 HB        203.0076   82.0296   56.0971 H         4 THR404      0.0000
     57 HG21      200.7053   81.3536   56.5326 H         4 THR404      0.0000
     58 HG22      200.7380   82.4695   55.3750 H         4 THR404      0.0000
     59 HG23      200.4938   80.9256   54.9969 H         4 THR404      0.0000
     60 HG1       203.3297   79.6336   55.0077 H         4 THR404      0.0000
     61 N         201.4690   83.2100   52.9290 N.am      5 CYS405      0.0000
     62 CA        201.0400   84.5420   52.5280 C.3       5 CYS405      0.0000
     63 C         200.5240   85.3250   53.7260 C.2       5 CYS405      0.0000
     64 O         201.0100   86.4560   53.9330 O.2       5 CYS405      0.0000
     65 CB        199.9530   84.4580   51.4600 C.3       5 CYS405      0.0000
     66 SG        200.6030   84.4060   49.7840 S.3       5 CYS405      0.0000
     67 OXT       199.6420   84.7980   54.4400 O.3       5 CYS405      0.0000
     68 HNCA      200.8556   82.4268   52.6465 H         5 CYS405      0.0000
     69 HA        201.8772   85.0938   52.1045 H         5 CYS405      0.0000
     70 HB2       199.3114   85.3226   51.4371 H         5 CYS405      0.0000
     71 HB3       199.3714   83.5534   51.5152 H         5 CYS405      0.0000
     72 H         199.5280   83.8754   54.0715 H         5 CYS405      0.0000
@<TRIPOS>BOND
     1    2    1 1
     2   12    1 1
     3   13    1 1
     4   14    1 1
     5    3    2 1
     6    5    2 1
     7    9    2 1
     8    4    3 2
     9    6    5 1
    10   10    5 1
    11   11    5 1
    12    7    6 ar
    13    8    6 ar
    14   16   15 1
    15   21   15 1
    16   17   16 1
    17   19   16 1
    18   22   16 1
    19   18   17 2
    20   20   19 1
    21   23   19 1
    22   24   19 1
    23   25   20 1
    24   27   26 1
    25   38   26 1
    26   28   27 1
    27   30   27 1
    28   39   27 1
    29   29   28 2
    30   31   30 1
    31   40   30 1
    32   41   30 1
    33   32   31 ar
    34   33   31 ar
    35   34   32 ar
    36   42   32 1
    37   35   33 ar
    38   43   33 1
    39   36   34 ar
    40   44   34 1
    41   36   35 ar
    42   45   35 1
    43   37   36 1
    44   46   37 1
    45   48   47 1
    46   54   47 1
    47   49   48 1
    48   51   48 1
    49   55   48 1
    50   50   49 2
    51   52   51 1
    52   53   51 1
    53   56   51 1
    54   60   52 1
    55   57   53 1
    56   58   53 1
    57   59   53 1
    58   62   61 1
    59   68   61 1
    60   63   62 1
    61   65   62 1
    62   69   62 1
    63   64   63 2
    64   67   63 1
    65   66   65 1
    66   70   65 1
    67   71   65 1
    68   72   67 1
    69   15    3 am
    70   26   17 am
    71   47   28 am
    72   61   49 am
@<TRIPOS>SUBSTRUCTURE
     1 ASP401      1 RESIDUE
     2 SER402     15 RESIDUE
     3 TYR403     26 RESIDUE
     4 THR404     47 RESIDUE
     5 CYS405     61 RESIDUE
@<TRIPOS>SET

