#    Name: 2c92_TP6_2_INTS_M
#    Modification time : Mon Mar 24 23:14:02 2014

@<TRIPOS>MOLECULE
2c92_TP6_2_INTS_M
   88     0    12     0     0
SMALL
NO_CHARGES


@<TRIPOS>ATOM
      1 NZ         -3.5125   18.7230    7.7510 N.4       3 LYC4        0.0000 
      2 NZ         -4.7260   17.9960    7.4710 N.4      11 LYL4        0.0000 
      3 NZ         -1.9470   19.9210    9.2160 N.4       7 LYP4        0.0000 
      4 N          -4.4610   16.9160    6.6075 N.am      2 SEC2        0.0000 
      5 N          -4.7260   17.9960    7.4710 N.am     10 SEL2        0.0000 
      6 N          -4.1960   15.8360    5.7440 N.am      6 SEP2        0.0000 
      7 N          -3.5125   18.7230    7.7510 N.am      2 SEC2        0.0000 
      8 N          -2.2990   19.4500    8.0310 N.am      6 SEP2        0.0000 
      9 N          -3.8550   15.2925    8.3075 N.am      2 SEC2        0.0000 
     10 N          -4.9560   15.9740    8.9190 N.am     10 SEL2        0.0000 
     11 N          -2.7540   14.6110    7.6960 N.am      6 SEP2        0.0000 
     12 N          -4.1665   15.4890    9.8205 N.am      2 SEC2        0.0000 
     13 N          -3.3770   15.0040   10.7220 N.am      6 SEP2        0.0000 
     14 NZ         -3.9115   19.0045   10.1170 N.4       3 LYC4        0.0000 
     15 NZ         -5.1010   18.2960    9.9520 N.4      11 LYL4        0.0000 
     16 N          -3.9115   19.0045   10.1170 N.am      2 SEC2        0.0000 
     17 N          -5.1010   18.2960    9.9520 N.am     10 SEL2        0.0000 
     18 N          -2.7220   19.7130   10.2820 N.am      6 SEP2        0.0000 
     19 CA         -9.3175   13.6540   10.0430 C.3       4 GLC5        0.0000 
     20 CA         -9.7930   15.5090    9.6650 C.3      12 GLL5        0.0000 
     21 CA         -8.8420   11.7990   10.4210 C.3       8 GLP5        0.0000 
     22 CA        -10.7235   15.0070   12.4055 C.3       4 GLC5        0.0000 
     23 CA        -10.6640   16.0820   10.4980 C.3      12 GLL5        0.0000 
     24 CA        -10.7830   13.9320   14.3130 C.3       8 GLP5        0.0000 
     25 CA        -11.6000   19.5045   10.9835 C.3       4 GLC5        0.0000 
     26 CA        -10.9110   17.5650   10.5230 C.3      12 GLL5        0.0000 
     27 CA        -12.2890   21.4440   11.4440 C.3       8 GLP5        0.0000 
     28 CA        -13.3800   19.2350   11.1120 C.3       4 GLC5        0.0000 
     29 CA        -13.3110   17.5130   11.3900 C.3      12 GLL5        0.0000 
     30 CA        -13.4490   20.9570   10.8340 C.3       8 GLP5        0.0000 
     31 N         -14.3100   17.5550    7.8790 N.am      2 SEC2        0.0000 
     32 N         -13.6560   16.6360    9.1840 N.am     10 SEL2        0.0000 
     33 N         -14.9640   18.4740    6.5740 N.am      6 SEP2        0.0000 
     34 N         -13.6910   15.5700    7.8770 N.am      2 SEC2        0.0000 
     35 N         -13.7260   14.5040    6.5700 N.am      6 SEP2        0.0000 
     36 O         -16.2775   16.4230    9.5845 O.2       1 ALC1        0.0000 
     37 O         -15.4760   16.8630   10.5650 O.2       9 ALL1        0.0000 
     38 O         -17.0790   15.9830    8.6040 O.2       5 ALP1        0.0000 
     39 CA        -14.3350   19.4240   12.0740 C.3       4 GLC5        0.0000 
     40 CA        -13.9620   17.8780   12.6690 C.3      12 GLL5        0.0000 
     41 CA        -14.7080   20.9700   11.4790 C.3       8 GLP5        0.0000 
     42 N         -18.4725   17.7180   12.4370 N.am      2 SEC2        0.0000 
     43 N         -17.2780   17.0890   11.9230 N.am     10 SEL2        0.0000 
     44 N         -19.6670   18.3470   12.9510 N.am      6 SEP2        0.0000 
     45 N         -17.4040   16.8485   13.3905 N.am      2 SEC2        0.0000 
     46 N         -17.5300   16.6080   14.8580 N.am      6 SEP2        0.0000 
     47 CA        -13.7920   16.5775   16.8170 C.3       4 GLC5        0.0000 
     48 CA        -14.0300   18.3150   15.7530 C.3      12 GLL5        0.0000 
     49 CA        -13.5540   14.8400   17.8810 C.3       8 GLP5        0.0000 
     50 N         -15.4955   16.0675   16.2570 N.am      2 SEC2        0.0000 
     51 N         -14.4910   16.9900   15.5060 N.am     10 SEL2        0.0000 
     52 N         -16.5000   15.1450   17.0080 N.am      6 SEP2        0.0000 
     53 CA        -14.2335   16.9705   17.9910 C.3       4 GLC5        0.0000 
     54 CA        -13.7670   18.5820   17.2180 C.3      12 GLL5        0.0000 
     55 CA        -14.7000   15.3590   18.7640 C.3       8 GLP5        0.0000 
     56 O         -15.7160   19.3255   17.9370 O.2       1 ALC1        0.0000 
     57 O         -14.6850   19.6580   17.3360 O.2       9 ALL1        0.0000 
     58 O         -16.7470   18.9930   18.5380 O.2       5 ALP1        0.0000 
     59 CA        -12.9725   16.9590   17.7800 C.3       4 GLC5        0.0000 
     60 CA        -12.3910   19.0780   17.6790 C.3      12 GLL5        0.0000 
     61 O         -10.3860   18.3285   18.6180 O.2       1 ALC1        0.0000 
     62 O         -11.4340   18.0130   17.7330 O.2       9 ALL1        0.0000 
     63 O          -9.3380   18.6440   19.5030 O.2       5 ALP1        0.0000 
     64 CA        -12.6590   19.9720   21.2130 C.3       4 GLC5        0.0000 
     65 CA        -12.5330   19.6450   19.0910 C.3      12 GLL5        0.0000 
     66 CA        -12.7850   20.2990   23.3350 C.3       8 GLP5        0.0000 
     67 CA        -11.2195   18.4755   20.2710 C.3       4 GLC5        0.0000 
     68 CA         -9.9060   17.3060   21.4510 C.3       8 GLP5        0.0000 
     69 CA        -11.8030   21.2945   19.8245 C.3       4 GLC5        0.0000 
     70 CA        -11.0730   22.9440   20.5580 C.3       8 GLP5        0.0000 
     71 CA        -13.9775   20.9290   19.5075 C.3       4 GLC5        0.0000 
     72 CA        -15.4220   22.2130   19.9240 C.3       8 GLP5        0.0000 
     73 N         -12.1330   18.2525   20.9215 N.am      2 SEC2        0.0000 
     74 N         -13.0850   18.6490   19.9750 N.am     10 SEL2        0.0000 
     75 N         -11.1810   17.8560   21.8680 N.am      6 SEP2        0.0000 
     76 O         -14.3795   18.5690   20.1690 O.2       1 ALC1        0.0000 
     77 O         -13.0850   18.6490   19.9750 O.2       9 ALL1        0.0000 
     78 O         -15.6740   18.4890   20.3630 O.2       5 ALP1        0.0000 
     79 CA         -7.4865   16.1210    7.2485 C.3       4 GLC5        0.0000 
     80 CA         -8.9460   16.2730    8.7520 C.3      12 GLL5        0.0000 
     81 CA         -6.5930   15.7260    5.4860 C.3       8 GLP5        0.0000 
     82 CA        -11.8048   14.4723    9.9787 C.3       4 GLC5        0.0000 
     83 CA        -13.3810   13.1490    9.8760 C.3       8 GLP5        0.0000 
     84 CA        -13.5762   20.2888   14.3320 C.3       4 GLC5        0.0000 
     85 CA        -12.9690   18.8580   14.8190 C.3      12 GLL5        0.0000 
     86 CA        -13.6530   21.9910   13.3780 C.3       8 GLP5        0.0000 
     87 CA        -15.7218   18.6992   15.9078 C.3       4 GLC5        0.0000 
     88 CA        -17.5450   18.9500   15.3300 C.3       8 GLP5        0.0000 
@<TRIPOS>BOND
@<TRIPOS>SUBSTRUCTURE
     1 ALC1       36 GROUP        1 X    ALC  0     ROOT ALC X 1
     2 SEC2        4 GROUP        1 X    SEC  0     **** SEC X 2
     3 LYC4        1 GROUP        1 X    LYC  0     **** LYC X 4
     4 GLC5       19 GROUP        1 X    GLC  0     **** GLC X 6
     5 ALP1       38 GROUP        1 Y    ALP  0     ROOT ALP Y 8
     6 SEP2        6 GROUP        1 Y    SEP  0     **** SEP Y 9
     7 LYP4        3 GROUP        1 Y    LYP  0     **** LYP Y 11
     8 GLP5       21 GROUP        1 Y    GLP  0     **** GLP Y 13
     9 ALL1       37 GROUP        1 Z    ALL  0     ROOT ALL Z 15
    10 SEL2        5 GROUP        1 Z    SEL  0     **** SEL Z 16
    11 LYL4        2 GROUP        1 Z    LYL  0     **** LYL Z 18
    12 GLL5       20 GROUP        1 Z    GLL  0     **** GLL Z 20
@<TRIPOS>SET

