#    Name: 2c92_TP6_2_ligand
#    Modification time : Mon Mar 24 23:14:02 2014

@<TRIPOS>MOLECULE
2c92_TP6_2_ligand
   54    55     1     0     0
SMALL
NO_CHARGES


@<TRIPOS>ATOM
      1 O2P        -4.7260   17.9960    7.4710 O.co2     1 TP6701      0.0000 
      2 P          -5.3220   17.4170    8.7550 P.3       1 TP6701      0.0000 
      3 O3P        -4.9560   15.9740    8.9190 O.co2     1 TP6701      0.0000 
      4 O1P        -5.1010   18.2960    9.9520 O.co2     1 TP6701      0.0000 
      5 O27        -6.8970   17.5030    8.4290 O.3       1 TP6701      0.0000 
      6 C19        -7.8140   16.7590    9.2700 C.3       1 TP6701      0.0000 
      7 C18        -8.9460   16.2730    8.7520 C.3       1 TP6701      0.0000 
      8 C17        -9.7930   15.5090    9.6650 C.3       1 TP6701      0.0000 
      9 C16       -10.6640   16.0820   10.4980 C.3       1 TP6701      0.0000 
     10 C15       -10.9110   17.5650   10.5230 C.3       1 TP6701      0.0000 
     11 N5        -11.9950   17.7650   11.4820 N.am      1 TP6701      0.0000 
     12 C9        -13.3110   17.5130   11.3900 C.2       1 TP6701      0.0000 
     13 C4        -14.1450   16.9760   10.2920 C.2       1 TP6701      0.0000 
     14 O2        -13.6560   16.6360    9.1840 O.2       1 TP6701      0.0000 
     15 N3        -15.4760   16.8630   10.5650 N.am      1 TP6701      0.0000 
     16 C6        -11.8640   18.2490   12.7200 C.2       1 TP6701      0.0000 
     17 O4        -10.7300   18.6120   13.2170 O.2       1 TP6701      0.0000 
     18 N7        -12.9710   18.3390   13.4560 N.am      1 TP6701      0.0000 
     19 C8        -13.9620   17.8780   12.6690 C.2       1 TP6701      0.0000 
     20 N1        -15.3020   17.7120   12.7900 N.am      1 TP6701      0.0000 
     21 C2        -16.0360   17.2070   11.7600 C.2       1 TP6701      0.0000 
     22 O1        -17.2780   17.0890   11.9230 O.2       1 TP6701      0.0000 
     23 C10       -12.9690   18.8580   14.8190 C.3       1 TP6701      0.0000 
     24 C11       -14.0300   18.3150   15.7530 C.3       1 TP6701      0.0000 
     25 O19       -14.4910   16.9900   15.5060 O.3       1 TP6701      0.0000 
     26 C12       -13.7670   18.5820   17.2180 C.3       1 TP6701      0.0000 
     27 O21       -14.6850   19.6580   17.3360 O.3       1 TP6701      0.0000 
     28 C13       -12.3910   19.0780   17.6790 C.3       1 TP6701      0.0000 
     29 O23       -11.4340   18.0130   17.7330 O.3       1 TP6701      0.0000 
     30 C14       -12.5330   19.6450   19.0910 C.3       1 TP6701      0.0000 
     31 O26       -13.0850   18.6490   19.9750 O.3       1 TP6701      0.0000 
     32 H          -8.0319   17.4246   10.1932 H         1 TP6701      0.0000 
     33 H          -7.1945   15.9200    9.7751 H         1 TP6701      0.0000 
     34 H          -8.7487   15.6088    7.8455 H         1 TP6701      0.0000 
     35 H          -9.5966   17.0959    8.3032 H         1 TP6701      0.0000 
     36 H          -9.0695   14.7968   10.2512 H         1 TP6701      0.0000 
     37 H         -10.3254   14.6997    9.0048 H         1 TP6701      0.0000 
     38 H         -10.4419   15.7950   11.6080 H         1 TP6701      0.0000 
     39 H         -11.7241   15.6018   10.4003 H         1 TP6701      0.0000 
     40 H         -11.2006   17.8938    9.5386 H         1 TP6701      0.0000 
     41 H         -10.0142   18.0694   10.8430 H         1 TP6701      0.0000 
     42 H         -16.1139   16.4852    9.8030 H         1 TP6701      0.0000 
     43 H         -15.7788   17.9731   13.6809 H         1 TP6701      0.0000 
     44 H         -13.0672   19.9770   14.8028 H         1 TP6701      0.0000 
     45 H         -11.9680   18.6775   15.2960 H         1 TP6701      0.0000 
     46 H         -14.9651   19.0127   15.5334 H         1 TP6701      0.0000 
     47 H         -14.1120   17.7668   17.7928 H         1 TP6701      0.0000 
     48 H         -12.0749   19.8701   17.0353 H         1 TP6701      0.0000 
     49 H         -13.1761   20.5312   19.0355 H         1 TP6701      0.0000 
     50 H         -11.5408   19.9707   19.4251 H         1 TP6701      0.0000 
     51 H         -13.6940   16.5006   15.1519 H         1 TP6701      0.0000 
     52 H         -15.5875   19.2277   17.3509 H         1 TP6701      0.0000 
     53 H         -10.7251   18.3338   18.3612 H         1 TP6701      0.0000 
     54 H         -14.0708   18.8171   19.9707 H         1 TP6701      0.0000 
@<TRIPOS>BOND
     1    2    1 ar   
     2    3    2 ar   
     3    4    2 ar   
     4    5    2 1    
     5    6    5 1    
     6    7    6 1    
     7   32    6 1    
     8   33    6 1    
     9    8    7 1    
    10   34    7 1    
    11   35    7 1    
    12    9    8 1    
    13   36    8 1    
    14   37    8 1    
    15   10    9 1    
    16   38    9 1    
    17   39    9 1    
    18   11   10 1    
    19   40   10 1    
    20   41   10 1    
    21   12   11 1    
    22   16   11 am   
    23   13   12 1    
    24   19   12 2    
    25   14   13 2    
    26   15   13 1    
    27   21   15 1    
    28   42   15 1    
    29   17   16 2    
    30   18   16 am   
    31   19   18 1    
    32   23   18 1    
    33   20   19 1    
    34   21   20 1    
    35   43   20 1    
    36   22   21 2    
    37   24   23 1    
    38   44   23 1    
    39   45   23 1    
    40   25   24 1    
    41   26   24 1    
    42   46   24 1    
    43   51   25 1    
    44   27   26 1    
    45   28   26 1    
    46   47   26 1    
    47   52   27 1    
    48   29   28 1    
    49   30   28 1    
    50   48   28 1    
    51   53   29 1    
    52   31   30 1    
    53   49   30 1    
    54   50   30 1    
    55   54   31 1    
@<TRIPOS>SUBSTRUCTURE
     1 TP6701      1 GROUP   
@<TRIPOS>SET

