#    Name: 4acu_QN7_1_INTS_M
#    Modification time : Tue Mar 25 05:30:19 2014

@<TRIPOS>MOLECULE
4acu_QN7_1_INTS_M
   60     0    12     0     0
SMALL
NO_CHARGES


@<TRIPOS>ATOM
      1 CA          0.8830   -4.2870  -17.8870 C.3       4 GLC5        0.0000 
      2 CA          1.3900   -3.1140  -16.4730 C.3      12 GLL5        0.0000 
      3 CA          0.3760   -5.4600  -19.3010 C.3       8 GLP5        0.0000 
      4 CA          1.2410   -1.2130  -17.2490 C.3       4 GLC5        0.0000 
      5 CA          1.0920    0.6880  -18.0250 C.3       8 GLP5        0.0000 
      6 CA          2.2235   -1.3710  -15.5985 C.3       4 GLC5        0.0000 
      7 CA          3.0570    0.3720  -14.7240 C.3       8 GLP5        0.0000 
      8 CA          2.1315   -3.0030  -14.6035 C.3       4 GLC5        0.0000 
      9 CA          2.8730   -2.8920  -12.7340 C.3       8 GLP5        0.0000 
     10 CA         -0.0905   -3.1355  -14.9875 C.3       4 GLC5        0.0000 
     11 CA         -1.5710   -3.1570  -13.5020 C.3       8 GLP5        0.0000 
     12 CA          1.7065   -2.9570  -19.9955 C.3       4 GLC5        0.0000 
     13 CA          2.9620   -2.9570  -18.2380 C.3      12 GLL5        0.0000 
     14 CA          0.4510   -2.9570  -21.7530 C.3       8 GLP5        0.0000 
     15 CA          6.5830   -3.7765  -21.3430 C.3       4 GLC5        0.0000 
     16 CA          6.0820   -1.6970  -21.7680 C.3      12 GLL5        0.0000 
     17 CA          7.0840   -5.8560  -20.9180 C.3       8 GLP5        0.0000 
     18 CA          8.5065   -1.4230  -23.6785 C.3       4 GLC5        0.0000 
     19 CA          6.6810   -0.7380  -22.5690 C.3      12 GLL5        0.0000 
     20 CA         10.3320   -2.1080  -24.7880 C.3       8 GLP5        0.0000 
     21 CA          9.5505    2.7925  -19.6585 C.3       4 GLC5        0.0000 
     22 CA          8.0510    2.8720  -18.1000 C.3      12 GLL5        0.0000 
     23 CA         11.0500    2.7130  -21.2170 C.3       8 GLP5        0.0000 
     24 OD1         2.5050    3.5260  -20.1875 O.co2     3 ASC3        0.0000 
     25 OD1         4.1560    3.2420  -19.2890 O.co2    11 ASL3        0.0000 
     26 OD1         0.6870    3.3890  -19.9560 O.co2     7 ASP3        0.0000 
     27 OD1         3.0510    3.1000  -21.1410 O.co2     3 ASC3        0.0000 
     28 OD1         1.9700    3.4010  -21.7800 O.co2     7 ASP3        0.0000 
     29 O           3.0510    3.1000  -21.1410 O.2       1 ALC1        0.0000 
     30 O           4.1320    2.7990  -20.5020 O.2       9 ALL1        0.0000 
     31 O           1.9700    3.4010  -21.7800 O.2       5 ALP1        0.0000 
     32 O           1.8635    3.5200  -19.2755 O.2       1 ALC1        0.0000 
     33 O           3.0400    3.6510  -18.5950 O.2       9 ALL1        0.0000 
     34 O           0.6870    3.3890  -19.9560 O.2       5 ALP1        0.0000 
     35 O           2.5050    3.5260  -20.1875 O.2       1 ALC1        0.0000 
     36 O           2.8055    4.0015  -17.1735 O.2       1 ALC1        0.0000 
     37 O           2.5710    4.3520  -15.7520 O.2       5 ALP1        0.0000 
     38 N           7.3350    5.0815  -25.5450 N.am      2 SEC2        0.0000 
     39 N           6.7200    5.1540  -24.1030 N.am     10 SEL2        0.0000 
     40 N           7.9500    5.0090  -26.9870 N.am      6 SEP2        0.0000 
     41 CA          1.8642   -4.4645  -18.6445 C.3       4 GLC5        0.0000 
     42 CA          3.8287   -5.9373  -18.2858 C.3       4 GLC5        0.0000 
     43 CA          3.7430   -3.9810  -17.7380 C.3      12 GLL5        0.0000 
     44 CA          3.2840   -7.7990  -18.5680 C.3       8 GLP5        0.0000 
     45 CA          6.0365   -4.4358  -20.0881 C.3       4 GLC5        0.0000 
     46 CA          4.7280   -2.2900  -19.7650 C.3      12 GLL5        0.0000 
     47 CA          2.5570   -1.3878  -21.1056 C.3       4 GLC5        0.0000 
     48 CA          1.7440   -1.0650  -22.5680 C.3       8 GLP5        0.0000 
     49 CA          2.0103   -0.5946  -18.6433 C.3       4 GLC5        0.0000 
     50 CA          2.6550   -1.1930  -19.7680 C.3      12 GLL5        0.0000 
     51 CA          5.1803   -0.3492  -23.4237 C.3       4 GLC5        0.0000 
     52 CA          3.9790    0.5190  -24.6790 C.3       8 GLP5        0.0000 
     53 CA          3.5859   -0.9000  -21.6999 C.3       4 GLC5        0.0000 
     54 CA          5.1590    0.0380  -20.4370 C.3      12 GLL5        0.0000 
     55 CA          4.8096    0.4731  -22.8875 C.3       4 GLC5        0.0000 
     56 CA          3.8870    5.4125  -23.0735 C.3       4 GLC5        0.0000 
     57 CA          5.0470    3.8410  -22.9610 C.3      12 GLL5        0.0000 
     58 CA          2.5150    6.5610  -22.6800 C.3       8 GLP5        0.0000 
     59 CA          4.7321    2.3407  -23.9521 C.3       4 GLC5        0.0000 
     60 CA          5.4710    4.6870  -23.9730 C.3      12 GLL5        0.0000 
@<TRIPOS>BOND
@<TRIPOS>SUBSTRUCTURE
     1 ALC1       29 GROUP        1 X    ALC  0     ROOT ALC X 1
     2 SEC2       38 GROUP        1 X    SEC  0     **** SEC X 2
     3 ASC3       24 GROUP        1 X    ASC  0     **** ASC X 3
     4 GLC5        1 GROUP        1 X    GLC  0     **** GLC X 6
     5 ALP1       31 GROUP        1 Y    ALP  0     ROOT ALP Y 8
     6 SEP2       40 GROUP        1 Y    SEP  0     **** SEP Y 9
     7 ASP3       26 GROUP        1 Y    ASP  0     **** ASP Y 10
     8 GLP5        3 GROUP        1 Y    GLP  0     **** GLP Y 13
     9 ALL1       30 GROUP        1 Z    ALL  0     ROOT ALL Z 15
    10 SEL2       39 GROUP        1 Z    SEL  0     **** SEL Z 16
    11 ASL3       25 GROUP        1 Z    ASL  0     **** ASL Z 17
    12 GLL5        2 GROUP        1 Z    GLL  0     **** GLL Z 20
@<TRIPOS>SET

