#    Name: 4acu_QN7_1_ligand
#    Modification time : Tue Mar 25 05:30:19 2014

@<TRIPOS>MOLECULE
4acu_QN7_1_ligand
   55    59     1     0     0
SMALL
NO_CHARGES


@<TRIPOS>ATOM
      1 C1          1.3900   -3.1140  -16.4730 C.3       1 QN71506     0.0000 
      2 O2          1.6530   -2.7230  -17.8260 O.3       1 QN71506     0.0000 
      3 C3          2.9620   -2.9570  -18.2380 C.ar      1 QN71506     0.0000 
      4 C4          3.7430   -3.9810  -17.7380 C.ar      1 QN71506     0.0000 
      5 C5          5.0040   -4.1700  -18.2690 C.ar      1 QN71506     0.0000 
      6 C6          5.4960   -3.3120  -19.2340 C.ar      1 QN71506     0.0000 
      7 C7          4.7280   -2.2900  -19.7650 C.ar      1 QN71506     0.0000 
      8 C8          3.4420   -2.1660  -19.2720 C.ar      1 QN71506     0.0000 
      9 F9          2.6550   -1.1930  -19.7680 F         1 QN71506     0.0000 
     10 C10         5.3110   -1.3190  -20.6850 C.ar      1 QN71506     0.0000 
     11 C11         6.0820   -1.6970  -21.7680 C.ar      1 QN71506     0.0000 
     12 C12         6.6810   -0.7380  -22.5690 C.ar      1 QN71506     0.0000 
     13 C13         6.5150    0.6080  -22.2870 C.ar      1 QN71506     0.0000 
     14 C14         5.7280    1.0250  -21.2230 C.ar      1 QN71506     0.0000 
     15 C15         5.1590    0.0380  -20.4370 C.ar      1 QN71506     0.0000 
     16 C16         5.5290    2.4890  -20.8780 C.3       1 QN71506     0.0000 
     17 C17         6.2590    2.7650  -19.5760 C.2       1 QN71506     0.0000 
     18 N18         7.5300    2.5270  -19.4350 N.pl3     1 QN71506     0.0000 
     19 C19         8.0510    2.8720  -18.1000 C.3       1 QN71506     0.0000 
     20 C20         7.2630    3.9560  -17.3700 C.3       1 QN71506     0.0000 
     21 C21         5.7790    3.6180  -17.3000 C.3       1 QN71506     0.0000 
     22 N22         5.3950    3.2900  -18.6670 N.pl3     1 QN71506     0.0000 
     23 C23         4.1560    3.2420  -19.2890 C.cat     1 QN71506     0.0000 
     24 N24         4.1320    2.7990  -20.5020 N.pl3     1 QN71506     0.0000 
     25 N25         3.0400    3.6510  -18.5950 N.pl3     1 QN71506     0.0000 
     26 F26         7.7900    4.0560  -16.1150 F         1 QN71506     0.0000 
     27 F27         7.3890    5.1630  -18.0240 F         1 QN71506     0.0000 
     28 C28         5.9520    3.4350  -21.9940 C.ar      1 QN71506     0.0000 
     29 C29         5.0470    3.8410  -22.9610 C.ar      1 QN71506     0.0000 
     30 C30         5.4710    4.6870  -23.9730 C.ar      1 QN71506     0.0000 
     31 N31         6.7200    5.1540  -24.1030 N.ar      1 QN71506     0.0000 
     32 C32         7.5850    4.7300  -23.1710 C.ar      1 QN71506     0.0000 
     33 C33         7.2540    3.8910  -22.1270 C.ar      1 QN71506     0.0000 
     34 H           3.3952   -4.5854  -16.9915 H         1 QN71506     0.0000 
     35 H           5.5858   -4.9612  -17.9414 H         1 QN71506     0.0000 
     36 H           6.4756   -3.4373  -19.5733 H         1 QN71506     0.0000 
     37 H           6.2133   -2.6986  -21.9826 H         1 QN71506     0.0000 
     38 H           7.2521   -1.0274  -23.3776 H         1 QN71506     0.0000 
     39 H           6.9862    1.3164  -22.8802 H         1 QN71506     0.0000 
     40 H           4.5799    0.3307  -19.6066 H         1 QN71506     0.0000 
     41 H           8.1599    2.1544  -20.0999 H         1 QN71506     0.0000 
     42 H           9.1073    3.2093  -18.1786 H         1 QN71506     0.0000 
     43 H           8.0713    1.9679  -17.4535 H         1 QN71506     0.0000 
     44 H           5.2459    4.4783  -16.9380 H         1 QN71506     0.0000 
     45 H           5.6472    2.7778  -16.6427 H         1 QN71506     0.0000 
     46 H           3.4263    2.6594  -21.1179 H         1 QN71506     0.0000 
     47 H           2.1695    3.5835  -19.0824 H         1 QN71506     0.0000 
     48 H           3.1970    3.9801  -17.6638 H         1 QN71506     0.0000 
     49 H           4.0745    3.5192  -22.9283 H         1 QN71506     0.0000 
     50 H           4.7346    4.9776  -24.6932 H         1 QN71506     0.0000 
     51 H           8.6016    5.0542  -23.2263 H         1 QN71506     0.0000 
     52 H           7.9711    3.6025  -21.4463 H         1 QN71506     0.0000 
     53 H           1.5476   -4.0913  -16.3315 H         1 QN71506     0.0000 
     54 H           1.9748   -2.6260  -15.8250 H         1 QN71506     0.0000 
     55 H           0.4431   -2.9288  -16.2103 H         1 QN71506     0.0000 
@<TRIPOS>BOND
     1    2    1 1    
     2   53    1 1    
     3   54    1 1    
     4   55    1 1    
     5    3    2 1    
     6    4    3 ar   
     7    8    3 ar   
     8    5    4 ar   
     9   34    4 1    
    10    6    5 ar   
    11   35    5 1    
    12    7    6 ar   
    13   36    6 1    
    14    8    7 ar   
    15   10    7 1    
    16    9    8 1    
    17   11   10 ar   
    18   15   10 ar   
    19   12   11 ar   
    20   37   11 1    
    21   13   12 ar   
    22   38   12 1    
    23   14   13 ar   
    24   39   13 1    
    25   15   14 ar   
    26   16   14 1    
    27   40   15 1    
    28   17   16 1    
    29   24   16 1    
    30   28   16 1    
    31   18   17 2    
    32   22   17 1    
    33   19   18 1    
    34   41   18 1    
    35   20   19 1    
    36   42   19 1    
    37   43   19 1    
    38   21   20 1    
    39   26   20 1    
    40   27   20 1    
    41   22   21 1    
    42   44   21 1    
    43   45   21 1    
    44   23   22 ar   
    45   24   23 ar   
    46   25   23 ar   
    47   46   24 1    
    48   47   25 1    
    49   48   25 1    
    50   29   28 ar   
    51   33   28 ar   
    52   30   29 ar   
    53   49   29 1    
    54   31   30 ar   
    55   50   30 1    
    56   32   31 ar   
    57   33   32 ar   
    58   51   32 1    
    59   52   33 1    
@<TRIPOS>SUBSTRUCTURE
     1 QN71506     1 GROUP   
@<TRIPOS>SET

