#    Name: 3eyh_IZA_1_INTS_M
#    Modification time : Tue Mar 25 02:57:20 2014

@<TRIPOS>MOLECULE
3eyh_IZA_1_INTS_M
   66     0     9     0     0
SMALL
NO_CHARGES


@<TRIPOS>ATOM
      1 N           8.1910  -15.7175   -9.7335 N.am      2 SEC2        0.0000 
      2 N           9.0710  -15.8700  -10.7010 N.am      8 SEL2        0.0000 
      3 N           7.3110  -15.5650   -8.7660 N.am      5 SEP2        0.0000 
      4 O          10.9390  -14.9585   -8.9475 O.2       1 ALC1        0.0000 
      5 O          11.0020  -14.7310  -10.3350 O.2       7 ALL1        0.0000 
      6 O          10.8760  -15.1860   -7.5600 O.2       4 ALP1        0.0000 
      7 CA         11.8900  -12.6500   -9.5205 C.3       3 GLC5        0.0000 
      8 CA         12.0870  -14.0540  -10.7930 C.3       9 GLL5        0.0000 
      9 CA         11.6930  -11.2460   -8.2480 C.3       6 GLP5        0.0000 
     10 CA         13.8470  -13.4710  -10.3240 C.3       3 GLC5        0.0000 
     11 CA         15.6070  -12.8880   -9.8550 C.3       6 GLP5        0.0000 
     12 CA         14.1370  -14.1185  -11.4985 C.3       3 GLC5        0.0000 
     13 CA         12.3000  -13.8740  -12.1640 C.3       9 GLL5        0.0000 
     14 CA         15.9740  -14.3630  -10.8330 C.3       6 GLP5        0.0000 
     15 CA         11.3120  -16.3415  -11.2780 C.3       3 GLC5        0.0000 
     16 CA         10.2320  -15.0720  -12.6260 C.3       9 GLL5        0.0000 
     17 CA         12.3920  -17.6110   -9.9300 C.3       6 GLP5        0.0000 
     18 CA          7.2500  -19.0895  -13.9750 C.3       3 GLC5        0.0000 
     19 CA          6.0970  -17.4650  -13.8310 C.3       9 GLL5        0.0000 
     20 CA          8.4030  -20.7140  -14.1190 C.3       6 GLP5        0.0000 
     21 CA          6.5250  -18.3790  -12.2975 C.3       3 GLC5        0.0000 
     22 CA          6.9530  -19.2930  -10.7640 C.3       6 GLP5        0.0000 
     23 CA          4.8800  -17.3355  -12.1895 C.3       3 GLC5        0.0000 
     24 CA          3.6630  -17.2060  -10.5480 C.3       6 GLP5        0.0000 
     25 O          13.7130  -12.8870  -14.5055 O.2       1 ALC1        0.0000 
     26 O          12.5660  -13.5720  -15.0800 O.2       7 ALL1        0.0000 
     27 O          14.8600  -12.2020  -13.9310 O.2       4 ALP1        0.0000 
     28 CA         12.3165  -15.7065  -18.9540 C.3       3 GLC5        0.0000 
     29 CA         12.8300  -13.7360  -18.8490 C.3       9 GLL5        0.0000 
     30 CA         11.8030  -17.6770  -19.0590 C.3       6 GLP5        0.0000 
     31 CA         13.9740  -15.2535  -19.8115 C.3       3 GLC5        0.0000 
     32 CA         15.1180  -16.7710  -20.7740 C.3       6 GLP5        0.0000 
     33 CA         15.0080  -13.6790  -19.3800 C.3       3 GLC5        0.0000 
     34 CA         17.1860  -13.6220  -19.9110 C.3       6 GLP5        0.0000 
     35 CA         15.9075  -13.4245  -18.5655 C.3       3 GLC5        0.0000 
     36 CA         14.6290  -13.2270  -17.2200 C.3       9 GLL5        0.0000 
     37 CA         13.9005  -10.3460  -16.4860 C.3       3 GLC5        0.0000 
     38 CA         12.7910  -11.6220  -17.5200 C.3       9 GLL5        0.0000 
     39 CA         15.0100   -9.0700  -15.4520 C.3       6 GLP5        0.0000 
     40 CA         12.2927  -15.7875  -10.7043 C.3       3 GLC5        0.0000 
     41 CA         11.0892  -12.6145  -11.8788 C.3       3 GLC5        0.0000 
     42 CA          9.9850  -11.2650  -12.2790 C.3       6 GLP5        0.0000 
     43 CA         10.3927  -12.9973  -12.5663 C.3       3 GLC5        0.0000 
     44 CA         11.3690  -14.3870  -13.0810 C.3       9 GLL5        0.0000 
     45 CA          9.8840  -13.0570  -14.6537 C.3       3 GLC5        0.0000 
     46 CA         11.5460  -14.2140  -14.4560 C.3       9 GLL5        0.0000 
     47 CA          8.6670  -11.6580  -14.3750 C.3       6 GLP5        0.0000 
     48 CA         12.3041  -16.1326  -13.3388 C.3       3 GLC5        0.0000 
     49 CA         13.6470  -17.6430  -13.5950 C.3       6 GLP5        0.0000 
     50 CA          9.5089  -17.6550  -12.9463 C.3       3 GLC5        0.0000 
     51 CA          9.2630  -15.6220  -13.6180 C.3       9 GLL5        0.0000 
     52 CA         10.0840  -19.4860  -12.7040 C.3       6 GLP5        0.0000 
     53 CA          8.8468  -18.0138  -15.0758 C.3       3 GLC5        0.0000 
     54 CA          7.2790  -16.7340  -14.2550 C.3       9 GLL5        0.0000 
     55 CA         10.2670  -19.4000  -15.2200 C.3       6 GLP5        0.0000 
     56 CA          5.9901  -15.5636  -14.3780 C.3       3 GLC5        0.0000 
     57 CA          8.1200  -16.3010  -13.2550 C.3       9 GLL5        0.0000 
     58 CA          5.0820  -14.1360  -14.9630 C.3       6 GLP5        0.0000 
     59 CA          6.5975  -15.1638  -15.3680 C.3       3 GLC5        0.0000 
     60 CA          7.5740  -16.5210  -15.6080 C.3       9 GLL5        0.0000 
     61 CA          9.6720  -17.5185  -15.3610 C.3       3 GLC5        0.0000 
     62 CA          8.6520  -15.8620  -15.9380 C.3       9 GLL5        0.0000 
     63 CA          8.8421  -13.6738  -14.7575 C.3       3 GLC5        0.0000 
     64 CA         14.5177  -14.7207  -16.2283 C.3       3 GLC5        0.0000 
     65 CA         13.1360  -13.1100  -17.4830 C.3       9 GLL5        0.0000 
     66 CA         15.1530  -16.2730  -15.1050 C.3       6 GLP5        0.0000 
@<TRIPOS>BOND
@<TRIPOS>SUBSTRUCTURE
     1 ALC1        4 GROUP        1 X    ALC  0     ROOT ALC X 1
     2 SEC2        1 GROUP        1 X    SEC  0     **** SEC X 2
     3 GLC5        7 GROUP        1 X    GLC  0     **** GLC X 6
     4 ALP1        6 GROUP        1 Y    ALP  0     ROOT ALP Y 8
     5 SEP2        3 GROUP        1 Y    SEP  0     **** SEP Y 9
     6 GLP5        9 GROUP        1 Y    GLP  0     **** GLP Y 13
     7 ALL1        5 GROUP        1 Z    ALL  0     ROOT ALL Z 15
     8 SEL2        2 GROUP        1 Z    SEL  0     **** SEL Z 16
     9 GLL5        8 GROUP        1 Z    GLL  0     **** GLL Z 20
@<TRIPOS>SET

