#    Name: 3eyh_IZA_1_ligand
#    Modification time : Tue Mar 25 02:57:20 2014

@<TRIPOS>MOLECULE
3eyh_IZA_1_ligand
   39    42     1     0     0
SMALL
NO_CHARGES


@<TRIPOS>ATOM
      1 O0          9.0710  -15.8700  -10.7010 O.2       1 IZA2001     0.0000 
      2 C11        10.0600  -15.2630  -11.1630 C.2       1 IZA2001     0.0000 
      3 N2         11.0020  -14.7310  -10.3350 N.am      1 IZA2001     0.0000 
      4 C12        12.0870  -14.0540  -10.7930 C.2       1 IZA2001     0.0000 
      5 C13        12.3000  -13.8740  -12.1640 C.2       1 IZA2001     0.0000 
      6 C9         11.3690  -14.3870  -13.0810 C.ar      1 IZA2001     0.0000 
      7 C1         11.5460  -14.2140  -14.4560 C.ar      1 IZA2001     0.0000 
      8 C10        10.2320  -15.0720  -12.6260 C.ar      1 IZA2001     0.0000 
      9 C8          9.2630  -15.6220  -13.6180 C.ar      1 IZA2001     0.0000 
     10 C7          8.1200  -16.3010  -13.2550 C.ar      1 IZA2001     0.0000 
     11 C6          7.2790  -16.7340  -14.2550 C.ar      1 IZA2001     0.0000 
     12 F1          6.0970  -17.4650  -13.8310 F         1 IZA2001     0.0000 
     13 C5          7.5740  -16.5210  -15.6080 C.ar      1 IZA2001     0.0000 
     14 C4          8.6520  -15.8620  -15.9380 C.ar      1 IZA2001     0.0000 
     15 C3          9.5020  -15.4120  -15.0660 C.ar      1 IZA2001     0.0000 
     16 C0         10.6560  -14.6980  -15.4090 C.ar      1 IZA2001     0.0000 
     17 N1         11.1070  -14.3510  -16.6500 N.2       1 IZA2001     0.0000 
     18 C2         12.2640  -13.7000  -16.3920 C.2       1 IZA2001     0.0000 
     19 N0         12.5660  -13.5720  -15.0800 N.pl3     1 IZA2001     0.0000 
     20 C14        13.1360  -13.1100  -17.4830 C.3       1 IZA2001     0.0000 
     21 C17        12.8300  -13.7360  -18.8490 C.3       1 IZA2001     0.0000 
     22 C16        14.6290  -13.2270  -17.2200 C.3       1 IZA2001     0.0000 
     23 C15        12.7910  -11.6220  -17.5200 C.3       1 IZA2001     0.0000 
     24 H          10.8819  -14.8511   -9.2909 H         1 IZA2001     0.0000 
     25 H          12.7807  -13.6564  -10.1282 H         1 IZA2001     0.0000 
     26 H          13.1254  -13.3738  -12.4972 H         1 IZA2001     0.0000 
     27 H           7.9043  -16.4770  -12.2745 H         1 IZA2001     0.0000 
     28 H           6.9116  -16.9025  -16.3119 H         1 IZA2001     0.0000 
     29 H           8.8421  -15.6850  -16.9843 H         1 IZA2001     0.0000 
     30 H          13.2994  -13.1450  -14.6932 H         1 IZA2001     0.0000 
     31 H          13.4022  -13.3484  -19.5717 H         1 IZA2001     0.0000 
     32 H          12.9873  -14.7235  -18.8486 H         1 IZA2001     0.0000 
     33 H          11.8782  -13.5909  -19.1192 H         1 IZA2001     0.0000 
     34 H          15.1690  -12.8272  -17.9607 H         1 IZA2001     0.0000 
     35 H          14.8955  -12.7590  -16.3774 H         1 IZA2001     0.0000 
     36 H          14.9165  -14.1805  -17.1292 H         1 IZA2001     0.0000 
     37 H          12.9744  -11.1763  -16.6438 H         1 IZA2001     0.0000 
     38 H          13.3218  -11.1348  -18.2135 H         1 IZA2001     0.0000 
     39 H          11.8252  -11.4698  -17.7297 H         1 IZA2001     0.0000 
@<TRIPOS>BOND
     1    2    1 2    
     2    3    2 am   
     3    8    2 1    
     4    4    3 1    
     5   24    3 1    
     6    5    4 2    
     7   25    4 1    
     8    6    5 1    
     9   26    5 1    
    10    7    6 ar   
    11    8    6 ar   
    12   16    7 ar   
    13   19    7 1    
    14    9    8 ar   
    15   10    9 ar   
    16   15    9 ar   
    17   11   10 ar   
    18   27   10 1    
    19   12   11 1    
    20   13   11 ar   
    21   14   13 ar   
    22   28   13 1    
    23   15   14 ar   
    24   29   14 1    
    25   16   15 ar   
    26   17   16 1    
    27   18   17 2    
    28   19   18 1    
    29   20   18 1    
    30   30   19 1    
    31   21   20 1    
    32   22   20 1    
    33   23   20 1    
    34   31   21 1    
    35   32   21 1    
    36   33   21 1    
    37   34   22 1    
    38   35   22 1    
    39   36   22 1    
    40   37   23 1    
    41   38   23 1    
    42   39   23 1    
@<TRIPOS>SUBSTRUCTURE
     1 IZA2001     1 GROUP   
@<TRIPOS>SET

