#    Name: 3lhh_AMP_1_INTS_M
#    Modification time : Mon Mar 24 21:40:33 2014

@<TRIPOS>MOLECULE
3lhh_AMP_1_INTS_M
   49     0     9     0     0
SMALL
NO_CHARGES


@<TRIPOS>ATOM
      1 N          22.2285   18.1750   57.8650 N.am      2 SEC2        0.0000 
      2 N          22.1120   18.8530   59.1220 N.am      8 SEL2        0.0000 
      3 N          22.3450   17.4970   56.6080 N.am      5 SEP2        0.0000 
      4 N          19.1450   19.8910   58.3795 N.am      2 SEC2        0.0000 
      5 N          20.3410   20.5940   58.7020 N.am      8 SEL2        0.0000 
      6 N          17.9490   19.1880   58.0570 N.am      5 SEP2        0.0000 
      7 N          25.4120   24.6560   57.0520 N.am      2 SEC2        0.0000 
      8 N          25.6010   23.5420   57.7980 N.am      8 SEL2        0.0000 
      9 N          25.2230   25.7700   56.3060 N.am      5 SEP2        0.0000 
     10 O          26.8635   23.9335   57.8630 O.2       1 ALC1        0.0000 
     11 O          25.6010   23.5420   57.7980 O.2       7 ALL1        0.0000 
     12 O          28.1260   24.3250   57.9280 O.2       4 ALP1        0.0000 
     13 O          26.8325   23.8440   56.7665 O.2       1 ALC1        0.0000 
     14 O          28.0640   24.1460   55.7350 O.2       4 ALP1        0.0000 
     15 O          27.5605   23.0400   55.9575 O.2       1 ALC1        0.0000 
     16 O          27.0570   21.9340   56.1800 O.2       7 ALL1        0.0000 
     17 CA         21.8255   18.3700   54.7365 C.3       3 GLC5        0.0000 
     18 CA         22.3520   19.6140   53.6880 C.3       9 GLL5        0.0000 
     19 CA         21.2990   17.1260   55.7850 C.3       6 GLP5        0.0000 
     20 CA         21.3325   21.4180   53.3005 C.3       3 GLC5        0.0000 
     21 CA         20.3130   23.2220   52.9130 C.3       6 GLP5        0.0000 
     22 CA         21.6670   16.9125   51.7260 C.3       3 GLC5        0.0000 
     23 CA         21.8870   18.9090   52.4750 C.3       9 GLL5        0.0000 
     24 CA         21.4470   14.9160   50.9770 C.3       6 GLP5        0.0000 
     25 CA         21.8605   17.6275   53.6450 C.3       3 GLC5        0.0000 
     26 CA         21.8340   16.3460   54.8150 C.3       6 GLP5        0.0000 
     27 O          20.2395   17.9895   50.9065 O.2       1 ALC1        0.0000 
     28 O          20.5730   18.8900   52.1220 O.2       7 ALL1        0.0000 
     29 O          19.9060   17.0890   49.6910 O.2       4 ALP1        0.0000 
     30 O          19.3565   19.4900   52.8190 O.2       1 ALC1        0.0000 
     31 O          18.1400   20.0900   53.5160 O.2       4 ALP1        0.0000 
     32 N          22.7315   17.3500   50.5740 N.am      2 SEC2        0.0000 
     33 N          22.8190   18.2780   51.7370 N.am      8 SEL2        0.0000 
     34 N          22.6440   16.4220   49.4110 N.am      5 SEP2        0.0000 
     35 CA         25.7005   19.2375   51.3430 C.3       3 GLC5        0.0000 
     36 CA         24.1280   18.2830   52.0810 C.3       9 GLL5        0.0000 
     37 CA         27.2730   20.1920   50.6050 C.3       6 GLP5        0.0000 
     38 CA         24.2900   17.9460   50.1910 C.3       3 GLC5        0.0000 
     39 CA         24.4520   17.6090   48.3010 C.3       6 GLP5        0.0000 
     40 CA         23.4375   16.2730   51.7610 C.3       3 GLC5        0.0000 
     41 CA         22.7470   14.2630   51.4410 C.3       6 GLP5        0.0000 
     42 CA         22.9810   17.3145   53.4480 C.3       3 GLC5        0.0000 
     43 CA         22.8100   17.9620   54.4045 C.3       3 GLC5        0.0000 
     44 CA         23.7860   19.5780   53.9940 C.3       9 GLL5        0.0000 
     45 CA         24.5490   23.4947   55.5975 C.3       3 GLC5        0.0000 
     46 CA         25.6480   21.9250   55.9430 C.3       9 GLL5        0.0000 
     47 CA         23.7760   24.8460   54.6050 C.3       6 GLP5        0.0000 
     48 CA         26.4883   21.5378   54.1833 C.3       3 GLC5        0.0000 
     49 CA         27.5290   21.8800   52.4760 C.3       6 GLP5        0.0000 
@<TRIPOS>BOND
@<TRIPOS>SUBSTRUCTURE
     1 ALC1       10 GROUP        1 X    ALC  0     ROOT ALC X 1
     2 SEC2        1 GROUP        1 X    SEC  0     **** SEC X 2
     3 GLC5       17 GROUP        1 X    GLC  0     **** GLC X 6
     4 ALP1       12 GROUP        1 Y    ALP  0     ROOT ALP Y 8
     5 SEP2        3 GROUP        1 Y    SEP  0     **** SEP Y 9
     6 GLP5       19 GROUP        1 Y    GLP  0     **** GLP Y 13
     7 ALL1       11 GROUP        1 Z    ALL  0     ROOT ALL Z 15
     8 SEL2        2 GROUP        1 Z    SEL  0     **** SEL Z 16
     9 GLL5       18 GROUP        1 Z    GLL  0     **** GLL Z 20
@<TRIPOS>SET

