#    Name: 3lhh_AMP_1_ligand
#    Modification time : Mon Mar 24 21:40:33 2014

@<TRIPOS>MOLECULE
3lhh_AMP_1_ligand
   35    37     1     0     0
SMALL
NO_CHARGES


@<TRIPOS>ATOM
      1 P          21.6380   20.2660   59.3900 P.3       1 AMP171      0.0000 
      2 O1P        22.1120   18.8530   59.1220 O.co2     1 AMP171      0.0000 
      3 O2P        20.3410   20.5940   58.7020 O.co2     1 AMP171      0.0000 
      4 O3P        21.7200   20.7190   60.8280 O.co2     1 AMP171      0.0000 
      5 O5'        22.8170   21.1060   58.7010 O.3       1 AMP171      0.0000 
      6 C5'        24.1430   21.0360   59.2350 C.3       1 AMP171      0.0000 
      7 C4'        25.1780   21.1260   58.1120 C.3       1 AMP171      0.0000 
      8 O4'        25.0620   20.0250   57.1960 O.3       1 AMP171      0.0000 
      9 C3'        24.9960   22.3620   57.2370 C.3       1 AMP171      0.0000 
     10 O3'        25.6010   23.5420   57.7980 O.3       1 AMP171      0.0000 
     11 C2'        25.6480   21.9250   55.9430 C.3       1 AMP171      0.0000 
     12 O2'        27.0570   21.9340   56.1800 O.3       1 AMP171      0.0000 
     13 C1'        25.2470   20.4660   55.8380 C.3       1 AMP171      0.0000 
     14 N9         23.9530   20.2560   55.1230 N.pl3     1 AMP171      0.0000 
     15 C8         22.7420   20.6940   55.5220 C.2       1 AMP171      0.0000 
     16 N7         21.7590   20.3140   54.6730 N.2       1 AMP171      0.0000 
     17 C5         22.3520   19.6140   53.6880 C.ar      1 AMP171      0.0000 
     18 C6         21.8870   18.9090   52.4750 C.ar      1 AMP171      0.0000 
     19 N6         20.5730   18.8900   52.1220 N.pl3     1 AMP171      0.0000 
     20 N1         22.8190   18.2780   51.7370 N.ar      1 AMP171      0.0000 
     21 C2         24.1280   18.2830   52.0810 C.ar      1 AMP171      0.0000 
     22 N3         24.6160   18.9070   53.1710 N.ar      1 AMP171      0.0000 
     23 C4         23.7860   19.5780   53.9940 C.ar      1 AMP171      0.0000 
     24 H          24.3144   20.0930   59.7720 H         1 AMP171      0.0000 
     25 H          24.3408   21.8570   59.9377 H         1 AMP171      0.0000 
     26 H          26.1668   21.1606   58.5313 H         1 AMP171      0.0000 
     27 H          23.9452   22.4700   57.0514 H         1 AMP171      0.0000 
     28 H          25.3241   22.4593   55.1587 H         1 AMP171      0.0000 
     29 H          26.0283   19.9162   55.3748 H         1 AMP171      0.0000 
     30 H          22.5873   21.2299   56.3383 H         1 AMP171      0.0000 
     31 H          19.9477   19.3831   52.7269 H         1 AMP171      0.0000 
     32 H          20.3485   18.3846   51.2888 H         1 AMP171      0.0000 
     33 H          24.8130   17.7605   51.4492 H         1 AMP171      0.0000 
     34 H          26.5789   23.4439   57.6136 H         1 AMP171      0.0000 
     35 H          27.4232   22.6068   55.5372 H         1 AMP171      0.0000 
@<TRIPOS>BOND
     1    2    1 ar   
     2    3    1 ar   
     3    4    1 ar   
     4    5    1 1    
     5    6    5 1    
     6    7    6 1    
     7   24    6 1    
     8   25    6 1    
     9    8    7 1    
    10    9    7 1    
    11   26    7 1    
    12   13    8 1    
    13   10    9 1    
    14   11    9 1    
    15   27    9 1    
    16   34   10 1    
    17   12   11 1    
    18   13   11 1    
    19   28   11 1    
    20   35   12 1    
    21   14   13 1    
    22   29   13 1    
    23   15   14 1    
    24   23   14 1    
    25   16   15 2    
    26   30   15 1    
    27   17   16 1    
    28   18   17 ar   
    29   23   17 ar   
    30   19   18 1    
    31   20   18 ar   
    32   31   19 1    
    33   32   19 1    
    34   21   20 ar   
    35   22   21 ar   
    36   33   21 1    
    37   23   22 ar   
@<TRIPOS>SUBSTRUCTURE
     1 AMP171      1 GROUP   
@<TRIPOS>SET

