#    Name: 1dtq_FPT_1_INTS_M
#    Modification time : Mon Mar 24 22:27:18 2014

@<TRIPOS>MOLECULE
1dtq_FPT_1_INTS_M
   73     0     6     0     0
SMALL
NO_CHARGES


@<TRIPOS>ATOM
      1 CA         -0.0765  -39.0010   17.9685 C.3       2 GLC5        0.0000 
      2 CA          0.2380  -37.3790   19.0320 C.3       6 GLL5        0.0000 
      3 CA         -0.3910  -40.6230   16.9050 C.3       4 GLP5        0.0000 
      4 CA         -1.1590  -38.8035   20.0110 C.3       2 GLC5        0.0000 
      5 CA         -2.5560  -40.2280   20.9900 C.3       4 GLP5        0.0000 
      6 CA          0.7055  -35.3630   20.6270 C.3       2 GLC5        0.0000 
      7 CA         -0.7440  -36.8670   21.1790 C.3       6 GLL5        0.0000 
      8 CA          2.1550  -33.8590   20.0750 C.3       4 GLP5        0.0000 
      9 CA         -1.3840  -36.8015   16.3410 C.3       2 GLC5        0.0000 
     10 CA         -0.8430  -36.7850   18.3600 C.3       6 GLL5        0.0000 
     11 CA         -1.9250  -36.8180   14.3220 C.3       4 GLP5        0.0000 
     12 CA         -1.3615  -38.6350   17.7795 C.3       2 GLC5        0.0000 
     13 CA         -1.8800  -40.4850   17.1990 C.3       4 GLP5        0.0000 
     14 CA         -2.7860  -38.0165   21.1230 C.3       2 GLC5        0.0000 
     15 CA         -3.0160  -35.8050   21.2560 C.3       6 GLL5        0.0000 
     16 CA         -2.8795  -34.0765   22.2615 C.3       2 GLC5        0.0000 
     17 CA         -2.7430  -32.3480   23.2670 C.3       4 GLP5        0.0000 
     18 CA         -4.8045  -34.6765   21.0925 C.3       2 GLC5        0.0000 
     19 CA         -6.5930  -33.5480   20.9290 C.3       4 GLP5        0.0000 
     20 CA         -2.5510  -34.3805   19.6210 C.3       2 GLC5        0.0000 
     21 CA         -2.0860  -32.9560   17.9860 C.3       4 GLP5        0.0000 
     22 CA          3.3355  -36.5650   18.8025 C.3       2 GLC5        0.0000 
     23 CA          2.4030  -38.2360   18.3360 C.3       6 GLL5        0.0000 
     24 CA          4.2680  -34.8940   19.2690 C.3       4 GLP5        0.0000 
     25 CA          3.4445  -36.1990   16.6925 C.3       2 GLC5        0.0000 
     26 CA          3.4100  -38.2210   16.9450 C.3       6 GLL5        0.0000 
     27 CA          3.4790  -34.1770   16.4400 C.3       4 GLP5        0.0000 
     28 CA          4.3225  -38.1740   15.2095 C.3       2 GLC5        0.0000 
     29 CA          5.2350  -38.1270   13.4740 C.3       4 GLP5        0.0000 
     30 CA          4.4050  -40.0010   17.8010 C.3       2 GLC5        0.0000 
     31 CA          5.4000  -41.7810   18.6570 C.3       4 GLP5        0.0000 
     32 N           5.6555  -37.9140   20.9430 N.am      1 SEC2        0.0000 
     33 N           4.7770  -37.5450   22.0930 N.am      5 SEL2        0.0000 
     34 N           6.5340  -38.2830   19.7930 N.am      3 SEP2        0.0000 
     35 CA          6.2300  -34.7630   22.3440 C.3       2 GLC5        0.0000 
     36 CA          4.8590  -36.3330   22.7490 C.3       6 GLL5        0.0000 
     37 CA          7.6010  -33.1930   21.9390 C.3       4 GLP5        0.0000 
     38 CA          4.5635  -35.6135   21.0090 C.3       2 GLC5        0.0000 
     39 CA          2.9960  -34.9085   21.8495 C.3       2 GLC5        0.0000 
     40 CA          3.8370  -35.9580   23.6240 C.3       6 GLL5        0.0000 
     41 CA          1.7095  -33.7305   25.4715 C.3       2 GLC5        0.0000 
     42 CA          0.8440  -35.5180   24.4280 C.3       6 GLL5        0.0000 
     43 CA          2.5750  -31.9430   26.5150 C.3       4 GLP5        0.0000 
     44 CA         -1.8165  -34.9330   26.0230 C.3       2 GLC5        0.0000 
     45 CA          0.0820  -35.0560   25.6660 C.3       6 GLL5        0.0000 
     46 CA         -3.7150  -34.8100   26.3800 C.3       4 GLP5        0.0000 
     47 CA          0.8090  -33.5785   26.5730 C.3       2 GLC5        0.0000 
     48 CA          1.5360  -32.1010   27.4800 C.3       4 GLP5        0.0000 
     49 CA         -0.2985  -39.4885   23.3420 C.3       2 GLC5        0.0000 
     50 CA          1.5450  -38.8370   23.2280 C.3       6 GLL5        0.0000 
     51 CA         -2.1420  -40.1400   23.4560 C.3       4 GLP5        0.0000 
     52 CA          1.1128  -35.6745   18.1605 C.3       2 GLC5        0.0000 
     53 CA          2.5280  -34.2670   17.6250 C.3       4 GLP5        0.0000 
     54 CA         -2.0721  -38.3229   20.4856 C.3       2 GLC5        0.0000 
     55 CA         -1.8760  -36.2550   19.1130 C.3       6 GLL5        0.0000 
     56 CA         -4.0091  -36.2734   19.6266 C.3       2 GLC5        0.0000 
     57 CA         -1.8570  -36.2940   20.5200 C.3       6 GLL5        0.0000 
     58 CA         -5.5770  -36.5070   18.7170 C.3       4 GLP5        0.0000 
     59 CA          1.2578  -39.4257   17.2728 C.3       2 GLC5        0.0000 
     60 CA          4.3857  -40.7470   19.7525 C.3       2 GLC5        0.0000 
     61 CA          2.9620  -39.6970   20.1960 C.3       6 GLL5        0.0000 
     62 CA          4.9958  -39.3088   23.1693 C.3       2 GLC5        0.0000 
     63 CA          3.7810  -39.7290   21.5000 C.3       6 GLL5        0.0000 
     64 CA          6.2440  -39.5450   24.4620 C.3       4 GLP5        0.0000 
     65 CA          5.2960  -37.8453   23.8242 C.3       2 GLC5        0.0000 
     66 CA          4.4700  -38.4970   23.9667 C.3       2 GLC5        0.0000 
     67 CA          2.6500  -38.0690   23.1240 C.3       6 GLL5        0.0000 
     68 CA          0.9105  -36.6785   26.1660 C.3       2 GLC5        0.0000 
     69 CA          1.3580  -38.0700   27.2850 C.3       4 GLP5        0.0000 
     70 CA          0.0910  -33.7065   24.3290 C.3       2 GLC5        0.0000 
     71 CA         -0.2810  -32.1260   23.6110 C.3       4 GLP5        0.0000 
     72 CA          2.3683  -39.0507   24.6244 C.3       2 GLC5        0.0000 
     73 CA          2.4830  -39.9150   26.0080 C.3       4 GLP5        0.0000 
@<TRIPOS>BOND
@<TRIPOS>SUBSTRUCTURE
     1 SEC2       32 GROUP        1 X    SEC  0     ROOT SEC X 2
     2 GLC5        1 GROUP        1 X    GLC  0     **** GLC X 6
     3 SEP2       34 GROUP        1 Y    SEP  0     ROOT SEP Y 9
     4 GLP5        3 GROUP        1 Y    GLP  0     **** GLP Y 13
     5 SEL2       33 GROUP        1 Z    SEL  0     ROOT SEL Z 16
     6 GLL5        2 GROUP        1 Z    GLL  0     **** GLL Z 20
@<TRIPOS>SET

