#    Name: 1dtq_FPT_1_ligand
#    Modification time : Mon Mar 24 22:27:18 2014

@<TRIPOS>MOLECULE
1dtq_FPT_1_ligand
   40    41     1     0     0
SMALL
NO_CHARGES


@<TRIPOS>ATOM
      1 C1          0.2380  -37.3790   19.0320 C.ar      1 FPT999      0.0000 
      2 N2          0.2770  -37.4010   20.4190 N.ar      1 FPT999      0.0000 
      3 C3         -0.7440  -36.8670   21.1790 C.ar      1 FPT999      0.0000 
      4 C4         -1.8570  -36.2940   20.5200 C.ar      1 FPT999      0.0000 
      5 C5         -1.8760  -36.2550   19.1130 C.ar      1 FPT999      0.0000 
      6 C6         -0.8430  -36.7850   18.3600 C.ar      1 FPT999      0.0000 
      7 C7         -3.0160  -35.8050   21.2560 C.1       1 FPT999      0.0000 
      8 N7         -3.9720  -35.4400   21.8140 N.1       1 FPT999      0.0000 
      9 N8          1.1040  -38.0740   18.2690 N.am      1 FPT999      0.0000 
     10 C9          2.4030  -38.2360   18.3360 C.2       1 FPT999      0.0000 
     11 S9          3.4100  -38.2210   16.9450 S.2       1 FPT999      0.0000 
     12 N10         2.8830  -38.3830   19.5530 N.am      1 FPT999      0.0000 
     13 C11         2.9620  -39.6970   20.1960 C.3       1 FPT999      0.0000 
     14 C12         3.7810  -39.7290   21.5000 C.3       1 FPT999      0.0000 
     15 C13         3.7140  -38.4160   22.2530 C.ar      1 FPT999      0.0000 
     16 N14         4.7770  -37.5450   22.0930 N.ar      1 FPT999      0.0000 
     17 C15         4.8590  -36.3330   22.7490 C.ar      1 FPT999      0.0000 
     18 C16         3.8370  -35.9580   23.6240 C.ar      1 FPT999      0.0000 
     19 C17         2.7420  -36.8290   23.8190 C.ar      1 FPT999      0.0000 
     20 C18         2.6500  -38.0690   23.1240 C.ar      1 FPT999      0.0000 
     21 O17         1.8120  -36.4960   24.8030 O.3       1 FPT999      0.0000 
     22 CA          0.8440  -35.5180   24.4280 C.3       1 FPT999      0.0000 
     23 CB          0.0820  -35.0560   25.6660 C.3       1 FPT999      0.0000 
     24 F18         1.5450  -38.8370   23.2280 F         1 FPT999      0.0000 
     25 H          -0.7116  -36.8776   22.1963 H         1 FPT999      0.0000 
     26 H          -2.6881  -35.8164   18.6390 H         1 FPT999      0.0000 
     27 H          -0.8572  -36.7501   17.3446 H         1 FPT999      0.0000 
     28 H           0.6029  -38.6170   17.4101 H         1 FPT999      0.0000 
     29 H           3.2314  -37.5848   20.1257 H         1 FPT999      0.0000 
     30 H           3.4079  -40.4430   19.5026 H         1 FPT999      0.0000 
     31 H           1.9438  -40.0766   20.4311 H         1 FPT999      0.0000 
     32 H           4.8229  -39.9581   21.2528 H         1 FPT999      0.0000 
     33 H           3.3980  -40.5360   22.1336 H         1 FPT999      0.0000 
     34 H           5.6583  -35.7099   22.6005 H         1 FPT999      0.0000 
     35 H           3.8740  -35.0691   24.1188 H         1 FPT999      0.0000 
     36 H           0.1146  -35.9193   23.7159 H         1 FPT999      0.0000 
     37 H           1.3103  -34.6371   23.9734 H         1 FPT999      0.0000 
     38 H           0.6906  -34.6455   26.3450 H         1 FPT999      0.0000 
     39 H          -0.6110  -34.3710   25.4414 H         1 FPT999      0.0000 
     40 H          -0.3902  -35.8141   26.1159 H         1 FPT999      0.0000 
@<TRIPOS>BOND
     1    2    1 ar   
     2    6    1 ar   
     3    9    1 1    
     4    3    2 ar   
     5    4    3 ar   
     6   25    3 1    
     7    5    4 ar   
     8    7    4 1    
     9    6    5 ar   
    10   26    5 1    
    11   27    6 1    
    12    8    7 3    
    13   10    9 am   
    14   28    9 1    
    15   11   10 2    
    16   12   10 am   
    17   13   12 1    
    18   29   12 1    
    19   14   13 1    
    20   30   13 1    
    21   31   13 1    
    22   15   14 1    
    23   32   14 1    
    24   33   14 1    
    25   16   15 ar   
    26   20   15 ar   
    27   17   16 ar   
    28   18   17 ar   
    29   34   17 1    
    30   19   18 ar   
    31   35   18 1    
    32   20   19 ar   
    33   21   19 1    
    34   24   20 1    
    35   22   21 1    
    36   23   22 1    
    37   36   22 1    
    38   37   22 1    
    39   38   23 1    
    40   39   23 1    
    41   40   23 1    
@<TRIPOS>SUBSTRUCTURE
     1 FPT999      1 GROUP   
@<TRIPOS>SET

