#    Name: 1h22_E10_1_INTS_M
#    Modification time : Tue Mar 25 04:22:06 2014

@<TRIPOS>MOLECULE
1h22_E10_1_INTS_M
   85     0     6     0     0
SMALL
NO_CHARGES


@<TRIPOS>ATOM
      1 CA          5.9900   59.5500   72.5985 C.3       2 GLC5        0.0000 
      2 CA          4.4030   60.7540   72.2300 C.3       6 GLL5        0.0000 
      3 CA          7.5770   58.3460   72.9670 C.3       4 GLP5        0.0000 
      4 N           6.1410   58.5430   69.7850 N.am      1 SEC2        0.0000 
      5 N           5.4310   59.4610   70.4410 N.am      5 SEL2        0.0000 
      6 N           6.8510   57.6250   69.1290 N.am      3 SEP2        0.0000 
      7 CA         -1.3215   67.8845   61.2500 C.3       2 GLC5        0.0000 
      8 CA          0.2890   68.2110   62.2470 C.3       6 GLL5        0.0000 
      9 CA         -2.9320   67.5580   60.2530 C.3       4 GLP5        0.0000 
     10 N           0.9460   67.5215   58.6390 N.am      1 SEC2        0.0000 
     11 N           0.4230   68.5620   59.8060 N.am      5 SEL2        0.0000 
     12 N           1.4690   66.4810   57.4720 N.am      3 SEP2        0.0000 
     13 N           1.1905   69.5395   59.2410 N.am      1 SEC2        0.0000 
     14 N           1.9580   70.5170   58.6760 N.am      3 SEP2        0.0000 
     15 CA          4.1115   70.1730   61.7675 C.3       2 GLC5        0.0000 
     16 CA          4.6770   68.3630   61.8600 C.3       6 GLL5        0.0000 
     17 CA          3.5460   71.9830   61.6750 C.3       4 GLP5        0.0000 
     18 CA          3.1465   69.9735   64.3090 C.3       2 GLC5        0.0000 
     19 CA          3.4630   68.1010   64.6320 C.3       6 GLL5        0.0000 
     20 CA          2.8300   71.8460   63.9860 C.3       4 GLP5        0.0000 
     21 CA          4.5540   70.1130   64.3340 C.3       2 GLC5        0.0000 
     22 CA          4.9830   67.9090   64.3050 C.3       6 GLL5        0.0000 
     23 CA          4.1250   72.3170   64.3630 C.3       4 GLP5        0.0000 
     24 CA          5.2850   70.6905   63.2845 C.3       2 GLC5        0.0000 
     25 CA          5.4440   68.7620   63.1480 C.3       6 GLL5        0.0000 
     26 CA          5.1260   72.6190   63.4210 C.3       4 GLP5        0.0000 
     27 CA          5.2410   68.0990   67.0650 C.3       2 GLC5        0.0000 
     28 CA          4.1450   66.5400   66.6350 C.3       6 GLL5        0.0000 
     29 CA          6.3370   69.6580   67.4950 C.3       4 GLP5        0.0000 
     30 CA         -2.3135   62.8795   72.2960 C.3       2 GLC5        0.0000 
     31 CA         -0.8540   61.8630   72.3690 C.3       6 GLL5        0.0000 
     32 CA         -3.7730   63.8960   72.2230 C.3       4 GLP5        0.0000 
     33 CA         -1.4910   63.6660   71.5670 C.3       2 GLC5        0.0000 
     34 CA          0.2800   62.8330   72.0220 C.3       6 GLL5        0.0000 
     35 CA         -3.2620   64.4990   71.1120 C.3       4 GLP5        0.0000 
     36 CA          1.4970   64.4550   72.6845 C.3       2 GLC5        0.0000 
     37 CA          2.7140   66.0770   73.3470 C.3       4 GLP5        0.0000 
     38 CA          0.7170   63.1485   68.3105 C.3       2 GLC5        0.0000 
     39 CA          1.7930   63.5830   70.1510 C.3       6 GLL5        0.0000 
     40 CA         -0.3590   62.7140   66.4700 C.3       4 GLP5        0.0000 
     41 CA          2.2535   64.8300   71.7490 C.3       2 GLC5        0.0000 
     42 CA          5.0790   62.5440   69.0960 C.3       2 GLC5        0.0000 
     43 CA          3.2970   63.2790   70.1170 C.3       6 GLL5        0.0000 
     44 CA          6.8610   61.8090   68.0750 C.3       4 GLP5        0.0000 
     45 CA          3.9695   63.8695   71.8865 C.3       2 GLC5        0.0000 
     46 CA          4.6420   64.4600   73.6560 C.3       4 GLP5        0.0000 
     47 CA          5.4200   66.7090   69.3335 C.3       2 GLC5        0.0000 
     48 CA          4.2940   65.3940   68.9250 C.3       6 GLL5        0.0000 
     49 CA          6.5460   68.0240   69.7420 C.3       4 GLP5        0.0000 
     50 CA          4.1985   65.6160   71.1450 C.3       2 GLC5        0.0000 
     51 CA          4.1030   65.8380   73.3650 C.3       4 GLP5        0.0000 
     52 CA          4.4800   67.5220   68.7615 C.3       2 GLC5        0.0000 
     53 CA          3.3800   66.0170   67.8370 C.3       6 GLL5        0.0000 
     54 CA          5.5800   69.0270   69.6860 C.3       4 GLP5        0.0000 
     55 CA          4.2722   62.6013   73.1810 C.3       2 GLC5        0.0000 
     56 CA          3.4020   60.7310   73.1820 C.3       6 GLL5        0.0000 
     57 CA          4.8964   60.6038   74.2150 C.3       2 GLC5        0.0000 
     58 CA          6.1040   60.7640   75.6830 C.3       4 GLP5        0.0000 
     59 CA          0.1045   57.3708   71.6078 C.3       2 GLC5        0.0000 
     60 CA          2.0090   57.0990   72.6480 C.3       6 GLL5        0.0000 
     61 CA         -1.1040   57.5270   70.2630 C.3       4 GLP5        0.0000 
     62 CA          1.0270   55.6017   71.6538 C.3       2 GLC5        0.0000 
     63 CA          0.6170   57.3300   73.2570 C.3       6 GLL5        0.0000 
     64 CA          0.7410   53.9890   70.3550 C.3       4 GLP5        0.0000 
     65 CA         -1.5543   60.3302   71.3220 C.3       2 GLC5        0.0000 
     66 CA         -0.3570   60.4920   72.7930 C.3       6 GLL5        0.0000 
     67 CA         -2.5030   59.4830   70.0630 C.3       4 GLP5        0.0000 
     68 CA          1.9853   66.5147   62.1863 C.3       2 GLC5        0.0000 
     69 CA          2.5630   68.1880   63.3530 C.3       6 GLL5        0.0000 
     70 CA          1.1120   64.7790   61.6510 C.3       4 GLP5        0.0000 
     71 CA          0.8973   66.4737   62.2398 C.3       2 GLC5        0.0000 
     72 CA          1.0760   68.1260   63.4100 C.3       6 GLL5        0.0000 
     73 CA          0.8366   69.7040   64.0506 C.3       2 GLC5        0.0000 
     74 CA          0.6190   71.2240   65.2870 C.3       4 GLP5        0.0000 
     75 CA          6.8693   69.4712   62.1410 C.3       2 GLC5        0.0000 
     76 CA          8.6780   70.3800   61.7780 C.3       4 GLP5        0.0000 
     77 CA          5.2800   68.8315   65.9818 C.3       2 GLC5        0.0000 
     78 CA          6.6913   66.9382   63.5697 C.3       2 GLC5        0.0000 
     79 CA          8.1690   65.5410   63.4130 C.3       4 GLP5        0.0000 
     80 CA         -0.4710   61.3598   70.2808 C.3       2 GLC5        0.0000 
     81 CA          1.0520   62.4120   70.8010 C.3       6 GLL5        0.0000 
     82 CA         -1.6080   60.0970   69.1500 C.3       4 GLP5        0.0000 
     83 CA          5.2547   63.4213   67.8993 C.3       2 GLC5        0.0000 
     84 CA          4.1290   63.8550   68.9560 C.3       6 GLL5        0.0000 
     85 CA          6.2980   62.2180   66.8580 C.3       4 GLP5        0.0000 
@<TRIPOS>BOND
@<TRIPOS>SUBSTRUCTURE
     1 SEC2        4 GROUP        1 X    SEC  0     ROOT SEC X 2
     2 GLC5        1 GROUP        1 X    GLC  0     **** GLC X 6
     3 SEP2        6 GROUP        1 Y    SEP  0     ROOT SEP Y 9
     4 GLP5        3 GROUP        1 Y    GLP  0     **** GLP Y 13
     5 SEL2        5 GROUP        1 Z    SEL  0     ROOT SEL Z 16
     6 GLL5        2 GROUP        1 Z    GLL  0     **** GLL Z 20
@<TRIPOS>SET

