#    Name: 1h22_E10_1_ligand
#    Modification time : Tue Mar 25 04:22:06 2014

@<TRIPOS>MOLECULE
1h22_E10_1_ligand
   74    77     1     0     0
SMALL
NO_CHARGES


@<TRIPOS>ATOM
      1 C1          4.6110   59.5350   71.3530 C.2       1 E101536     0.0000 
      2 N2          3.7670   58.4830   71.6150 N.am      1 E101536     0.0000 
      3 C3          2.7900   58.4320   72.5350 C.2       1 E101536     0.0000 
      4 C4          2.5470   59.5350   73.3460 C.2       1 E101536     0.0000 
      5 C5          3.4020   60.7310   73.1820 C.2       1 E101536     0.0000 
      6 C6          4.4030   60.7540   72.2300 C.2       1 E101536     0.0000 
      7 O7          5.4310   59.4610   70.4410 O.2       1 E101536     0.0000 
      8 C9          2.0090   57.0990   72.6480 C.3       1 E101536     0.0000 
      9 C10         1.4540   59.5250   74.4340 C.3       1 E101536     0.0000 
     10 C13         0.7230   58.1450   74.5910 C.3       1 E101536     0.0000 
     11 C14         0.6170   57.3300   73.2570 C.3       1 E101536     0.0000 
     12 N17         0.4270   60.6230   74.0930 N.4       1 E101536     0.0000 
     13 C24        -0.3570   60.4920   72.7930 C.3       1 E101536     0.0000 
     14 C29         0.9910   68.3680   60.8990 C.2       1 E101536     0.0000 
     15 N30         2.3790   68.3900   60.9720 N.am      1 E101536     0.0000 
     16 C31         3.1540   68.3130   62.0900 C.2       1 E101536     0.0000 
     17 C32         2.5630   68.1880   63.3530 C.2       1 E101536     0.0000 
     18 C33         1.0760   68.1260   63.4100 C.2       1 E101536     0.0000 
     19 C34         0.2890   68.2110   62.2470 C.2       1 E101536     0.0000 
     20 O35         0.4230   68.5620   59.8060 O.2       1 E101536     0.0000 
     21 C36         4.6770   68.3630   61.8600 C.3       1 E101536     0.0000 
     22 C37         3.4630   68.1010   64.6320 C.3       1 E101536     0.0000 
     23 C38         4.9830   67.9090   64.3050 C.3       1 E101536     0.0000 
     24 C39         5.4440   68.7620   63.1480 C.3       1 E101536     0.0000 
     25 N40         3.1490   66.9030   65.5150 N.4       1 E101536     0.0000 
     26 C41         4.1450   66.5400   66.6350 C.3       1 E101536     0.0000 
     27 C63        -0.8540   61.8630   72.3690 C.3       1 E101536     0.0000 
     28 C64         0.2800   62.8330   72.0220 C.3       1 E101536     0.0000 
     29 C65         1.0520   62.4120   70.8010 C.3       1 E101536     0.0000 
     30 C66         1.7930   63.5830   70.1510 C.3       1 E101536     0.0000 
     31 C67         3.2970   63.2790   70.1170 C.3       1 E101536     0.0000 
     32 C68         4.1290   63.8550   68.9560 C.3       1 E101536     0.0000 
     33 C69         4.2940   65.3940   68.9250 C.3       1 E101536     0.0000 
     34 C70         3.3800   66.0170   67.8370 C.3       1 E101536     0.0000 
     35 H           3.9166   57.5949   71.0006 H         1 E101536     0.0000 
     36 H           3.2172   61.5232   73.7973 H         1 E101536     0.0000 
     37 H           5.0139   61.5345   72.0744 H         1 E101536     0.0000 
     38 H           2.5693   56.4157   73.2786 H         1 E101536     0.0000 
     39 H           1.9018   56.6692   71.6569 H         1 E101536     0.0000 
     40 H           1.9050   59.7822   75.3830 H         1 E101536     0.0000 
     41 H          -0.2853   58.3260   74.9721 H         1 E101536     0.0000 
     42 H           1.2654   57.5449   75.3261 H         1 E101536     0.0000 
     43 H           0.1507   56.3765   73.4733 H         1 E101536     0.0000 
     44 H           0.0026   57.8886   72.5613 H         1 E101536     0.0000 
     45 H          -1.2018   59.8316   72.9478 H         1 E101536     0.0000 
     46 H           0.2885   60.0860   72.0234 H         1 E101536     0.0000 
     47 H           2.8971   68.4793   60.0208 H         1 E101536     0.0000 
     48 H           0.6504   68.0188   64.3326 H         1 E101536     0.0000 
     49 H          -0.7041   68.1753   62.2445 H         1 E101536     0.0000 
     50 H           4.8981   69.0906   61.0800 H         1 E101536     0.0000 
     51 H           5.0228   67.3825   61.5348 H         1 E101536     0.0000 
     52 H           3.3716   68.9926   65.2141 H         1 E101536     0.0000 
     53 H           5.1469   66.8497   64.0806 H         1 E101536     0.0000 
     54 H           5.5541   68.1563   65.2061 H         1 E101536     0.0000 
     55 H           5.2491   69.8085   63.3542 H         1 E101536     0.0000 
     56 H           6.5046   68.6167   62.9757 H         1 E101536     0.0000 
     57 H           4.7012   67.4263   66.9101 H         1 E101536     0.0000 
     58 H           4.8211   65.7785   66.2695 H         1 E101536     0.0000 
     59 H          -1.4558   62.2979   73.1794 H         1 E101536     0.0000 
     60 H          -1.5092   61.7570   71.4929 H         1 E101536     0.0000 
     61 H           0.9588   62.9010   72.8837 H         1 E101536     0.0000 
     62 H          -0.1500   63.8317   71.8617 H         1 E101536     0.0000 
     63 H           0.3675   61.9762   70.0626 H         1 E101536     0.0000 
     64 H           1.7837   61.6411   71.0735 H         1 E101536     0.0000 
     65 H           1.6234   64.4816   70.7287 H         1 E101536     0.0000 
     66 H           1.4335   63.7199   69.1400 H         1 E101536     0.0000 
     67 H           3.4334   62.1679   70.1274 H         1 E101536     0.0000 
     68 H           3.7502   63.6287   71.0791 H         1 E101536     0.0000 
     69 H           3.6715   63.5333   67.9974 H         1 E101536     0.0000 
     70 H           5.1391   63.3958   68.9809 H         1 E101536     0.0000 
     71 H           5.3251   65.6368   68.7017 H         1 E101536     0.0000 
     72 H           4.0214   65.8005   69.8906 H         1 E101536     0.0000 
     73 H           2.6611   65.2527   67.5123 H         1 E101536     0.0000 
     74 H           2.8085   66.8357   68.2949 H         1 E101536     0.0000 
@<TRIPOS>BOND
     1    2    1 am   
     2    6    1 1    
     3    7    1 2    
     4    3    2 1    
     5   35    2 1    
     6    4    3 2    
     7    8    3 1    
     8    5    4 1    
     9    9    4 1    
    10    6    5 2    
    11   36    5 1    
    12   37    6 1    
    13   11    8 1    
    14   38    8 1    
    15   39    8 1    
    16   10    9 1    
    17   12    9 1    
    18   40    9 1    
    19   11   10 1    
    20   41   10 1    
    21   42   10 1    
    22   43   11 1    
    23   44   11 1    
    24   13   12 1    
    25   27   13 1    
    26   45   13 1    
    27   46   13 1    
    28   15   14 am   
    29   19   14 1    
    30   20   14 2    
    31   16   15 1    
    32   47   15 1    
    33   17   16 2    
    34   21   16 1    
    35   18   17 1    
    36   22   17 1    
    37   19   18 2    
    38   48   18 1    
    39   49   19 1    
    40   24   21 1    
    41   50   21 1    
    42   51   21 1    
    43   23   22 1    
    44   25   22 1    
    45   52   22 1    
    46   24   23 1    
    47   53   23 1    
    48   54   23 1    
    49   55   24 1    
    50   56   24 1    
    51   26   25 1    
    52   34   26 1    
    53   57   26 1    
    54   58   26 1    
    55   28   27 1    
    56   59   27 1    
    57   60   27 1    
    58   29   28 1    
    59   61   28 1    
    60   62   28 1    
    61   30   29 1    
    62   63   29 1    
    63   64   29 1    
    64   31   30 1    
    65   65   30 1    
    66   66   30 1    
    67   32   31 1    
    68   67   31 1    
    69   68   31 1    
    70   33   32 1    
    71   69   32 1    
    72   70   32 1    
    73   34   33 1    
    74   71   33 1    
    75   72   33 1    
    76   73   34 1    
    77   74   34 1    
@<TRIPOS>SUBSTRUCTURE
     1 E101536     1 GROUP   
@<TRIPOS>SET

