#    Name: 2r2n_KYN_4_ligand
#    Modification time : Mon Mar 24 23:03:56 2014

@<TRIPOS>MOLECULE
2r2n_KYN_4_ligand
   27    27     1     0     0
SMALL
NO_CHARGES


@<TRIPOS>ATOM
      1 C           0.9190   28.3790  111.3630 C.2       1 KYN428      0.0000 
      2 N           0.1530   26.4710  112.6300 N.4       1 KYN428      0.0000 
      3 OXT         1.4080   29.4260  111.4080 O.co2     1 KYN428      0.0000 
      4 C1          2.9040   25.4490  112.7070 C.2       1 KYN428      0.0000 
      5 N1          5.3510   24.1150  112.2890 N.pl3     1 KYN428      0.0000 
      6 O2          2.2920   24.4120  112.8170 O.2       1 KYN428      0.0000 
      7 CA          1.2960   27.3040  112.3180 C.3       1 KYN428      0.0000 
      8 CB          2.4190   26.4760  111.7210 C.3       1 KYN428      0.0000 
      9 CG          5.3120   25.0460  113.2610 C.ar      1 KYN428      0.0000 
     10 CZ          5.2670   26.9560  115.2470 C.ar      1 KYN428      0.0000 
     11 CD1         6.4640   25.3060  113.9980 C.ar      1 KYN428      0.0000 
     12 CD2         4.1380   25.7280  113.5120 C.ar      1 KYN428      0.0000 
     13 CE1         6.4420   26.2640  114.9950 C.ar      1 KYN428      0.0000 
     14 CE2         4.1180   26.6910  114.5070 C.ar      1 KYN428      0.0000 
     15 O           0.0120   28.1510  110.5630 O.co2     1 KYN428      0.0000 
     16 H           4.5030   23.9775  111.7772 H         1 KYN428      0.0000 
     17 H           6.2245   23.6441  112.1656 H         1 KYN428      0.0000 
     18 H           1.6792   27.7691  113.2267 H         1 KYN428      0.0000 
     19 H           2.0563   25.9779  110.8196 H         1 KYN428      0.0000 
     20 H           3.2426   27.1370  111.4434 H         1 KYN428      0.0000 
     21 H           5.2417   27.6737  115.9886 H         1 KYN428      0.0000 
     22 H           7.3275   24.7845  113.7983 H         1 KYN428      0.0000 
     23 H           7.2856   26.4621  115.5437 H         1 KYN428      0.0000 
     24 H           3.2525   27.2142  114.7025 H         1 KYN428      0.0000 
     25 H          -0.0581   26.4809  113.6074 H         1 KYN428      0.0000 
     26 H          -0.6698   26.7742  112.1494 H         1 KYN428      0.0000 
     27 H           0.3076   25.5170  112.3732 H         1 KYN428      0.0000 
@<TRIPOS>BOND
     1    3    1 ar   
     2    7    1 1    
     3   15    1 ar   
     4    7    2 1    
     5   25    2 1    
     6   26    2 1    
     7   27    2 1    
     8    6    4 2    
     9    8    4 1    
    10   12    4 1    
    11    9    5 1    
    12   16    5 1    
    13   17    5 1    
    14    8    7 1    
    15   18    7 1    
    16   19    8 1    
    17   20    8 1    
    18   11    9 ar   
    19   12    9 ar   
    20   13   10 ar   
    21   14   10 ar   
    22   21   10 1    
    23   13   11 ar   
    24   22   11 1    
    25   14   12 ar   
    26   23   13 1    
    27   24   14 1    
@<TRIPOS>SUBSTRUCTURE
     1 KYN428      1 GROUP   
@<TRIPOS>SET

