#    Name: 3tvq_DQH_1_INTS_M
#    Modification time : Mon Mar 24 21:01:13 2014

@<TRIPOS>MOLECULE
3tvq_DQH_1_INTS_M
   46     0     9     0     0
SMALL
NO_CHARGES


@<TRIPOS>ATOM
      1 CA         65.6035    5.6100   27.5320 C.3       3 GLC5        0.0000 
      2 CA         65.1290    3.7120   27.5580 C.3       9 GLL5        0.0000 
      3 CA         66.0780    7.5080   27.5060 C.3       6 GLP5        0.0000 
      4 CA         64.9265    6.1560   26.6150 C.3       3 GLC5        0.0000 
      5 CA         63.7750    4.8040   25.7240 C.3       9 GLL5        0.0000 
      6 CA         61.6010    6.5260   27.9300 C.3       3 GLC5        0.0000 
      7 CA         62.9610    5.4520   26.7910 C.3       9 GLL5        0.0000 
      8 CA         60.2410    7.6000   29.0690 C.3       6 GLP5        0.0000 
      9 CA         64.1165    6.8930   26.7935 C.3       3 GLC5        0.0000 
     10 CA         65.2720    8.3340   26.7960 C.3       6 GLP5        0.0000 
     11 CA         62.4805    6.8560   28.8575 C.3       3 GLC5        0.0000 
     12 CA         63.2260    5.2340   28.1590 C.3       9 GLL5        0.0000 
     13 CA         61.7350    8.4780   29.5560 C.3       6 GLP5        0.0000 
     14 CA         64.6520    6.3710   27.8325 C.3       3 GLC5        0.0000 
     15 CA         65.2705    5.8525   28.7570 C.3       3 GLC5        0.0000 
     16 CA         64.2910    4.3770   28.5330 C.3       9 GLL5        0.0000 
     17 CA         66.2500    7.3280   28.9810 C.3       6 GLP5        0.0000 
     18 CA         62.8120    5.8920   21.9770 C.3       3 GLC5        0.0000 
     19 CA         62.2220    5.9940   24.0490 C.3       9 GLL5        0.0000 
     20 CA         63.4020    5.7900   19.9050 C.3       6 GLP5        0.0000 
     21 CA         61.2830    4.4485   25.0965 C.3       3 GLC5        0.0000 
     22 CA         60.3440    2.9030   26.1440 C.3       6 GLP5        0.0000 
     23 CA         60.7390    5.3675   26.0235 C.3       3 GLC5        0.0000 
     24 CA         61.9920    7.0130   25.1700 C.3       9 GLL5        0.0000 
     25 CA         59.4860    3.7220   26.8770 C.3       6 GLP5        0.0000 
     26 CA         63.6320    7.6735   25.9830 C.3       3 GLC5        0.0000 
     27 CA         57.7115    8.5280   22.5300 C.3       3 GLC5        0.0000 
     28 CA         58.3380    8.2040   24.6080 C.3       9 GLL5        0.0000 
     29 CA         57.0850    8.8520   20.4520 C.3       6 GLP5        0.0000 
     30 CA         60.5805    8.4815   27.1175 C.3       3 GLC5        0.0000 
     31 CA         60.9200    9.3630   25.1660 C.3       9 GLL5        0.0000 
     32 N          59.0430   12.5005   25.3470 N.am      2 SEC2        0.0000 
     33 N          59.8990   11.5610   25.1550 N.am      8 SEL2        0.0000 
     34 N          58.1870   13.4400   25.5390 N.am      5 SEP2        0.0000 
     35 N          56.7665   11.4305   25.0970 N.am      2 SEC2        0.0000 
     36 N          57.4010   10.4480   24.6100 N.am      8 SEL2        0.0000 
     37 N          56.1320   12.4130   25.5840 N.am      5 SEP2        0.0000 
     38 N          57.7940   11.9440   25.0745 N.am      2 SEC2        0.0000 
     39 O          62.0300    5.6280   21.9480 O.2       1 ALC1        0.0000 
     40 O          62.3430    6.6420   22.7950 O.2       7 ALL1        0.0000 
     41 O          61.7170    4.6140   21.1010 O.2       4 ALP1        0.0000 
     42 CA         62.2712    4.0213   29.3885 C.3       3 GLC5        0.0000 
     43 CA         60.7840    3.2370   30.4310 C.3       6 GLP5        0.0000 
     44 CA         60.3443    7.5142   26.9979 C.3       3 GLC5        0.0000 
     45 CA         57.0427    8.0552   25.9655 C.3       3 GLC5        0.0000 
     46 CA         55.6800    7.2050   27.2560 C.3       6 GLP5        0.0000 
@<TRIPOS>BOND
@<TRIPOS>SUBSTRUCTURE
     1 ALC1       39 GROUP        1 X    ALC  0     ROOT ALC X 1
     2 SEC2       32 GROUP        1 X    SEC  0     **** SEC X 2
     3 GLC5        1 GROUP        1 X    GLC  0     **** GLC X 6
     4 ALP1       41 GROUP        1 Y    ALP  0     ROOT ALP Y 8
     5 SEP2       34 GROUP        1 Y    SEP  0     **** SEP Y 9
     6 GLP5        3 GROUP        1 Y    GLP  0     **** GLP Y 13
     7 ALL1       40 GROUP        1 Z    ALL  0     ROOT ALL Z 15
     8 SEL2       33 GROUP        1 Z    SEL  0     **** SEL Z 16
     9 GLL5        2 GROUP        1 Z    GLL  0     **** GLL Z 20
@<TRIPOS>SET

