#    Name: 3tvq_DQH_1_ligand
#    Modification time : Mon Mar 24 21:01:13 2014

@<TRIPOS>MOLECULE
3tvq_DQH_1_ligand
   33    35     1     0     0
SMALL
NO_CHARGES


@<TRIPOS>ATOM
      1 C1         65.1290    3.7120   27.5580 C.ar      1 DQH380      0.0000 
      2 C2         64.8730    3.9260   26.1690 C.ar      1 DQH380      0.0000 
      3 C3         63.7750    4.8040   25.7240 C.ar      1 DQH380      0.0000 
      4 C4         62.9610    5.4520   26.7910 C.ar      1 DQH380      0.0000 
      5 C5         63.2260    5.2340   28.1590 C.ar      1 DQH380      0.0000 
      6 C6         64.2910    4.3770   28.5330 C.ar      1 DQH380      0.0000 
      7 C9         63.4300    5.0800   24.3120 C.2       1 DQH380      0.0000 
      8 C10        62.2220    5.9940   24.0490 C.3       1 DQH380      0.0000 
      9 C11        61.9920    7.0130   25.1700 C.3       1 DQH380      0.0000 
     10 C14        60.8000    7.9370   25.0310 C.ar      1 DQH380      0.0000 
     11 C15        59.4990    7.3820   24.7530 C.ar      1 DQH380      0.0000 
     12 C16        58.3380    8.2040   24.6080 C.ar      1 DQH380      0.0000 
     13 C17        58.4730    9.6070   24.7420 C.ar      1 DQH380      0.0000 
     14 C18        59.7700   10.1920   25.0240 C.ar      1 DQH380      0.0000 
     15 C19        60.9200    9.3630   25.1660 C.ar      1 DQH380      0.0000 
     16 O12        61.8990    6.3060   26.4740 O.3       1 DQH380      0.0000 
     17 O13        64.0650    4.5820   23.3460 O.2       1 DQH380      0.0000 
     18 O23        59.8990   11.5610   25.1550 O.3       1 DQH380      0.0000 
     19 O24        57.4010   10.4480   24.6100 O.3       1 DQH380      0.0000 
     20 O27        62.3430    6.6420   22.7950 O.3       1 DQH380      0.0000 
     21 O29        64.5480    4.1590   29.8440 O.3       1 DQH380      0.0000 
     22 O30        65.6590    3.2990   25.2640 O.co2     1 DQH380      0.0000 
     23 H          65.8751    3.1124   27.8614 H         1 DQH380      0.0000 
     24 H          62.6604    5.6857   28.8722 H         1 DQH380      0.0000 
     25 H          61.3273    5.3323   24.0369 H         1 DQH380      0.0000 
     26 H          62.9053    7.6519   25.2255 H         1 DQH380      0.0000 
     27 H          59.4080    6.3622   24.6568 H         1 DQH380      0.0000 
     28 H          57.4405    7.7851   24.4135 H         1 DQH380      0.0000 
     29 H          61.8269    9.7742   25.3626 H         1 DQH380      0.0000 
     30 H          60.8845   11.7303   25.1429 H         1 DQH380      0.0000 
     31 H          56.8923   10.0972   23.8238 H         1 DQH380      0.0000 
     32 H          62.1192    5.9403   22.1186 H         1 DQH380      0.0000 
     33 H          65.1326    3.3479   29.8616 H         1 DQH380      0.0000 
@<TRIPOS>BOND
     1    2    1 ar   
     2    6    1 ar   
     3   23    1 1    
     4    3    2 ar   
     5   22    2 ar   
     6    4    3 ar   
     7    7    3 1    
     8    5    4 ar   
     9   16    4 1    
    10    6    5 ar   
    11   24    5 1    
    12   21    6 1    
    13    8    7 1    
    14   17    7 2    
    15    9    8 1    
    16   20    8 1    
    17   25    8 1    
    18   10    9 1    
    19   16    9 1    
    20   26    9 1    
    21   11   10 ar   
    22   15   10 ar   
    23   12   11 ar   
    24   27   11 1    
    25   13   12 ar   
    26   28   12 1    
    27   14   13 ar   
    28   19   13 1    
    29   15   14 ar   
    30   18   14 1    
    31   29   15 1    
    32   30   18 1    
    33   31   19 1    
    34   32   20 1    
    35   33   21 1    
@<TRIPOS>SUBSTRUCTURE
     1 DQH380      1 GROUP   
@<TRIPOS>SET

