#    Name: 1DRU_1_CAVITY_N1_ALL.mol2
#    Modification time : Mon Mar 10 19:02:44 2014

@<TRIPOS>MOLECULE
1DRU_1_CAVITY_N1_ALL.mol2
  102     0     6     0     0
SMALL
NO_CHARGES


@<TRIPOS>ATOM
      1 CA          6.2362   30.0208   20.2682 C.3       5 GLY6        0.0000 
      2 O           7.7993   28.5985   20.0850 O.2       2 ALA2        0.0000 
      3 N           9.5540   30.5102   20.2136 N.2       2 ALA2        0.0000 
      4 CA          8.2061   30.5261   20.8716 C.3       5 GLY6        0.0000 
      5 O           9.7692   29.1037   20.6884 O.2       2 ALA2        0.0000 
      6 O           8.4214   29.1196   21.3465 O.2       2 ALA2        0.0000 
      7 O           9.9845   27.6972   21.1633 O.2       2 ALA2        0.0000 
      8 O           8.6366   27.7131   21.8213 O.2       2 ALA2        0.0000 
      9 O          10.1997   26.2908   21.6381 O.2       2 ALA2        0.0000 
     10 CA         10.1760   31.0313   21.4751 C.3       5 GLY6        0.0000 
     11 O           8.8282   31.0472   22.1332 O.2       2 ALA2        0.0000 
     12 CA         11.7391   29.6090   21.2919 C.3       5 GLY6        0.0000 
     13 CA         10.3913   29.6248   21.9500 C.3       5 GLY6        0.0000 
     14 O           9.0434   29.6407   22.6080 O.2       2 ALA2        0.0000 
     15 N          11.9544   28.2025   21.7667 N.2       2 ALA2        0.0000 
     16 N          10.6065   28.2184   22.4248 N.2       2 ALA2        0.0000 
     17 O           9.2587   28.2342   23.0829 O.2       2 ALA2        0.0000 
     18 N          10.8218   26.8119   22.8996 N.2       2 ALA2        0.0000 
     19 CA         10.7981   31.5524   22.7367 C.3       5 GLY6        0.0000 
     20 CA          9.4502   31.5683   23.3947 C.3       5 GLY6        0.0000 
     21 CZ         12.3612   30.1301   22.5534 C.ar      4 PHE5        0.0000 
     22 CZ         11.0133   30.1460   23.2115 C.ar      4 PHE5        0.0000 
     23 O           9.6655   30.1618   23.8696 O.2       2 ALA2        0.0000 
     24 N          12.5765   28.7236   23.0283 N.2       2 ALA2        0.0000 
     25 N          11.2286   28.7395   23.6863 N.2       2 ALA2        0.0000 
     26 O           9.8808   28.7554   24.3444 O.2       2 ALA2        0.0000 
     27 OG         11.4439   27.3330   24.1612 O.2       1 SER1        0.0000 
     28 OG         10.0960   27.3489   24.8192 O.2       1 SER1        0.0000 
     29 CA          8.5092   33.5118   24.8395 C.3       5 GLY6        0.0000 
     30 CZ         11.4201   32.0736   23.9982 C.ar      4 PHE5        0.0000 
     31 CA         10.0723   32.0894   24.6563 C.3       5 GLY6        0.0000 
     32 OD1         8.7244   32.1053   25.3143 O.3       3 ASP3        0.0000 
     33 O           4.6809   32.1529   27.2885 O.2       2 ALA2        0.0000 
     34 N          11.6354   30.6671   24.4730 N.2       2 ALA2        0.0000 
     35 O          10.2876   30.6829   25.1311 O.2       2 ALA2        0.0000 
     36 O           8.9397   30.6988   25.7892 O.2       2 ALA2        0.0000 
     37 O           7.5919   30.7147   26.4472 O.2       2 ALA2        0.0000 
     38 O           6.2440   30.7306   27.1053 O.2       2 ALA2        0.0000 
     39 O           4.8962   30.7465   27.7634 O.2       2 ALA2        0.0000 
     40 N          11.8507   29.2606   24.9479 N.2       2 ALA2        0.0000 
     41 DU         10.5028   29.2765   25.6059 H         6 CUB7        0.0000 
     42 O           9.1550   29.2923   26.2640 O.2       2 ALA2        0.0000 
     43 O           7.8071   29.3082   26.9221 O.2       2 ALA2        0.0000 
     44 OD1         5.1114   29.3400   28.2382 O.3       3 ASP3        0.0000 
     45 OG         12.0659   27.8541   25.4227 O.2       1 SER1        0.0000 
     46 OG         10.7181   27.8700   26.0808 O.2       1 SER1        0.0000 
     47 CA         10.4791   34.0170   25.4429 C.3       5 GLY6        0.0000 
     48 CZ          9.1312   34.0329   26.1010 C.ar      4 PHE5        0.0000 
     49 CZ          7.7834   34.0488   26.7591 C.ar      4 PHE5        0.0000 
     50 CA          6.4356   34.0647   27.4171 C.3       5 GLY6        0.0000 
     51 CZ         12.0422   32.5947   25.2597 C.ar      4 PHE5        0.0000 
     52 DU         10.6944   32.6105   25.9178 H         6 CUB7        0.0000 
     53 CZ          9.3465   32.6264   26.5759 C.ar      4 PHE5        0.0000 
     54 CZ          7.9987   32.6423   27.2339 C.ar      4 PHE5        0.0000 
     55 O           6.6508   32.6582   27.8920 O.2       2 ALA2        0.0000 
     56 N           5.3030   32.6741   28.5501 N.2       2 ALA2        0.0000 
     57 N          12.2575   31.1882   25.7346 N.2       2 ALA2        0.0000 
     58 DU         10.9096   31.2041   26.3926 H         6 CUB7        0.0000 
     59 DU          9.5618   31.2199   27.0507 H         6 CUB7        0.0000 
     60 DU          8.2139   31.2358   27.7088 H         6 CUB7        0.0000 
     61 O           6.8661   31.2517   28.3668 O.2       2 ALA2        0.0000 
     62 OD1         5.5182   31.2676   29.0249 O.3       3 ASP3        0.0000 
     63 N          12.4727   29.7817   26.2094 N.2       2 ALA2        0.0000 
     64 DU         11.1249   29.7976   26.8675 H         6 CUB7        0.0000 
     65 DU          9.7770   29.8135   27.5255 H         6 CUB7        0.0000 
     66 OD1         8.4292   29.8293   28.1836 O.3       3 ASP3        0.0000 
     67 OD1         7.0813   29.8452   28.8417 O.3       3 ASP3        0.0000 
     68 OG         11.3402   28.3911   27.3423 O.2       1 SER1        0.0000 
     69 DU          9.9923   28.4070   28.0004 H         6 CUB7        0.0000 
     70 CZ         14.0121   33.0999   25.8632 C.ar      4 PHE5        0.0000 
     71 CA         12.6643   33.1158   26.5213 C.3       5 GLY6        0.0000 
     72 CZ         11.3164   33.1317   27.1793 C.ar      4 PHE5        0.0000 
     73 CZ          9.9686   33.1475   27.8374 C.ar      4 PHE5        0.0000 
     74 CZ          8.6207   33.1634   28.4955 C.ar      4 PHE5        0.0000 
     75 CZ          7.2729   33.1793   29.1535 C.ar      4 PHE5        0.0000 
     76 N           5.9250   33.1952   29.8116 N.2       2 ALA2        0.0000 
     77 N          14.2274   31.6934   26.3380 N.2       2 ALA2        0.0000 
     78 N          12.8795   31.7093   26.9961 N.2       2 ALA2        0.0000 
     79 N          11.5317   31.7252   27.6542 N.2       2 ALA2        0.0000 
     80 DU         10.1838   31.7411   28.3122 H         6 CUB7        0.0000 
     81 DU          8.8360   31.7569   28.9703 H         6 CUB7        0.0000 
     82 OD1         7.4881   31.7728   29.6284 O.3       3 ASP3        0.0000 
     83 N           6.1403   31.7887   30.2864 N.2       2 ALA2        0.0000 
     84 N          13.0948   30.3028   27.4709 N.2       2 ALA2        0.0000 
     85 N          11.7470   30.3187   28.1290 N.2       2 ALA2        0.0000 
     86 DU         10.3991   30.3346   28.7871 H         6 CUB7        0.0000 
     87 OD1         9.0513   30.3505   29.4451 O.3       3 ASP3        0.0000 
     88 OD1         7.7034   30.3663   30.1032 O.3       3 ASP3        0.0000 
     89 N          11.9622   28.9122   28.6039 N.2       2 ALA2        0.0000 
     90 OD1         9.2665   28.9440   29.9200 O.3       3 ASP3        0.0000 
     91 O          13.2863   33.6369   27.7828 O.2       2 ALA2        0.0000 
     92 CZ          7.8949   33.7004   30.4151 C.ar      4 PHE5        0.0000 
     93 N          13.5016   32.2304   28.2576 N.2       2 ALA2        0.0000 
     94 N          12.1538   32.2463   28.9157 N.2       2 ALA2        0.0000 
     95 CZ         10.8059   32.2622   29.5738 C.ar      4 PHE5        0.0000 
     96 CZ          9.4581   32.2781   30.2318 C.ar      4 PHE5        0.0000 
     97 CZ          8.1102   32.2939   30.8899 C.ar      4 PHE5        0.0000 
     98 N           6.7624   32.3098   31.5480 N.2       2 ALA2        0.0000 
     99 N          11.0212   30.8557   30.0486 N.2       2 ALA2        0.0000 
    100 DU          9.6733   30.8716   30.7067 H         6 CUB7        0.0000 
    101 OD1         8.3255   30.8875   31.3647 O.3       3 ASP3        0.0000 
    102 N          11.2364   29.4492   30.5235 N.2       2 ALA2        0.0000 
@<TRIPOS>BOND
@<TRIPOS>SUBSTRUCTURE
     1 SER1       27 GROUP   
     2 ALA2        2 GROUP   
     3 ASP3       32 GROUP   
     4 PHE5       21 GROUP   
     5 GLY6        1 GROUP   
     6 CUB7       41 GROUP   
@<TRIPOS>SET

