#    Name: 1dru_NAD_1_INTS_M
#    Modification time : Mon Mar 24 22:24:20 2014

@<TRIPOS>MOLECULE
1dru_NAD_1_INTS_M
   94     0    12     0     0
SMALL
NO_CHARGES


@<TRIPOS>ATOM
      1 N           5.7670   31.5785   17.5970 N.am      2 SEC2        0.0000 
      2 N           5.9230   30.3160   17.6050 N.am     10 SEL2        0.0000 
      3 N           5.6110   32.8410   17.5890 N.am      6 SEP2        0.0000 
      4 NZ          6.4490   26.7100   18.4380 N.4       3 LYC4        0.0000 
      5 NZ          5.7250   27.8140   17.8190 N.4      11 LYL4        0.0000 
      6 NZ          8.4870   25.4060   18.9040 N.4       7 LYP4        0.0000 
      7 N           6.4490   26.7100   18.4380 N.am      2 SEC2        0.0000 
      8 N           5.7250   27.8140   17.8190 N.am     10 SEL2        0.0000 
      9 N           7.1730   25.6060   19.0570 N.am      6 SEP2        0.0000 
     10 N           8.6745   27.6545   18.2895 N.am      2 SEC2        0.0000 
     11 N           7.9830   28.8960   17.5880 N.am     10 SEL2        0.0000 
     12 N           9.3660   26.4130   18.9910 N.am      6 SEP2        0.0000 
     13 CA         11.2385   28.7480   15.4750 C.3       4 GLC5        0.0000 
     14 CA          9.1400   28.8100   15.5200 C.3      12 GLL5        0.0000 
     15 CA         13.3370   28.6860   15.4300 C.3       8 GLP5        0.0000 
     16 O           9.2935   31.3780   13.8040 O.2       1 ALC1        0.0000 
     17 O           9.0590   30.0870   13.5540 O.2       9 ALL1        0.0000 
     18 O           9.5280   32.6690   14.0540 O.2       5 ALP1        0.0000 
     19 O           9.2825   28.5360   10.9715 O.2       1 ALC1        0.0000 
     20 O           9.0400   27.6580   12.0180 O.2       9 ALL1        0.0000 
     21 O           9.5250   29.4140    9.9250 O.2       5 ALP1        0.0000 
     22 O           8.3940   29.0790   11.3085 O.2       1 ALC1        0.0000 
     23 O           7.7480   30.5000   10.5990 O.2       5 ALP1        0.0000 
     24 CA         11.8610   28.1840   14.6440 C.3       4 GLC5        0.0000 
     25 CA         10.3850   27.6820   13.8580 C.3      12 GLL5        0.0000 
     26 CA         14.6665   23.5865   13.1280 C.3       4 GLC5        0.0000 
     27 CA         13.0470   23.8190   12.2470 C.3      12 GLL5        0.0000 
     28 CA         16.2860   23.3540   14.0090 C.3       8 GLP5        0.0000 
     29 CA         12.4810   25.8645    9.7855 C.3       4 GLC5        0.0000 
     30 CA         13.7280   25.8850   11.4330 C.3      12 GLL5        0.0000 
     31 CA         11.2340   25.8440    8.1380 C.3       8 GLP5        0.0000 
     32 CA         15.0070   24.6195   12.7210 C.3       4 GLC5        0.0000 
     33 CA         12.6945   26.6695   14.5185 C.3       4 GLC5        0.0000 
     34 CA         11.9880   25.9150   12.7880 C.3      12 GLL5        0.0000 
     35 CA         13.4010   27.4240   16.2490 C.3       8 GLP5        0.0000 
     36 NZ          6.4640   30.9050   22.5690 N.4       3 LYC4        0.0000 
     37 NZ          6.6060   30.5910   21.2260 N.4      11 LYL4        0.0000 
     38 NZ          6.3220   31.2190   23.9120 N.4       7 LYP4        0.0000 
     39 N           7.9330   32.6210   19.1800 N.am      2 SEC2        0.0000 
     40 N           8.1920   31.2880   19.2220 N.am     10 SEL2        0.0000 
     41 N           7.6740   33.9540   19.1380 N.am      6 SEP2        0.0000 
     42 CA         10.0540   31.7335   20.3090 C.3       4 GLC5        0.0000 
     43 CA         10.1960   29.6760   20.4010 C.3      12 GLL5        0.0000 
     44 CA          9.9120   33.7910   20.2170 C.3       8 GLP5        0.0000 
     45 N          13.2305   26.3740   23.0050 N.am      2 SEC2        0.0000 
     46 N          11.9930   26.7110   22.0620 N.am     10 SEL2        0.0000 
     47 N          14.4680   26.0370   23.9480 N.am      6 SEP2        0.0000 
     48 O          11.9210   26.4430   20.6855 O.2       1 ALC1        0.0000 
     49 O          11.9930   26.7110   22.0620 O.2       9 ALL1        0.0000 
     50 O          11.8490   26.1750   19.3090 O.2       5 ALP1        0.0000 
     51 N          11.7820   26.2930   25.2385 N.am      2 SEC2        0.0000 
     52 N          10.9390   27.1150   24.2910 N.am     10 SEL2        0.0000 
     53 N          12.6250   25.4710   26.1860 N.am      6 SEP2        0.0000 
     54 CA         12.5730   31.0265   22.9590 C.3       4 GLC5        0.0000 
     55 CA         11.7620   29.3370   23.5230 C.3      12 GLL5        0.0000 
     56 CA         13.3840   32.7160   22.3950 C.3       8 GLP5        0.0000 
     57 CA         13.5180   28.4410   22.9020 C.3       4 GLC5        0.0000 
     58 CA         15.2740   27.5450   22.2810 C.3       8 GLP5        0.0000 
     59 CA         14.6865   30.7515   24.4620 C.3       4 GLC5        0.0000 
     60 CA         12.5840   30.8530   25.2540 C.3      12 GLL5        0.0000 
     61 CA         16.7890   30.6500   23.6700 C.3       8 GLP5        0.0000 
     62 CA         13.4870   28.9220   25.9625 C.3       4 GLC5        0.0000 
     63 CA         14.3900   26.9910   26.6710 C.3       8 GLP5        0.0000 
     64 N          14.6285   34.0640   28.5245 N.am      2 SEC2        0.0000 
     65 N          13.7160   33.3030   27.6960 N.am     10 SEL2        0.0000 
     66 N          15.5410   34.8250   29.3530 N.am      6 SEP2        0.0000 
     67 O          14.7620   30.3815   25.5110 O.2       1 ALC1        0.0000 
     68 O          14.7230   31.2930   26.7660 O.2       9 ALL1        0.0000 
     69 O          14.8010   29.4700   24.2560 O.2       5 ALP1        0.0000 
     70 O          16.2835   30.9905   27.1020 O.2       1 ALC1        0.0000 
     71 O          17.8440   30.6880   27.4380 O.2       5 ALP1        0.0000 
     72 CA         11.9675   34.5650   26.3975 C.3       4 GLC5        0.0000 
     73 CA         11.5160   32.5510   26.1850 C.3      12 GLL5        0.0000 
     74 CA         12.4190   36.5790   26.6100 C.3       8 GLP5        0.0000 
     75 CA          9.9980   33.6015   24.2090 C.3       4 GLC5        0.0000 
     76 CA         10.3710   32.1910   25.5260 C.3      12 GLL5        0.0000 
     77 CA          9.6250   35.0120   22.8920 C.3       8 GLP5        0.0000 
     78 CA         10.0700   32.3265   23.2230 C.3       4 GLC5        0.0000 
     79 CA         10.3840   31.0300   24.7160 C.3      12 GLL5        0.0000 
     80 CA          9.7560   33.6230   21.7300 C.3       8 GLP5        0.0000 
     81 CA          7.6387   30.4735   15.1258 C.3       4 GLC5        0.0000 
     82 CA          8.4990   28.9160   14.1530 C.3      12 GLL5        0.0000 
     83 CA          6.4580   32.0840   15.4150 C.3       8 GLP5        0.0000 
     84 CA         10.8714   25.0030   11.2465 C.3       4 GLC5        0.0000 
     85 CA         12.0480   24.5390   12.9690 C.3      12 GLL5        0.0000 
     86 CA          9.4750   24.9590    9.7950 C.3       8 GLP5        0.0000 
     87 CA         11.9080   30.5527   20.4570 C.3       4 GLC5        0.0000 
     88 CA         13.0740   31.7710   20.1040 C.3       8 GLP5        0.0000 
     89 CA         11.7330   28.4787   19.2085 C.3       4 GLC5        0.0000 
     90 CA         11.2880   28.9930   21.2190 C.3      12 GLL5        0.0000 
     91 CA         12.7240   27.6230   17.6070 C.3       8 GLP5        0.0000 
     92 CA         13.1955   27.9503   21.9475 C.3       4 GLC5        0.0000 
     93 CA         10.3494   29.7676   13.9208 C.3       4 GLC5        0.0000 
     94 CA         11.4580   31.2770   13.5990 C.3       8 GLP5        0.0000 
@<TRIPOS>BOND
@<TRIPOS>SUBSTRUCTURE
     1 ALC1       16 GROUP        1 X    ALC  0     ROOT ALC X 1
     2 SEC2        1 GROUP        1 X    SEC  0     **** SEC X 2
     3 LYC4        4 GROUP        1 X    LYC  0     **** LYC X 4
     4 GLC5       13 GROUP        1 X    GLC  0     **** GLC X 6
     5 ALP1       18 GROUP        1 Y    ALP  0     ROOT ALP Y 8
     6 SEP2        3 GROUP        1 Y    SEP  0     **** SEP Y 9
     7 LYP4        6 GROUP        1 Y    LYP  0     **** LYP Y 11
     8 GLP5       15 GROUP        1 Y    GLP  0     **** GLP Y 13
     9 ALL1       17 GROUP        1 Z    ALL  0     ROOT ALL Z 15
    10 SEL2        2 GROUP        1 Z    SEL  0     **** SEL Z 16
    11 LYL4        5 GROUP        1 Z    LYL  0     **** LYL Z 18
    12 GLL5       14 GROUP        1 Z    GLL  0     **** GLL Z 20
@<TRIPOS>SET

