#    Name: 1dru_NAD_1_ligand
#    Modification time : Mon Mar 24 22:24:20 2014

@<TRIPOS>MOLECULE
1dru_NAD_1_ligand
   70    74     1     0     0
SMALL
NO_CHARGES


@<TRIPOS>ATOM
      1 PA          6.4780   29.0500   18.1520 P.3       1 NAD301      0.0000 
      2 O1A         5.9230   30.3160   17.6050 O.co2     1 NAD301      0.0000 
      3 O2A         5.7250   27.8140   17.8190 O.co2     1 NAD301      0.0000 
      4 O5B         7.9830   28.8960   17.5880 O.3       1 NAD301      0.0000 
      5 C5B         8.2720   28.0630   16.4920 C.3       1 NAD301      0.0000 
      6 C4B         9.1400   28.8100   15.5200 C.3       1 NAD301      0.0000 
      7 O4B        10.3300   28.0260   15.2460 O.3       1 NAD301      0.0000 
      8 C3B         8.4990   28.9160   14.1530 C.3       1 NAD301      0.0000 
      9 O3B         9.0590   30.0870   13.5540 O.3       1 NAD301      0.0000 
     10 C2B         8.9390   27.6250   13.4390 C.3       1 NAD301      0.0000 
     11 O2B         9.0400   27.6580   12.0180 O.3       1 NAD301      0.0000 
     12 C1B        10.3850   27.6820   13.8580 C.3       1 NAD301      0.0000 
     13 N9A        10.9470   26.3510   13.5860 N.pl3     1 NAD301      0.0000 
     14 C8A        10.3440   25.2170   14.0770 C.2       1 NAD301      0.0000 
     15 N7A        11.0080   24.1280   13.7840 N.2       1 NAD301      0.0000 
     16 C5A        12.0480   24.5390   12.9690 C.ar      1 NAD301      0.0000 
     17 C6A        13.0470   23.8190   12.2470 C.ar      1 NAD301      0.0000 
     18 N6A        13.2530   22.4760   12.3080 N.pl3     1 NAD301      0.0000 
     19 N1A        13.9300   24.5540   11.5130 N.ar      1 NAD301      0.0000 
     20 C2A        13.7280   25.8850   11.4330 C.ar      1 NAD301      0.0000 
     21 N3A        12.7630   26.6630   11.9700 N.ar      1 NAD301      0.0000 
     22 C4A        11.9880   25.9150   12.7880 C.ar      1 NAD301      0.0000 
     23 O3          6.6450   29.3450   19.6110 O.3       1 NAD301      0.0000 
     24 PN          7.6260   30.2870   20.1720 P.3       1 NAD301      0.0000 
     25 O1N         6.6060   30.5910   21.2260 O.co2     1 NAD301      0.0000 
     26 O2N         8.1920   31.2880   19.2220 O.co2     1 NAD301      0.0000 
     27 O5D         8.8580   29.4710   20.8230 O.3       1 NAD301      0.0000 
     28 C5D        10.1960   29.6760   20.4010 C.3       1 NAD301      0.0000 
     29 C4D        11.2880   28.9930   21.2190 C.3       1 NAD301      0.0000 
     30 O4D        11.8670   29.8890   22.2030 O.3       1 NAD301      0.0000 
     31 C3D        10.9460   27.7180   22.0090 C.3       1 NAD301      0.0000 
     32 O3D        11.9930   26.7110   22.0620 O.3       1 NAD301      0.0000 
     33 C2D        10.7110   28.2270   23.4270 C.3       1 NAD301      0.0000 
     34 O2D        10.9390   27.1150   24.2910 O.3       1 NAD301      0.0000 
     35 C1D        11.7620   29.3370   23.5230 C.3       1 NAD301      0.0000 
     36 N1N        11.5500   30.4110   24.5250 N.pl3     1 NAD301      0.0000 
     37 C2N        12.5840   30.8530   25.2540 C.ar      1 NAD301      0.0000 
     38 C3N        12.6840   31.9310   26.0420 C.ar      1 NAD301      0.0000 
     39 C7N        13.7940   32.2350   26.8100 C.2       1 NAD301      0.0000 
     40 O7N        13.7160   33.3030   27.6960 O.2       1 NAD301      0.0000 
     41 N7N        14.7230   31.2930   26.7660 N.am      1 NAD301      0.0000 
     42 C4N        11.5160   32.5510   26.1850 C.ar      1 NAD301      0.0000 
     43 C5N        10.3710   32.1910   25.5260 C.ar      1 NAD301      0.0000 
     44 C6N        10.3840   31.0300   24.7160 C.ar      1 NAD301      0.0000 
     45 H           7.3611   27.7481   15.9638 H         1 NAD301      0.0000 
     46 H           8.8070   27.1528   16.7975 H         1 NAD301      0.0000 
     47 H           9.3905   29.7641   15.8685 H         1 NAD301      0.0000 
     48 H           7.4677   28.9328   14.2593 H         1 NAD301      0.0000 
     49 H           8.5165   26.8057   13.8640 H         1 NAD301      0.0000 
     50 H          10.8584   28.4310   13.2770 H         1 NAD301      0.0000 
     51 H           9.4946   25.2574   14.5951 H         1 NAD301      0.0000 
     52 H          12.6479   21.9653   12.9188 H         1 NAD301      0.0000 
     53 H          13.9914   22.1177   11.7367 H         1 NAD301      0.0000 
     54 H          14.4828   26.4357   10.8220 H         1 NAD301      0.0000 
     55 H          10.4478   30.7753   20.3751 H         1 NAD301      0.0000 
     56 H          10.3372   29.3479   19.3309 H         1 NAD301      0.0000 
     57 H          12.1174   28.7082   20.5233 H         1 NAD301      0.0000 
     58 H          10.0171   27.3339   21.6544 H         1 NAD301      0.0000 
     59 H           9.7556   28.6365   23.4676 H         1 NAD301      0.0000 
     60 H          12.7297   28.8276   23.7418 H         1 NAD301      0.0000 
     61 H          13.5034   30.2256   25.1950 H         1 NAD301      0.0000 
     62 H          15.5295   31.4434   27.3377 H         1 NAD301      0.0000 
     63 H          14.5341   30.5164   26.1650 H         1 NAD301      0.0000 
     64 H          11.4505   33.3845   26.8526 H         1 NAD301      0.0000 
     65 H           9.5121   32.7360   25.6036 H         1 NAD301      0.0000 
     66 H           9.5061   30.7067   24.3073 H         1 NAD301      0.0000 
     67 H           8.8235   30.8336   14.1761 H         1 NAD301      0.0000 
     68 H           9.0973   28.6288   11.7852 H         1 NAD301      0.0000 
     69 H          11.7442   26.0420   21.3616 H         1 NAD301      0.0000 
     70 H          11.2189   26.3701   23.6855 H         1 NAD301      0.0000 
@<TRIPOS>BOND
     1    2    1 ar   
     2    3    1 ar   
     3    4    1 1    
     4   23    1 1    
     5    5    4 1    
     6    6    5 1    
     7   45    5 1    
     8   46    5 1    
     9    7    6 1    
    10    8    6 1    
    11   47    6 1    
    12   12    7 1    
    13    9    8 1    
    14   10    8 1    
    15   48    8 1    
    16   67    9 1    
    17   11   10 1    
    18   12   10 1    
    19   49   10 1    
    20   68   11 1    
    21   13   12 1    
    22   50   12 1    
    23   14   13 1    
    24   22   13 1    
    25   15   14 2    
    26   51   14 1    
    27   16   15 1    
    28   17   16 ar   
    29   22   16 ar   
    30   18   17 1    
    31   19   17 ar   
    32   52   18 1    
    33   53   18 1    
    34   20   19 ar   
    35   21   20 ar   
    36   54   20 1    
    37   22   21 ar   
    38   24   23 1    
    39   25   24 ar   
    40   26   24 ar   
    41   27   24 1    
    42   28   27 1    
    43   29   28 1    
    44   55   28 1    
    45   56   28 1    
    46   30   29 1    
    47   31   29 1    
    48   57   29 1    
    49   35   30 1    
    50   32   31 1    
    51   33   31 1    
    52   58   31 1    
    53   69   32 1    
    54   34   33 1    
    55   35   33 1    
    56   59   33 1    
    57   70   34 1    
    58   36   35 1    
    59   60   35 1    
    60   37   36 ar   
    61   44   36 ar   
    62   38   37 ar   
    63   61   37 1    
    64   39   38 1    
    65   42   38 ar   
    66   40   39 2    
    67   41   39 am   
    68   62   41 1    
    69   63   41 1    
    70   43   42 ar   
    71   64   42 1    
    72   44   43 ar   
    73   65   43 1    
    74   66   44 1    
@<TRIPOS>SUBSTRUCTURE
     1 NAD301      1 GROUP   
@<TRIPOS>SET

