#    Name: 3rup_ADP_4_INTS_M
#    Modification time : Tue Mar 25 11:57:37 2014

@<TRIPOS>MOLECULE
3rup_ADP_4_INTS_M
   61     0    12     0     0
SMALL
NO_CHARGES


@<TRIPOS>ATOM
      1 NZ         63.1105    5.6930   14.3915 N.4       3 LYC4        0.0000 
      2 NZ         63.0010    5.8310   15.7620 N.4      11 LYL4        0.0000 
      3 NZ         62.2640    5.9520   12.1900 N.4       7 LYP4        0.0000 
      4 N          63.3090    7.0920   15.0725 N.am      2 SEC2        0.0000 
      5 N          63.0010    5.8310   15.7620 N.am     10 SEL2        0.0000 
      6 N          63.6170    8.3530   14.3830 N.am      6 SEP2        0.0000 
      7 N          63.1105    5.6930   14.3915 N.am      2 SEC2        0.0000 
      8 N          63.2200    5.5550   13.0210 N.am      6 SEP2        0.0000 
      9 N          63.9715    6.3275   16.4285 N.am      2 SEC2        0.0000 
     10 N          64.9420    6.8240   17.0950 N.am      6 SEP2        0.0000 
     11 NZ         60.7595    5.9765   13.9815 N.4       3 LYC4        0.0000 
     12 NZ         60.4840    5.7730   15.2990 N.4      11 LYL4        0.0000 
     13 N          60.7595    5.9765   13.9815 N.am      2 SEC2        0.0000 
     14 N          60.4840    5.7730   15.2990 N.am     10 SEL2        0.0000 
     15 N          61.0350    6.1800   12.6640 N.am      6 SEP2        0.0000 
     16 N          59.0620    5.8000   15.2145 N.am      2 SEC2        0.0000 
     17 N          57.6400    5.8270   15.1300 N.am      6 SEP2        0.0000 
     18 NZ         62.0230    6.9080   18.4940 N.4       3 LYC4        0.0000 
     19 NZ         61.2880    5.9720   17.6430 N.4      11 LYL4        0.0000 
     20 NZ         62.7580    7.8440   19.3450 N.4       7 LYP4        0.0000 
     21 N          62.0230    6.9080   18.4940 N.am      2 SEC2        0.0000 
     22 N          61.2880    5.9720   17.6430 N.am     10 SEL2        0.0000 
     23 N          62.7580    7.8440   19.3450 N.am      6 SEP2        0.0000 
     24 N          60.0935    6.2185   18.0650 N.am      2 SEC2        0.0000 
     25 N          58.8990    6.4650   18.4870 N.am      6 SEP2        0.0000 
     26 N          60.6380    4.7375   18.4540 N.am      2 SEC2        0.0000 
     27 N          59.9880    3.5030   19.2650 N.am      6 SEP2        0.0000 
     28 N          65.5425    2.4555   16.1585 N.am      2 SEC2        0.0000 
     29 N          64.0540    3.2580   16.5920 N.am     10 SEL2        0.0000 
     30 N          67.0310    1.6530   15.7250 N.am      6 SEP2        0.0000 
     31 NZ         61.0970    2.5675   18.2990 N.4       3 LYC4        0.0000 
     32 NZ         62.2060    1.6320   17.3330 N.4      11 LYL4        0.0000 
     33 NZ         59.6830    2.2910   19.7100 N.4       7 LYP4        0.0000 
     34 N          62.7580    0.3980   17.9165 N.am      2 SEC2        0.0000 
     35 N          62.2060    1.6320   17.3330 N.am     10 SEL2        0.0000 
     36 N          63.3100   -0.8360   18.5000 N.am      6 SEP2        0.0000 
     37 N          61.2745    1.4330   18.2915 N.am      2 SEC2        0.0000 
     38 N          60.3430    1.2340   19.2500 N.am      6 SEP2        0.0000 
     39 N          61.0970    2.5675   18.2990 N.am      2 SEC2        0.0000 
     40 N          60.7475    3.6885   17.8185 N.am      2 SEC2        0.0000 
     41 N          61.5070    3.8740   16.3720 N.am     10 SEL2        0.0000 
     42 CA         59.9765    2.2095   15.0495 C.3       4 GLC5        0.0000 
     43 CA         61.3930    1.4480   14.4280 C.3      12 GLL5        0.0000 
     44 CA         58.5600    2.9710   15.6710 C.3       8 GLP5        0.0000 
     45 O          62.3895   -3.0475   14.8880 O.2       1 ALC1        0.0000 
     46 O          62.4250   -2.0600   14.0180 O.2       9 ALL1        0.0000 
     47 O          62.3540   -4.0350   15.7580 O.2       5 ALP1        0.0000 
     48 CA         65.3185    0.2195   15.3420 C.3       4 GLC5        0.0000 
     49 CA         64.1540   -0.3150   13.9450 C.3      12 GLL5        0.0000 
     50 CA         66.4830    0.7540   16.7390 C.3       8 GLP5        0.0000 
     51 CA         63.0980    0.6735   10.8830 C.3       4 GLC5        0.0000 
     52 CA         63.8800    0.1220   12.5170 C.3      12 GLL5        0.0000 
     53 CA         62.3160    1.2250    9.2490 C.3       8 GLP5        0.0000 
     54 CA         60.1157    1.2635   12.9840 C.3       4 GLC5        0.0000 
     55 CA         61.8200    0.2140   13.6360 C.3      12 GLL5        0.0000 
     56 CA         58.6250    1.6960   11.9360 C.3       8 GLP5        0.0000 
     57 CA         64.1638    1.4038   10.0730 C.3       4 GLC5        0.0000 
     58 CA         65.6400    0.9520   10.9750 C.3      12 GLL5        0.0000 
     59 CA         67.3894    1.9634   12.2797 C.3       4 GLC5        0.0000 
     60 CA         66.3830    2.2130   10.8190 C.3      12 GLL5        0.0000 
     61 CA         68.5170    2.3300   13.9360 C.3       8 GLP5        0.0000 
@<TRIPOS>BOND
@<TRIPOS>SUBSTRUCTURE
     1 ALC1       45 GROUP        1 X    ALC  0     ROOT ALC X 1
     2 SEC2        4 GROUP        1 X    SEC  0     **** SEC X 2
     3 LYC4        1 GROUP        1 X    LYC  0     **** LYC X 4
     4 GLC5       42 GROUP        1 X    GLC  0     **** GLC X 6
     5 ALP1       47 GROUP        1 Y    ALP  0     ROOT ALP Y 8
     6 SEP2        6 GROUP        1 Y    SEP  0     **** SEP Y 9
     7 LYP4        3 GROUP        1 Y    LYP  0     **** LYP Y 11
     8 GLP5       44 GROUP        1 Y    GLP  0     **** GLP Y 13
     9 ALL1       46 GROUP        1 Z    ALL  0     ROOT ALL Z 15
    10 SEL2        5 GROUP        1 Z    SEL  0     **** SEL Z 16
    11 LYL4        2 GROUP        1 Z    LYL  0     **** LYL Z 18
    12 GLL5       43 GROUP        1 Z    GLL  0     **** GLL Z 20
@<TRIPOS>SET

