#    Name: 3rup_ADP_4_ligand
#    Modification time : Tue Mar 25 11:57:37 2014

@<TRIPOS>MOLECULE
3rup_ADP_4_ligand
   39    41     1     0     0
SMALL
NO_CHARGES


@<TRIPOS>ATOM
      1 PB         61.6160    5.4860   16.2480 P.3       1 ADP1003     0.0000 
      2 O1B        63.0010    5.8310   15.7620 O.co2     1 ADP1003     0.0000 
      3 O2B        60.4840    5.7730   15.2990 O.co2     1 ADP1003     0.0000 
      4 O3B        61.2880    5.9720   17.6430 O.co2     1 ADP1003     0.0000 
      5 PA         62.6490    2.7240   16.3990 P.3       1 ADP1003     0.0000 
      6 O1A        64.0540    3.2580   16.5920 O.co2     1 ADP1003     0.0000 
      7 O2A        62.2060    1.6320   17.3330 O.co2     1 ADP1003     0.0000 
      8 O3A        61.5070    3.8740   16.3720 O.3       1 ADP1003     0.0000 
      9 O5'        62.5330    2.1910   14.8800 O.3       1 ADP1003     0.0000 
     10 C5'        61.3930    1.4480   14.4280 C.3       1 ADP1003     0.0000 
     11 C4'        61.8200    0.2140   13.6360 C.3       1 ADP1003     0.0000 
     12 O4'        62.5630    0.6680   12.5070 O.3       1 ADP1003     0.0000 
     13 C3'        62.7520   -0.7170   14.4060 C.3       1 ADP1003     0.0000 
     14 O3'        62.4250   -2.0600   14.0180 O.3       1 ADP1003     0.0000 
     15 C2'        64.1540   -0.3150   13.9450 C.3       1 ADP1003     0.0000 
     16 O2'        65.1480   -1.3620   13.9880 O.3       1 ADP1003     0.0000 
     17 C1'        63.8800    0.1220   12.5170 C.3       1 ADP1003     0.0000 
     18 N9         64.8250    1.1420   12.0180 N.pl3     1 ADP1003     0.0000 
     19 C8         64.9820    2.3940   12.4860 C.2       1 ADP1003     0.0000 
     20 N7         65.9310    3.0530   11.7740 N.2       1 ADP1003     0.0000 
     21 C5         66.3830    2.2130   10.8190 C.ar      1 ADP1003     0.0000 
     22 C6         67.3840    2.2700    9.7250 C.ar      1 ADP1003     0.0000 
     23 N6         68.1000    3.4010    9.4980 N.pl3     1 ADP1003     0.0000 
     24 N1         67.5410    1.1620    8.9610 N.ar      1 ADP1003     0.0000 
     25 C2         66.8260    0.0290    9.1530 C.ar      1 ADP1003     0.0000 
     26 N3         65.8980   -0.0870   10.1250 N.ar      1 ADP1003     0.0000 
     27 C4         65.6400    0.9520   10.9750 C.ar      1 ADP1003     0.0000 
     28 H          60.7472    2.0573   13.7768 H         1 ADP1003     0.0000 
     29 H          60.7738    1.1068   15.2721 H         1 ADP1003     0.0000 
     30 H          60.9567   -0.3292   13.3268 H         1 ADP1003     0.0000 
     31 H          62.6457   -0.5293   15.4280 H         1 ADP1003     0.0000 
     32 H          64.4362    0.5647   14.4913 H         1 ADP1003     0.0000 
     33 H          63.9155   -0.7561   11.8853 H         1 ADP1003     0.0000 
     34 H          64.4846    2.7810   13.2346 H         1 ADP1003     0.0000 
     35 H          68.7887    3.3481    8.7749 H         1 ADP1003     0.0000 
     36 H          67.8754    4.1870   10.0740 H         1 ADP1003     0.0000 
     37 H          67.0033   -0.7969    8.5147 H         1 ADP1003     0.0000 
     38 H          62.9466   -2.6434   14.6406 H         1 ADP1003     0.0000 
     39 H          65.2155   -1.6152   14.9531 H         1 ADP1003     0.0000 
@<TRIPOS>BOND
     1    2    1 ar   
     2    3    1 ar   
     3    4    1 ar   
     4    8    1 1    
     5    6    5 ar   
     6    7    5 ar   
     7    8    5 1    
     8    9    5 1    
     9   10    9 1    
    10   11   10 1    
    11   28   10 1    
    12   29   10 1    
    13   12   11 1    
    14   13   11 1    
    15   30   11 1    
    16   17   12 1    
    17   14   13 1    
    18   15   13 1    
    19   31   13 1    
    20   38   14 1    
    21   16   15 1    
    22   17   15 1    
    23   32   15 1    
    24   39   16 1    
    25   18   17 1    
    26   33   17 1    
    27   19   18 1    
    28   27   18 1    
    29   20   19 2    
    30   34   19 1    
    31   21   20 1    
    32   22   21 ar   
    33   27   21 ar   
    34   23   22 1    
    35   24   22 ar   
    36   35   23 1    
    37   36   23 1    
    38   25   24 ar   
    39   26   25 ar   
    40   37   25 1    
    41   27   26 ar   
@<TRIPOS>SUBSTRUCTURE
     1 ADP1003     1 GROUP   
@<TRIPOS>SET

