#    Name: 2bdm_TMI_2_INTS_M
#    Modification time : Mon Mar 24 20:31:19 2014

@<TRIPOS>MOLECULE
2bdm_TMI_2_INTS_M
   53     0     3     0     0
SMALL
NO_CHARGES


@<TRIPOS>ATOM
      1 CA        106.0155   24.9435   11.6935 C.3       1 GLC5        0.0000 
      2 CA        106.1050   26.7720   12.3270 C.3       3 GLL5        0.0000 
      3 CA        105.9260   23.1150   11.0600 C.3       2 GLP5        0.0000 
      4 CA        104.7660   25.1625   11.2220 C.3       1 GLC5        0.0000 
      5 CA        104.7140   26.7910   12.3330 C.3       3 GLL5        0.0000 
      6 CA        104.8180   23.5340   10.1110 C.3       2 GLP5        0.0000 
      7 CA        103.2190   29.5225    9.9030 C.3       1 GLC5        0.0000 
      8 CA        104.7250   28.1840   10.3660 C.3       3 GLL5        0.0000 
      9 CA        101.7130   30.8610    9.4400 C.3       2 GLP5        0.0000 
     10 CA        107.8515   26.5260    8.2130 C.3       1 GLC5        0.0000 
     11 CA        106.5660   27.6970    7.1470 C.3       3 GLL5        0.0000 
     12 CA        109.1370   25.3550    9.2790 C.3       2 GLP5        0.0000 
     13 CA        105.1735   25.7050    5.0930 C.3       1 GLC5        0.0000 
     14 CA        106.0030   27.5710    5.8800 C.3       3 GLL5        0.0000 
     15 CA        104.3440   23.8390    4.3060 C.3       2 GLP5        0.0000 
     16 CA        106.2375   31.5570    7.1060 C.3       1 GLC5        0.0000 
     17 CA        105.4510   29.8120    7.4220 C.3       3 GLL5        0.0000 
     18 CA        107.0240   33.3020    6.7900 C.3       2 GLP5        0.0000 
     19 CA        103.5820   30.3365    8.4310 C.3       1 GLC5        0.0000 
     20 CA        103.5065   31.0745    5.1640 C.3       1 GLC5        0.0000 
     21 CA        104.8910   29.6820    6.1540 C.3       3 GLL5        0.0000 
     22 CA        102.1220   32.4670    4.1740 C.3       2 GLP5        0.0000 
     23 CA        104.3295   25.5155    3.9375 C.3       1 GLC5        0.0000 
     24 CA        104.3150   27.1920    3.5690 C.3       3 GLL5        0.0000 
     25 CA        103.4115   25.2705    2.2505 C.3       1 GLC5        0.0000 
     26 CA        103.7660   27.0770    2.2950 C.3       3 GLL5        0.0000 
     27 CA        103.0570   23.4640    2.2060 C.3       2 GLP5        0.0000 
     28 CA        105.9795   30.8220    4.0080 C.3       1 GLC5        0.0000 
     29 CA        104.3800   29.5810    3.3270 C.3       3 GLL5        0.0000 
     30 CA        107.5790   32.0630    4.6890 C.3       2 GLP5        0.0000 
     31 CA        105.9095   26.1408    9.9450 C.3       1 GLC5        0.0000 
     32 CA        106.1180   28.1700   10.3610 C.3       3 GLL5        0.0000 
     33 CA        105.3570   24.4660    9.0390 C.3       2 GLP5        0.0000 
     34 CA        104.8655   26.1528    9.9488 C.3       1 GLC5        0.0000 
     35 CA        107.9123   26.8711    9.6812 C.3       1 GLC5        0.0000 
     36 CA        106.7270   32.5215    8.5745 C.3       1 GLC5        0.0000 
     37 CA        106.1620   31.1350   10.2940 C.3       3 GLL5        0.0000 
     38 CA        105.0815   33.1585    9.9250 C.3       1 GLC5        0.0000 
     39 CA        106.6980   32.3470   10.4240 C.3       3 GLL5        0.0000 
     40 CA        103.7330   34.5760    9.4910 C.3       2 GLP5        0.0000 
     41 CA        105.8208   26.0500    7.7763 C.3       1 GLC5        0.0000 
     42 CA        107.0832   26.0585    5.4982 C.3       1 GLC5        0.0000 
     43 CA        107.8820   24.4830    4.4830 C.3       2 GLP5        0.0000 
     44 CA        107.0060   27.9745    4.2012 C.3       1 GLC5        0.0000 
     45 CA        108.4270   27.8820    2.7760 C.3       2 GLP5        0.0000 
     46 CA        106.3040   30.5928    5.2263 C.3       1 GLC5        0.0000 
     47 CA        105.1670   28.5630    5.3730 C.3       3 GLL5        0.0000 
     48 CA        103.6128   29.8160   -0.1535 C.3       1 GLC5        0.0000 
     49 CA        103.8310   29.4710    2.0530 C.3       3 GLL5        0.0000 
     50 CA        103.5480   30.7880   -2.1010 C.3       2 GLP5        0.0000 
     51 CA        103.8727   31.2635    2.4705 C.3       1 GLC5        0.0000 
     52 CA        103.6400   33.0010    2.2510 C.3       2 GLP5        0.0000 
     53 CA        106.4263   28.2908    3.1776 C.3       1 GLC5        0.0000 
@<TRIPOS>BOND
@<TRIPOS>SUBSTRUCTURE
     1 GLC5        1 GROUP        1 X    GLC  0     ROOT GLC X 6
     2 GLP5        3 GROUP        1 Y    GLP  0     ROOT GLP Y 13
     3 GLL5        2 GROUP        1 Z    GLL  0     ROOT GLL Z 20
@<TRIPOS>SET

