#    Name: 2bdm_TMI_2_ligand
#    Modification time : Mon Mar 24 20:31:20 2014

@<TRIPOS>MOLECULE
2bdm_TMI_2_ligand
   42    45     1     0     0
SMALL
NO_CHARGES


@<TRIPOS>ATOM
      1 CBB       106.8060   27.4610   11.3410 C.ar      1 TMI502      0.0000 
      2 CBC       106.1050   26.7720   12.3270 C.ar      1 TMI502      0.0000 
      3 CBD       104.7140   26.7910   12.3330 C.ar      1 TMI502      0.0000 
      4 CBE       104.0230   27.4950   11.3510 C.ar      1 TMI502      0.0000 
      5 CBF       104.7250   28.1840   10.3660 C.ar      1 TMI502      0.0000 
      6 CBA       106.1180   28.1700   10.3610 C.ar      1 TMI502      0.0000 
      7 CAA       106.9130   28.9590    9.3160 C.3       1 TMI502      0.0000 
      8 NAB       107.0740   30.3730    9.6970 N.pl3     1 TMI502      0.0000 
      9 CAF       106.1620   31.1350   10.2940 C.2       1 TMI502      0.0000 
     10 CAE       106.6980   32.3470   10.4240 C.2       1 TMI502      0.0000 
     11 NAD       107.9250   32.3210    9.9100 N.2       1 TMI502      0.0000 
     12 CAC       108.1660   31.0930    9.4550 C.2       1 TMI502      0.0000 
     13 CCA       106.2920   28.8210    7.9220 C.ar      1 TMI502      0.0000 
     14 CCB       106.5660   27.6970    7.1470 C.ar      1 TMI502      0.0000 
     15 CCC       106.0030   27.5710    5.8800 C.ar      1 TMI502      0.0000 
     16 CCF       105.4510   29.8120    7.4220 C.ar      1 TMI502      0.0000 
     17 CCE       104.8910   29.6820    6.1540 C.ar      1 TMI502      0.0000 
     18 CCD       105.1670   28.5630    5.3730 C.ar      1 TMI502      0.0000 
     19 CDA       104.6270   28.4440    4.0940 C.ar      1 TMI502      0.0000 
     20 CDB       104.3150   27.1920    3.5690 C.ar      1 TMI502      0.0000 
     21 CDC       103.7660   27.0770    2.2950 C.ar      1 TMI502      0.0000 
     22 CDD       103.5240   28.2170    1.5350 C.ar      1 TMI502      0.0000 
     23 CDE       103.8310   29.4710    2.0530 C.ar      1 TMI502      0.0000 
     24 CDF       104.3800   29.5810    3.3270 C.ar      1 TMI502      0.0000 
     25 H         107.8346   27.4458   11.3372 H         1 TMI502      0.0000 
     26 H         106.6155   26.2496   13.0501 H         1 TMI502      0.0000 
     27 H         104.1959   26.2851   13.0628 H         1 TMI502      0.0000 
     28 H         102.9956   27.5062   11.3531 H         1 TMI502      0.0000 
     29 H         104.2148   28.7045    9.6404 H         1 TMI502      0.0000 
     30 H         107.9192   28.4926    9.2616 H         1 TMI502      0.0000 
     31 H         105.2829   30.8634   10.5780 H         1 TMI502      0.0000 
     32 H         106.2655   33.1198   10.8265 H         1 TMI502      0.0000 
     33 H         108.9747   30.7863    9.0326 H         1 TMI502      0.0000 
     34 H         107.1838   26.9606    7.5104 H         1 TMI502      0.0000 
     35 H         106.2068   26.7346    5.3107 H         1 TMI502      0.0000 
     36 H         105.2428   30.6434    7.9920 H         1 TMI502      0.0000 
     37 H         104.2683   30.4187    5.7912 H         1 TMI502      0.0000 
     38 H         104.4922   26.3443    4.1287 H         1 TMI502      0.0000 
     39 H         103.5392   26.1486    1.9155 H         1 TMI502      0.0000 
     40 H         103.1201   28.1329    0.5949 H         1 TMI502      0.0000 
     41 H         103.6526   30.3157    1.4955 H         1 TMI502      0.0000 
     42 H         104.6066   30.5128    3.7081 H         1 TMI502      0.0000 
@<TRIPOS>BOND
     1    2    1 ar   
     2    6    1 ar   
     3   25    1 1    
     4    3    2 ar   
     5   26    2 1    
     6    4    3 ar   
     7   27    3 1    
     8    5    4 ar   
     9   28    4 1    
    10    6    5 ar   
    11   29    5 1    
    12    7    6 1    
    13    8    7 1    
    14   13    7 1    
    15   30    7 1    
    16    9    8 1    
    17   12    8 1    
    18   10    9 2    
    19   31    9 1    
    20   11   10 1    
    21   32   10 1    
    22   12   11 2    
    23   33   12 1    
    24   14   13 ar   
    25   16   13 ar   
    26   15   14 ar   
    27   34   14 1    
    28   18   15 ar   
    29   35   15 1    
    30   17   16 ar   
    31   36   16 1    
    32   18   17 ar   
    33   37   17 1    
    34   19   18 1    
    35   20   19 ar   
    36   24   19 ar   
    37   21   20 ar   
    38   38   20 1    
    39   22   21 ar   
    40   39   21 1    
    41   23   22 ar   
    42   40   22 1    
    43   24   23 ar   
    44   41   23 1    
    45   42   24 1    
@<TRIPOS>SUBSTRUCTURE
     1 TMI502      1 GROUP   
@<TRIPOS>SET

