#    Name: 1ec1_BEE_1_INTS_M
#    Modification time : Mon Mar 24 23:25:34 2014

@<TRIPOS>MOLECULE
1ec1_BEE_1_INTS_M
  116     0     9     0     0
SMALL
NO_CHARGES


@<TRIPOS>ATOM
      1 CA          9.0715   23.3720    0.5400 C.3       3 GLC5        0.0000 
      2 CA          9.1320   23.0130    2.5310 C.3       9 GLL5        0.0000 
      3 CA          9.0110   23.7310   -1.4510 C.3       6 GLP5        0.0000 
      4 CA         18.6115   23.5430    8.2035 C.3       3 GLC5        0.0000 
      5 CA         17.5070   21.9760    8.3300 C.3       9 GLL5        0.0000 
      6 CA         19.7160   25.1100    8.0770 C.3       6 GLP5        0.0000 
      7 CA         17.6260   24.2890    7.9525 C.3       3 GLC5        0.0000 
      8 CA         15.5360   23.4680    7.8280 C.3       9 GLL5        0.0000 
      9 CA         12.9560   26.5790    3.0195 C.3       3 GLC5        0.0000 
     10 CA         12.2440   24.7750    3.9330 C.3       9 GLL5        0.0000 
     11 CA         13.6680   28.3830    2.1060 C.3       6 GLP5        0.0000 
     12 O          11.0105   26.8205    4.1425 O.2       1 ALC1        0.0000 
     13 O          10.4450   25.8700    5.1860 O.2       7 ALL1        0.0000 
     14 O          11.5760   27.7710    3.0990 O.2       4 ALP1        0.0000 
     15 CA         10.6480   27.6450    5.7670 C.3       3 GLC5        0.0000 
     16 CA          9.3130   26.0080    6.1470 C.3       9 GLL5        0.0000 
     17 CA         11.9830   29.2820    5.3870 C.3       6 GLP5        0.0000 
     18 CA          8.7510   23.8410    6.1995 C.3       3 GLC5        0.0000 
     19 CA          8.1890   21.6740    6.2520 C.3       6 GLP5        0.0000 
     20 CA          9.4365   27.3470   10.3985 C.3       3 GLC5        0.0000 
     21 CA          8.6220   26.8450    8.5390 C.3       9 GLL5        0.0000 
     22 CA         10.2510   27.8490   12.2580 C.3       6 GLP5        0.0000 
     23 CA          8.0210   26.4165   10.4095 C.3       3 GLC5        0.0000 
     24 CA          7.4200   25.9880   12.2800 C.3       6 GLP5        0.0000 
     25 CA         12.5405   25.5755    9.3365 C.3       3 GLC5        0.0000 
     26 CA         10.9290   25.8670    8.2170 C.3       9 GLL5        0.0000 
     27 CA         14.1520   25.2840   10.4560 C.3       6 GLP5        0.0000 
     28 CA         10.6620   24.8065    9.9290 C.3       3 GLC5        0.0000 
     29 CA         10.3950   23.7460   11.6410 C.3       6 GLP5        0.0000 
     30 N           9.3265   29.2595    5.1305 N.am      2 SEC2        0.0000 
     31 N           8.7550   27.9790    4.9110 N.am      8 SEL2        0.0000 
     32 N           9.8980   30.5400    5.3500 N.am      5 SEP2        0.0000 
     33 O           6.8375   25.2390    6.1560 O.2       1 ALC1        0.0000 
     34 O           7.0060   26.5550    5.5290 O.2       7 ALL1        0.0000 
     35 O           6.6690   23.9230    6.7830 O.2       4 ALP1        0.0000 
     36 CA          6.8110   29.4235    5.0565 C.3       3 GLC5        0.0000 
     37 CA          6.0290   27.4130    4.9020 C.3       9 GLL5        0.0000 
     38 CA          7.5930   31.4340    5.2110 C.3       6 GLP5        0.0000 
     39 CA         10.0925   23.9975    0.1465 C.3       3 GLC5        0.0000 
     40 CA         11.1740   24.2640    1.7440 C.3       9 GLL5        0.0000 
     41 N          15.3730   26.3545    4.2305 N.am      2 SEC2        0.0000 
     42 N          14.7300   25.2090    4.0680 N.am      8 SEL2        0.0000 
     43 N          16.0160   27.5000    4.3930 N.am      5 SEP2        0.0000 
     44 O          14.6235   25.0000    2.7155 O.2       1 ALC1        0.0000 
     45 O          14.7300   25.2090    4.0680 O.2       7 ALL1        0.0000 
     46 O          14.5170   24.7910    1.3630 O.2       4 ALP1        0.0000 
     47 O          14.5045   23.7400    2.2845 O.2       1 ALC1        0.0000 
     48 O          14.4920   22.6890    3.2060 O.2       7 ALL1        0.0000 
     49 O          17.3555   21.9795    5.0805 O.2       1 ALC1        0.0000 
     50 O          16.3780   20.7550    5.0390 O.2       7 ALL1        0.0000 
     51 O          18.3330   23.2040    5.1220 O.2       4 ALP1        0.0000 
     52 CA         17.6715   20.8460    3.7015 C.3       3 GLC5        0.0000 
     53 CA         16.7070   19.3610    4.8750 C.3       9 GLL5        0.0000 
     54 CA         18.6360   22.3310    2.5280 C.3       6 GLP5        0.0000 
     55 CA         13.4480   19.1180    2.9230 C.3       3 GLC5        0.0000 
     56 CA         15.3530   19.1990    2.6090 C.3       9 GLL5        0.0000 
     57 CA         11.5430   19.0370    3.2370 C.3       6 GLP5        0.0000 
     58 CA         15.2005   18.2020    0.8685 C.3       3 GLC5        0.0000 
     59 CA         15.0480   17.2050   -0.8720 C.3       6 GLP5        0.0000 
     60 CA         13.9605   20.2520    1.4180 C.3       3 GLC5        0.0000 
     61 CA         12.5680   21.3050    0.2270 C.3       6 GLP5        0.0000 
     62 CA         18.4445   17.1775    1.3335 C.3       3 GLC5        0.0000 
     63 CA         17.2320   17.5220    3.0970 C.3       9 GLL5        0.0000 
     64 CA         19.6570   16.8330   -0.4300 C.3       6 GLP5        0.0000 
     65 CA         16.6765   15.6565    3.3270 C.3       3 GLC5        0.0000 
     66 CA         16.1210   13.7910    3.5570 C.3       6 GLP5        0.0000 
     67 N          19.7285   20.3120    3.8675 N.am      2 SEC2        0.0000 
     68 N          19.0310   19.9390    5.0590 N.am      8 SEL2        0.0000 
     69 N          20.4260   20.6850    2.6760 N.am      5 SEP2        0.0000 
     70 O          16.8540   17.6730    6.7165 O.2       1 ALC1        0.0000 
     71 O          18.1920   18.2380    6.3980 O.2       7 ALL1        0.0000 
     72 O          15.5160   17.1080    7.0350 O.2       4 ALP1        0.0000 
     73 CA          6.5255   22.5115    5.1525 C.3       3 GLC5        0.0000 
     74 CA          4.8620   23.3490    4.0530 C.3       9 GLL5        0.0000 
     75 CA         16.0330   18.4125   11.7680 C.3       3 GLC5        0.0000 
     76 CA         17.0800   17.4330   10.5500 C.3       9 GLL5        0.0000 
     77 CA         14.9860   19.3920   12.9860 C.3       6 GLP5        0.0000 
     78 CA         16.0710   16.1645    9.1955 C.3       3 GLC5        0.0000 
     79 CA         15.0620   14.8960    7.8410 C.3       6 GLP5        0.0000 
     80 CA         16.8265   17.6960   12.6355 C.3       3 GLC5        0.0000 
     81 CA         17.8140   16.5110   11.1690 C.3       9 GLL5        0.0000 
     82 CA         15.8390   18.8810   14.1020 C.3       6 GLP5        0.0000 
     83 CA          8.6990   24.3731    0.2606 C.3       3 GLC5        0.0000 
     84 CA          8.8750   25.3280    1.7780 C.3       9 GLL5        0.0000 
     85 CA          6.3753   22.3113    1.6242 C.3       3 GLC5        0.0000 
     86 CA          6.9240   24.0700    2.5610 C.3       9 GLL5        0.0000 
     87 CA          5.4160   21.1130    0.5670 C.3       6 GLP5        0.0000 
     88 CA          8.3137   22.3275    4.4592 C.3       3 GLC5        0.0000 
     89 CA          7.7450   22.9490    2.8020 C.3       9 GLL5        0.0000 
     90 CA         15.2725   20.0963   11.2765 C.3       3 GLC5        0.0000 
     91 CA         15.2880   21.3820    9.2560 C.3       9 GLL5        0.0000 
     92 CA         14.2930   19.4313    8.6600 C.3       3 GLC5        0.0000 
     93 CA         15.8300   20.2190    9.8780 C.3       9 GLL5        0.0000 
     94 CA         13.0270   18.0620    7.7530 C.3       6 GLP5        0.0000 
     95 CA         13.4860   20.4883   10.0070 C.3       3 GLC5        0.0000 
     96 CA         11.4130   20.1760   10.4470 C.3       6 GLP5        0.0000 
     97 CA         17.0288   21.5740   10.8023 C.3       3 GLC5        0.0000 
     98 CA         17.5390   23.0680   11.8040 C.3       6 GLP5        0.0000 
     99 CA         16.2447   19.3588   11.5205 C.3       3 GLC5        0.0000 
    100 CA         17.2070   19.9410    9.7230 C.3       9 GLL5        0.0000 
    101 CA         17.6588   22.2323   10.2220 C.3       3 GLC5        0.0000 
    102 CA         18.0500   20.8170    8.9500 C.3       9 GLL5        0.0000 
    103 CA         16.5806   22.8558   10.0768 C.3       3 GLC5        0.0000 
    104 CA         14.8871   23.9637    9.4027 C.3       3 GLC5        0.0000 
    105 CA         16.1290   22.2560    8.4860 C.3       9 GLL5        0.0000 
    106 CA         11.5615   27.6947    7.2770 C.3       3 GLC5        0.0000 
    107 CA         12.7610   29.1250    6.6920 C.3       6 GLP5        0.0000 
    108 CA         10.8468   25.8181    0.6089 C.3       3 GLC5        0.0000 
    109 CA         11.4630   27.1230   -0.6040 C.3       6 GLP5        0.0000 
    110 CA         11.4314   22.6197    1.1185 C.3       3 GLC5        0.0000 
    111 CA         16.8308   20.6500    2.1840 C.3       3 GLC5        0.0000 
    112 CA         17.6140   22.2060    1.3940 C.3       6 GLP5        0.0000 
    113 CA          4.5625   23.0180    5.9580 C.3       3 GLC5        0.0000 
    114 CA          4.9280   22.6620    7.8480 C.3       6 GLP5        0.0000 
    115 CA          5.1139   22.5945    1.6600 C.3       3 GLC5        0.0000 
    116 CA          4.4780   24.4830    2.0530 C.3       9 GLL5        0.0000 
@<TRIPOS>BOND
@<TRIPOS>SUBSTRUCTURE
     1 ALC1       12 GROUP        1 X    ALC  0     ROOT ALC X 1
     2 SEC2       30 GROUP        1 X    SEC  0     **** SEC X 2
     3 GLC5        1 GROUP        1 X    GLC  0     **** GLC X 6
     4 ALP1       14 GROUP        1 Y    ALP  0     ROOT ALP Y 8
     5 SEP2       32 GROUP        1 Y    SEP  0     **** SEP Y 9
     6 GLP5        3 GROUP        1 Y    GLP  0     **** GLP Y 13
     7 ALL1       13 GROUP        1 Z    ALL  0     ROOT ALL Z 15
     8 SEL2       31 GROUP        1 Z    SEL  0     **** SEL Z 16
     9 GLL5        2 GROUP        1 Z    GLL  0     **** GLL Z 20
@<TRIPOS>SET

