#    Name: 1ec1_BEE_1_ligand
#    Modification time : Mon Mar 24 23:25:34 2014

@<TRIPOS>MOLECULE
1ec1_BEE_1_ligand
  104   107     1     0     0
SMALL
NO_CHARGES


@<TRIPOS>ATOM
      1 C1          9.6990   24.1970    2.0210 C.ar      1 BEE501      0.0000 
      2 C2          8.8750   25.3280    1.7780 C.ar      1 BEE501      0.0000 
      3 C3          7.4870   25.2680    2.0450 C.ar      1 BEE501      0.0000 
      4 C4          6.9240   24.0700    2.5610 C.ar      1 BEE501      0.0000 
      5 C5          7.7450   22.9490    2.8020 C.ar      1 BEE501      0.0000 
      6 C6          9.1320   23.0130    2.5310 C.ar      1 BEE501      0.0000 
      7 C7         16.1290   22.2560    8.4860 C.ar      1 BEE501      0.0000 
      8 C8         15.2880   21.3820    9.2560 C.ar      1 BEE501      0.0000 
      9 C9         15.8300   20.2190    9.8780 C.ar      1 BEE501      0.0000 
     10 C10        17.2070   19.9410    9.7230 C.ar      1 BEE501      0.0000 
     11 C11        18.0500   20.8170    8.9500 C.ar      1 BEE501      0.0000 
     12 C12        17.5070   21.9760    8.3300 C.ar      1 BEE501      0.0000 
     13 C13        15.5360   23.4680    7.8280 C.3       1 BEE501      0.0000 
     14 O14        14.4830   23.0790    6.8890 O.3       1 BEE501      0.0000 
     15 C15        14.9750   22.6310    5.6020 C.3       1 BEE501      0.0000 
     16 C16        13.9660   23.0370    4.5340 C.3       1 BEE501      0.0000 
     17 C17        13.6090   24.4890    4.6210 C.3       1 BEE501      0.0000 
     18 C18        12.2440   24.7750    3.9330 C.3       1 BEE501      0.0000 
     19 C19        11.1130   24.7390    4.9470 C.2       1 BEE501      0.0000 
     20 O20        10.8580   23.6700    5.5050 O.2       1 BEE501      0.0000 
     21 N21        10.4450   25.8700    5.1860 N.am      1 BEE501      0.0000 
     22 C22         9.3130   26.0080    6.1470 C.3       1 BEE501      0.0000 
     23 C23         9.7950   26.6620    7.5070 C.3       1 BEE501      0.0000 
     24 C24         8.6220   26.8450    8.5390 C.3       1 BEE501      0.0000 
     25 C25        10.9290   25.8670    8.2170 C.3       1 BEE501      0.0000 
     26 C26         8.3280   26.9390    5.4710 C.2       1 BEE501      0.0000 
     27 O27         8.7550   27.9790    4.9110 O.2       1 BEE501      0.0000 
     28 N28         7.0060   26.5550    5.5290 N.am      1 BEE501      0.0000 
     29 C29         6.0290   27.4130    4.9020 C.3       1 BEE501      0.0000 
     30 O30        11.9830   23.7760    2.8750 O.3       1 BEE501      0.0000 
     31 C31        11.1740   24.2640    1.7440 C.3       1 BEE501      0.0000 
     32 O32        14.7300   25.2090    4.0680 O.3       1 BEE501      0.0000 
     33 O33        14.4920   22.6890    3.2060 O.3       1 BEE501      0.0000 
     34 C34        15.1860   21.1770    5.4980 C.2       1 BEE501      0.0000 
     35 O35        14.2600   20.4330    5.8250 O.2       1 BEE501      0.0000 
     36 N36        16.3780   20.7550    5.0390 N.am      1 BEE501      0.0000 
     37 C37        16.7070   19.3610    4.8750 C.3       1 BEE501      0.0000 
     38 C38        16.7420   18.9890    3.3390 C.3       1 BEE501      0.0000 
     39 C39        15.3530   19.1990    2.6090 C.3       1 BEE501      0.0000 
     40 C40        17.2320   17.5220    3.0970 C.3       1 BEE501      0.0000 
     41 C41        18.0850   19.2010    5.4630 C.2       1 BEE501      0.0000 
     42 O42        19.0310   19.9390    5.0590 O.2       1 BEE501      0.0000 
     43 N43        18.1920   18.2380    6.3980 N.am      1 BEE501      0.0000 
     44 C44        19.5140   18.0360    6.9900 C.3       1 BEE501      0.0000 
     45 S45         2.8320   24.2220    2.6690 S.3       1 BEE501      0.0000 
     46 C46         3.5320   23.3990    4.0830 C.2       1 BEE501      0.0000 
     47 C47         4.8620   23.3490    4.0530 C.2       1 BEE501      0.0000 
     48 C48         5.4290   23.9890    2.8530 C.2       1 BEE501      0.0000 
     49 C49         4.4780   24.4830    2.0530 C.2       1 BEE501      0.0000 
     50 S50        19.4380   17.0920   11.6130 S.3       1 BEE501      0.0000 
     51 C51        19.0340   18.6610   10.8970 C.2       1 BEE501      0.0000 
     52 C52        17.8000   18.7100   10.3870 C.2       1 BEE501      0.0000 
     53 C53        17.0800   17.4330   10.5500 C.2       1 BEE501      0.0000 
     54 C54        17.8140   16.5110   11.1690 C.2       1 BEE501      0.0000 
     55 H           9.2879   26.1858    1.4095 H         1 BEE501      0.0000 
     56 H           6.8946   26.0746    1.8699 H         1 BEE501      0.0000 
     57 H           7.3390   22.0877    3.1732 H         1 BEE501      0.0000 
     58 H           9.7216   22.1965    2.7067 H         1 BEE501      0.0000 
     59 H          14.2980   21.5988    9.3555 H         1 BEE501      0.0000 
     60 H          15.2348   19.6074   10.4194 H         1 BEE501      0.0000 
     61 H          19.0389   20.5981    8.8519 H         1 BEE501      0.0000 
     62 H          18.1003   22.5893    7.7860 H         1 BEE501      0.0000 
     63 H          16.3321   24.0142    7.3055 H         1 BEE501      0.0000 
     64 H          15.1314   24.1313    8.6035 H         1 BEE501      0.0000 
     65 H          15.9050   23.1490    5.3532 H         1 BEE501      0.0000 
     66 H          13.0539   22.4456    4.7130 H         1 BEE501      0.0000 
     67 H          13.5017   24.7311    5.6849 H         1 BEE501      0.0000 
     68 H          12.2909   25.7632    3.5016 H         1 BEE501      0.0000 
     69 H          10.6907   26.7708    4.6864 H         1 BEE501      0.0000 
     70 H           8.8607   25.0852    6.3433 H         1 BEE501      0.0000 
     71 H          10.1798   27.6598    7.2871 H         1 BEE501      0.0000 
     72 H           6.7010   25.7118    5.9851 H         1 BEE501      0.0000 
     73 H          11.4453   25.3090    1.5097 H         1 BEE501      0.0000 
     74 H          11.3939   23.6696    0.8391 H         1 BEE501      0.0000 
     75 H          17.1288   21.4398    4.7777 H         1 BEE501      0.0000 
     76 H          16.0289   18.7271    5.3644 H         1 BEE501      0.0000 
     77 H          17.4625   19.6533    2.8494 H         1 BEE501      0.0000 
     78 H          17.4361   17.6580    6.7112 H         1 BEE501      0.0000 
     79 H           2.8494   23.1093    4.6643 H         1 BEE501      0.0000 
     80 H           5.4610   22.9512    4.7133 H         1 BEE501      0.0000 
     81 H           4.4535   24.9431    1.2304 H         1 BEE501      0.0000 
     82 H          19.7601   19.2588   10.9755 H         1 BEE501      0.0000 
     83 H          16.1690   17.3493   10.2153 H         1 BEE501      0.0000 
     84 H          17.7019   15.6157   11.4404 H         1 BEE501      0.0000 
     85 H           8.9397   27.2564    9.3933 H         1 BEE501      0.0000 
     86 H           7.9001   27.4364    8.1797 H         1 BEE501      0.0000 
     87 H           8.1954   25.9719    8.7750 H         1 BEE501      0.0000 
     88 H          11.7448   25.7915    7.6436 H         1 BEE501      0.0000 
     89 H          11.2105   26.3043    9.0711 H         1 BEE501      0.0000 
     90 H          10.6435   24.9360    8.4446 H         1 BEE501      0.0000 
     91 H           6.0312   28.3307    5.2993 H         1 BEE501      0.0000 
     92 H           6.2006   27.5174    3.9224 H         1 BEE501      0.0000 
     93 H           5.1012   27.0532    5.0004 H         1 BEE501      0.0000 
     94 H          15.0494   20.1507    2.6550 H         1 BEE501      0.0000 
     95 H          15.4013   18.9532    1.6409 H         1 BEE501      0.0000 
     96 H          14.6307   18.6409    3.0174 H         1 BEE501      0.0000 
     97 H          18.1573   17.3769    3.4475 H         1 BEE501      0.0000 
     98 H          16.6399   16.8536    3.5472 H         1 BEE501      0.0000 
     99 H          17.2476   17.2914    2.1241 H         1 BEE501      0.0000 
    100 H          20.1961   17.7916    6.3008 H         1 BEE501      0.0000 
    101 H          19.8446   18.8599    7.4503 H         1 BEE501      0.0000 
    102 H          19.5084   17.3027    7.6698 H         1 BEE501      0.0000 
    103 H          14.4851   25.3750    3.1128 H         1 BEE501      0.0000 
    104 H          14.4202   23.5306    2.6707 H         1 BEE501      0.0000 
@<TRIPOS>BOND
     1    2    1 ar   
     2    6    1 ar   
     3   31    1 1    
     4    3    2 ar   
     5   55    2 1    
     6    4    3 ar   
     7   56    3 1    
     8    5    4 ar   
     9   48    4 1    
    10    6    5 ar   
    11   57    5 1    
    12   58    6 1    
    13    8    7 ar   
    14   12    7 ar   
    15   13    7 1    
    16    9    8 ar   
    17   59    8 1    
    18   10    9 ar   
    19   60    9 1    
    20   11   10 ar   
    21   52   10 1    
    22   12   11 ar   
    23   61   11 1    
    24   62   12 1    
    25   14   13 1    
    26   63   13 1    
    27   64   13 1    
    28   15   14 1    
    29   16   15 1    
    30   34   15 1    
    31   65   15 1    
    32   17   16 1    
    33   33   16 1    
    34   66   16 1    
    35   18   17 1    
    36   32   17 1    
    37   67   17 1    
    38   19   18 1    
    39   30   18 1    
    40   68   18 1    
    41   20   19 2    
    42   21   19 am   
    43   22   21 1    
    44   69   21 1    
    45   23   22 1    
    46   26   22 1    
    47   70   22 1    
    48   24   23 1    
    49   25   23 1    
    50   71   23 1    
    51   85   24 1    
    52   86   24 1    
    53   87   24 1    
    54   88   25 1    
    55   89   25 1    
    56   90   25 1    
    57   27   26 2    
    58   28   26 am   
    59   29   28 1    
    60   72   28 1    
    61   91   29 1    
    62   92   29 1    
    63   93   29 1    
    64   31   30 1    
    65   73   31 1    
    66   74   31 1    
    67  103   32 1    
    68  104   33 1    
    69   35   34 2    
    70   36   34 am   
    71   37   36 1    
    72   75   36 1    
    73   38   37 1    
    74   41   37 1    
    75   76   37 1    
    76   39   38 1    
    77   40   38 1    
    78   77   38 1    
    79   94   39 1    
    80   95   39 1    
    81   96   39 1    
    82   97   40 1    
    83   98   40 1    
    84   99   40 1    
    85   42   41 2    
    86   43   41 am   
    87   44   43 1    
    88   78   43 1    
    89  100   44 1    
    90  101   44 1    
    91  102   44 1    
    92   46   45 1    
    93   49   45 1    
    94   47   46 2    
    95   79   46 1    
    96   48   47 1    
    97   80   47 1    
    98   49   48 2    
    99   81   49 1    
   100   51   50 1    
   101   54   50 1    
   102   52   51 2    
   103   82   51 1    
   104   53   52 1    
   105   54   53 2    
   106   83   53 1    
   107   84   54 1    
@<TRIPOS>SUBSTRUCTURE
     1 BEE501      1 GROUP   
@<TRIPOS>SET

