#    Name: 3r5m_MLO_1_INTS_M
#    Modification time : Tue Mar 25 10:56:55 2014

@<TRIPOS>MOLECULE
3r5m_MLO_1_INTS_M
   60     0     3     0     0
SMALL
NO_CHARGES


@<TRIPOS>ATOM
      1 CA         12.5495   16.5765   20.0170 C.3       1 GLC5        0.0000 
      2 CA         13.6480   15.9580   21.3520 C.3       3 GLL5        0.0000 
      3 CA         11.4510   17.1950   18.6820 C.3       2 GLP5        0.0000 
      4 CA         11.9070   14.9775   21.4495 C.3       1 GLC5        0.0000 
      5 CA         10.1660   13.9970   21.5470 C.3       2 GLP5        0.0000 
      6 CA         14.1290   17.8700   21.2685 C.3       1 GLC5        0.0000 
      7 CA         14.6100   19.7820   21.1850 C.3       2 GLP5        0.0000 
      8 CA         14.0995   13.0360   21.0575 C.3       1 GLC5        0.0000 
      9 CA         14.5560   14.9270   21.1440 C.3       3 GLL5        0.0000 
     10 CA         13.6430   11.1450   20.9710 C.3       2 GLP5        0.0000 
     11 CA          9.7455   15.3450   13.5070 C.3       1 GLC5        0.0000 
     12 CA          9.5080   13.6920   14.8950 C.3       3 GLL5        0.0000 
     13 CA          9.9830   16.9980   12.1190 C.3       2 GLP5        0.0000 
     14 CA         17.5415   13.2425   14.9185 C.3       1 GLC5        0.0000 
     15 CA         16.4250   13.6130   16.7300 C.3       3 GLL5        0.0000 
     16 CA         18.6580   12.8720   13.1070 C.3       2 GLP5        0.0000 
     17 CA         16.1920   16.2680   15.3350 C.3       1 GLC5        0.0000 
     18 CA         14.4070   15.0580   14.8080 C.3       3 GLL5        0.0000 
     19 CA         17.9770   17.4780   15.8620 C.3       2 GLP5        0.0000 
     20 CA         16.1535   14.5730   13.6995 C.3       1 GLC5        0.0000 
     21 CA         17.9000   14.0880   12.5910 C.3       2 GLP5        0.0000 
     22 CA          7.3180   13.2065   13.8328 C.3       1 GLC5        0.0000 
     23 CA          8.1480   13.5200   15.3360 C.3       3 GLL5        0.0000 
     24 CA          5.8080   12.8070   12.5500 C.3       2 GLP5        0.0000 
     25 CA         10.3335   12.3967   13.8070 C.3       1 GLC5        0.0000 
     26 CA         10.5260   13.3870   15.8030 C.3       3 GLL5        0.0000 
     27 CA         10.6500   11.2540   12.2650 C.3       2 GLP5        0.0000 
     28 CA         15.7005   12.4920   18.0340 C.3       1 GLC5        0.0000 
     29 CA         17.4190   13.4560   17.7060 C.3       3 GLL5        0.0000 
     30 CA         14.0750   11.2720   17.7200 C.3       2 GLP5        0.0000 
     31 CA         17.4495   15.5063   16.5400 C.3       1 GLC5        0.0000 
     32 CA         11.3580   15.9432   13.0793 C.3       1 GLC5        0.0000 
     33 CA         12.1040   14.6250   14.1880 C.3       3 GLL5        0.0000 
     34 CA         13.5553   17.0225   14.8597 C.3       1 GLC5        0.0000 
     35 CA         13.3620   15.1520   13.8910 C.3       3 GLL5        0.0000 
     36 CA         13.2260   18.9400   15.3700 C.3       2 GLP5        0.0000 
     37 CA         14.8120   12.9977   18.2585 C.3       1 GLC5        0.0000 
     38 CA         16.0450   14.6430   19.2880 C.3       3 GLL5        0.0000 
     39 CA         16.1517   16.2295   17.5410 C.3       1 GLC5        0.0000 
     40 CA         15.0530   14.8040   18.3060 C.3       3 GLL5        0.0000 
     41 CA         17.1620   17.9080   17.4240 C.3       2 GLP5        0.0000 
     42 CA         17.8240   15.5739   20.7372 C.3       1 GLC5        0.0000 
     43 CA         19.4080   16.3880   21.5570 C.3       2 GLP5        0.0000 
     44 CA         14.6182   14.9956   22.7755 C.3       1 GLC5        0.0000 
     45 CA         15.8410   15.2140   20.6960 C.3       3 GLL5        0.0000 
     46 CA         14.2650   14.6630   24.5790 C.3       2 GLP5        0.0000 
     47 CA         16.7010   16.3339   18.6708 C.3       1 GLC5        0.0000 
     48 CA          9.1120   11.5998   15.6706 C.3       1 GLC5        0.0000 
     49 CA          8.5470    9.7030   15.8820 C.3       2 GLP5        0.0000 
     50 CA          9.6170   15.0203   16.3986 C.3       1 GLC5        0.0000 
     51 CA          9.5570   16.5440   17.3380 C.3       2 GLP5        0.0000 
     52 CA          9.2325   12.7643   17.2361 C.3       1 GLC5        0.0000 
     53 CA          8.7880   12.0320   19.0130 C.3       2 GLP5        0.0000 
     54 CA         14.9512   12.6137   17.2950 C.3       1 GLC5        0.0000 
     55 CA         15.2300   14.2980   17.0100 C.3       3 GLL5        0.0000 
     56 CA         12.2233   12.9674   13.5526 C.3       1 GLC5        0.0000 
     57 CA         11.8880   13.9950   15.4130 C.3       3 GLL5        0.0000 
     58 CA         12.1360   11.4930   12.3790 C.3       2 GLP5        0.0000 
     59 CA         13.6945   12.7330   16.8374 C.3       1 GLC5        0.0000 
     60 CA         12.9440   13.9090   16.3200 C.3       3 GLL5        0.0000 
@<TRIPOS>BOND
@<TRIPOS>SUBSTRUCTURE
     1 GLC5        1 GROUP        1 X    GLC  0     ROOT GLC X 6
     2 GLP5        3 GROUP        1 Y    GLP  0     ROOT GLP Y 13
     3 GLL5        2 GROUP        1 Z    GLL  0     ROOT GLL Z 20
@<TRIPOS>SET

