#    Name: 3r5m_MLO_1_ligand
#    Modification time : Tue Mar 25 10:56:55 2014

@<TRIPOS>MOLECULE
3r5m_MLO_1_ligand
   34    35     1     0     0
SMALL
NO_CHARGES


@<TRIPOS>ATOM
      1 CAA        13.6480   15.9580   21.3520 C.2       1 MLO1        0.0000 
      2 CAB         8.1480   13.5200   15.3360 C.2       1 MLO1        0.0000 
      3 OAC        16.6340   13.0950   15.4950 O.3       1 MLO1        0.0000 
      4 OAD        15.6120   15.5820   14.4830 O.3       1 MLO1        0.0000 
      5 CAE        14.5560   14.9270   21.1440 C.2       1 MLO1        0.0000 
      6 CAF         9.5080   13.6920   14.8950 C.2       1 MLO1        0.0000 
      7 CAG        17.4190   13.4560   17.7060 C.ar      1 MLO1        0.0000 
      8 CAH        13.3620   15.1520   13.8910 C.ar      1 MLO1        0.0000 
      9 CAI        17.2330   13.9680   18.9900 C.ar      1 MLO1        0.0000 
     10 CAJ        12.1040   14.6250   14.1880 C.ar      1 MLO1        0.0000 
     11 CAK        15.0530   14.8040   18.3060 C.ar      1 MLO1        0.0000 
     12 CAL        12.9440   13.9090   16.3200 C.ar      1 MLO1        0.0000 
     13 CAM        15.8410   15.2140   20.6960 C.3       1 MLO1        0.0000 
     14 CAN        10.5260   13.3870   15.8030 C.3       1 MLO1        0.0000 
     15 CAO        16.4250   13.6130   16.7300 C.ar      1 MLO1        0.0000 
     16 CAP        14.4070   15.0580   14.8080 C.ar      1 MLO1        0.0000 
     17 CAQ        16.0450   14.6430   19.2880 C.ar      1 MLO1        0.0000 
     18 CAR        11.8880   13.9950   15.4130 C.ar      1 MLO1        0.0000 
     19 CAS        15.2300   14.2980   17.0100 C.ar      1 MLO1        0.0000 
     20 CAT        14.2120   14.4360   16.0430 C.ar      1 MLO1        0.0000 
     21 H          14.2789   13.9531   21.3209 H         1 MLO1        0.0000 
     22 H           9.6971   14.0194   13.9673 H         1 MLO1        0.0000 
     23 H          18.2886   12.9603   17.4709 H         1 MLO1        0.0000 
     24 H          13.5187   15.6158   12.9828 H         1 MLO1        0.0000 
     25 H          17.9529   13.8525   19.7034 H         1 MLO1        0.0000 
     26 H          11.3413   14.7013   13.5068 H         1 MLO1        0.0000 
     27 H          14.1818   15.3020   18.5430 H         1 MLO1        0.0000 
     28 H          12.7870   13.4372   17.2355 H         1 MLO1        0.0000 
     29 H          16.6229   14.7767   21.3372 H         1 MLO1        0.0000 
     30 H          16.0392   16.2960   20.6364 H         1 MLO1        0.0000 
     31 H          10.6858   12.2901   15.9050 H         1 MLO1        0.0000 
     32 H          10.2985   13.7511   16.8300 H         1 MLO1        0.0000 
     33 H          16.0857   12.2591   15.4689 H         1 MLO1        0.0000 
     34 H          16.2786   14.8919   14.7646 H         1 MLO1        0.0000 
@<TRIPOS>BOND
     1    5    1 2    
     2    6    2 2    
     3   15    3 1    
     4   33    3 1    
     5   16    4 1    
     6   34    4 1    
     7   13    5 1    
     8   21    5 1    
     9   14    6 1    
    10   22    6 1    
    11    9    7 ar   
    12   15    7 ar   
    13   23    7 1    
    14   10    8 ar   
    15   16    8 ar   
    16   24    8 1    
    17   17    9 ar   
    18   25    9 1    
    19   18   10 ar   
    20   26   10 1    
    21   17   11 ar   
    22   19   11 ar   
    23   27   11 1    
    24   18   12 ar   
    25   20   12 ar   
    26   28   12 1    
    27   17   13 1    
    28   29   13 1    
    29   30   13 1    
    30   18   14 1    
    31   31   14 1    
    32   32   14 1    
    33   19   15 ar   
    34   20   16 ar   
    35   20   19 1    
@<TRIPOS>SUBSTRUCTURE
     1 MLO1        1 GROUP   
@<TRIPOS>SET

