#    Name: 3FQ7_2_CAVITY_N1_ALL.mol2
#    Modification time : Mon Mar 10 16:58:30 2014

@<TRIPOS>MOLECULE
3FQ7_2_CAVITY_N1_ALL.mol2
   55     0     7     0     0
SMALL
NO_CHARGES


@<TRIPOS>ATOM
      1 N           6.6230    9.1064   -9.3979 N.2       2 ALA2        0.0000 
      2 CZ          4.5272    9.0824   -9.0707 C.ar      5 PHE5        0.0000 
      3 NZ          5.5004    8.1875   -9.7792 N.2       4 LYS4        0.0000 
      4 CA          4.3778    7.2686  -10.1605 C.3       6 GLY6        0.0000 
      5 OD1         5.4432   10.7790   -9.9554 O.3       3 ASP3        0.0000 
      6 OG          6.4165    9.8840  -10.6638 O.2       1 SER1        0.0000 
      7 CZ          7.3897    8.9891  -11.3723 C.ar      5 PHE5        0.0000 
      8 CA          3.3474   10.7550   -9.6282 C.3       6 GLY6        0.0000 
      9 CA          4.3206    9.8600  -10.3367 C.3       6 GLY6        0.0000 
     10 DU          5.2939    8.9651  -11.0451 H         7 CUB7        0.0000 
     11 CA          6.2671    8.0702  -11.7536 C.3       6 GLY6        0.0000 
     12 CA          2.2248    9.8360  -10.0095 C.3       6 GLY6        0.0000 
     13 CA          3.1981    8.9411  -10.7180 C.3       6 GLY6        0.0000 
     14 CA          4.1713    8.0462  -11.4264 C.3       6 GLY6        0.0000 
     15 OG          5.1445    7.1512  -12.1349 O.2       1 SER1        0.0000 
     16 CZ         10.4015   10.7096  -12.5841 C.ar      5 PHE5        0.0000 
     17 OG          8.3057   10.6856  -12.2570 O.2       1 SER1        0.0000 
     18 OG          6.2099   10.6616  -11.9298 O.2       1 SER1        0.0000 
     19 CZ          7.1831    9.7667  -12.6383 C.ar      5 PHE5        0.0000 
     20 CA          3.1409   11.5326  -10.8941 C.3       6 GLY6        0.0000 
     21 CA          4.1141   10.6376  -11.6026 C.3       6 GLY6        0.0000 
     22 OG          5.0873    9.7427  -12.3111 O.2       1 SER1        0.0000 
     23 CZ          6.0606    8.8478  -13.0196 C.ar      5 PHE5        0.0000 
     24 OG          2.9915    9.7187  -11.9839 O.2       1 SER1        0.0000 
     25 OG          3.9648    8.8238  -12.6924 O.2       1 SER1        0.0000 
     26 CA          4.9380    7.9288  -13.4009 C.3       6 GLY6        0.0000 
     27 OG          9.2218   12.3822  -13.1416 O.2       1 SER1        0.0000 
     28 CA         10.1950   11.4873  -13.8501 C.3       6 GLY6        0.0000 
     29 O          11.1682   10.5923  -14.5586 O.2       2 ALA2        0.0000 
     30 OG          8.0992   11.4632  -13.5229 O.2       1 SER1        0.0000 
     31 CZ          9.0724   10.5683  -14.2314 C.ar      5 PHE5        0.0000 
     32 O          10.0456    9.6734  -14.9399 O.2       2 ALA2        0.0000 
     33 OG          6.9766   10.5443  -13.9042 O.2       1 SER1        0.0000 
     34 O           4.8808   10.5203  -13.5771 O.2       2 ALA2        0.0000 
     35 O           5.8540    9.6254  -14.2855 O.2       2 ALA2        0.0000 
     36 CA          9.1646   14.9736  -13.3178 C.3       6 GLY6        0.0000 
     37 CA         10.1378   14.0787  -14.0263 C.3       6 GLY6        0.0000 
     38 OG          8.0420   14.0547  -13.6991 O.2       1 SER1        0.0000 
     39 CA          9.0152   13.1598  -14.4076 C.3       6 GLY6        0.0000 
     40 CA          9.9885   12.2649  -15.1161 C.3       6 GLY6        0.0000 
     41 OG          7.8927   12.2409  -14.7889 O.2       1 SER1        0.0000 
     42 OG          8.8659   11.3459  -15.4974 O.2       1 SER1        0.0000 
     43 O           6.7701   11.3219  -15.1702 O.2       2 ALA2        0.0000 
     44 OG          7.7433   10.4270  -15.8787 O.2       1 SER1        0.0000 
     45 O           7.9848   16.6462  -13.8753 O.2       2 ALA2        0.0000 
     46 O           8.9580   15.7512  -14.5838 O.2       2 ALA2        0.0000 
     47 CA          6.8622   15.7272  -14.2566 C.3       6 GLY6        0.0000 
     48 O           7.8355   14.8323  -14.9651 O.2       2 ALA2        0.0000 
     49 O           6.7129   13.9134  -15.3464 O.2       2 ALA2        0.0000 
     50 OG          7.6861   13.0185  -16.0549 O.2       1 SER1        0.0000 
     51 CA          6.5635   12.0995  -16.4362 C.3       6 GLY6        0.0000 
     52 N           7.7783   17.4238  -15.1413 N.2       2 ALA2        0.0000 
     53 CA          6.6557   16.5049  -15.5226 C.3       6 GLY6        0.0000 
     54 CA          7.6289   15.6099  -16.2311 C.3       6 GLY6        0.0000 
     55 CA          6.5064   14.6910  -16.6124 C.3       6 GLY6        0.0000 
@<TRIPOS>BOND
@<TRIPOS>SUBSTRUCTURE
     1 SER1        6 GROUP   
     2 ALA2        1 GROUP   
     3 ASP3        5 GROUP   
     4 LYS4        3 GROUP   
     5 PHE5        2 GROUP   
     6 GLY6        4 GROUP   
     7 CUB7       10 GROUP   
@<TRIPOS>SET

