#    Name: 3fq7_PXG_2_INTS_M
#    Modification time : Tue Mar 25 06:14:34 2014

@<TRIPOS>MOLECULE
3fq7_PXG_2_INTS_M
   68     0     6     0     0
SMALL
NO_CHARGES


@<TRIPOS>ATOM
      1 CA         13.0385   12.1165  -11.8710 C.3       2 GLC5        0.0000 
      2 CA         12.7870   10.2160  -11.5340 C.3       6 GLL5        0.0000 
      3 CA         13.2900   14.0170  -12.2080 C.3       4 GLP5        0.0000 
      4 CA         14.9440    8.7415   -9.9220 C.3       2 GLC5        0.0000 
      5 CA         13.8260    9.8560  -10.5210 C.3       6 GLL5        0.0000 
      6 CA         16.0620    7.6270   -9.3230 C.3       4 GLP5        0.0000 
      7 CA         15.7105   10.1575  -11.6015 C.3       2 GLC5        0.0000 
      8 CA         17.5950   10.4590  -12.6820 C.3       4 GLP5        0.0000 
      9 CA         13.0780   11.2215   -8.9935 C.3       2 GLC5        0.0000 
     10 CA         12.3300   12.5870   -7.4660 C.3       4 GLP5        0.0000 
     11 CA         11.8615   11.4420   -9.3325 C.3       2 GLC5        0.0000 
     12 CA         11.3930   10.2970  -11.1990 C.3       6 GLL5        0.0000 
     13 N          11.2405    8.8210   -9.5665 N.am      1 SEC2        0.0000 
     14 N          10.9740   10.0560   -9.9520 N.am      5 SEL2        0.0000 
     15 N          11.5070    7.5860   -9.1810 N.am      3 SEP2        0.0000 
     16 CA         13.5730   10.9140  -15.2270 C.3       2 GLC5        0.0000 
     17 CA         12.2250   10.8690  -13.7850 C.3       6 GLL5        0.0000 
     18 CA         14.9210   10.9590  -16.6690 C.3       4 GLP5        0.0000 
     19 CA         12.8900    9.3200  -14.5460 C.3       2 GLC5        0.0000 
     20 CA         13.5550    7.7710  -15.3070 C.3       4 GLP5        0.0000 
     21 CA         12.7575   12.4430  -12.9965 C.3       2 GLC5        0.0000 
     22 CA         10.6340   13.0925  -15.4535 C.3       2 GLC5        0.0000 
     23 CA          9.9270   11.5810  -14.5530 C.3       6 GLL5        0.0000 
     24 CA         11.3410   14.6040  -16.3540 C.3       4 GLP5        0.0000 
     25 CA          9.3170    9.5850  -14.2760 C.3       2 GLC5        0.0000 
     26 CA          8.7070    7.5890  -13.9990 C.3       4 GLP5        0.0000 
     27 N           8.9510   15.0005  -15.9945 N.am      1 SEC2        0.0000 
     28 N           7.7090   14.6270  -15.2170 N.am      5 SEL2        0.0000 
     29 N          10.1930   15.3740  -16.7720 N.am      3 SEP2        0.0000 
     30 N           9.2555   12.8720  -17.4560 N.am      1 SEC2        0.0000 
     31 N           7.9900   12.7120  -16.9120 N.am      5 SEL2        0.0000 
     32 N          10.5210   13.0320  -18.0000 N.am      3 SEP2        0.0000 
     33 N           8.3260   11.7340  -17.6675 N.am      1 SEC2        0.0000 
     34 N           8.6620   10.7560  -18.4230 N.am      3 SEP2        0.0000 
     35 N           5.6040   12.5025  -14.4700 N.am      1 SEC2        0.0000 
     36 N           7.0250   12.1850  -14.6130 N.am      5 SEL2        0.0000 
     37 N           4.1830   12.8200  -14.3270 N.am      3 SEP2        0.0000 
     38 N           6.5935   12.6835  -13.4365 N.am      1 SEC2        0.0000 
     39 N           6.1620   13.1820  -12.2600 N.am      3 SEP2        0.0000 
     40 CA          9.2535    8.8900  -12.3345 C.3       2 GLC5        0.0000 
     41 CA          8.8920   10.6600  -11.6150 C.3       6 GLL5        0.0000 
     42 CA          9.6150    7.1200  -13.0540 C.3       4 GLP5        0.0000 
     43 CA          9.0255   12.1835  -10.7960 C.3       2 GLC5        0.0000 
     44 CA          9.1590   13.7070   -9.9770 C.3       4 GLP5        0.0000 
     45 N           1.9135    9.2285  -13.0215 N.am      1 SEC2        0.0000 
     46 N           2.4660    9.4540  -11.9110 N.am      5 SEL2        0.0000 
     47 N           1.3610    9.0030  -14.1320 N.am      3 SEP2        0.0000 
     48 CA          5.6260   12.1565  -11.8890 C.3       2 GLC5        0.0000 
     49 CA          6.0700   10.1230  -11.2520 C.3       6 GLL5        0.0000 
     50 CA          5.1820   14.1900  -12.5260 C.3       4 GLP5        0.0000 
     51 CA          8.1305   11.8775  -10.0905 C.3       2 GLC5        0.0000 
     52 CA          7.1020   10.0480  -10.2040 C.3       6 GLL5        0.0000 
     53 CA          5.3835    7.3540   -7.2625 C.3       2 GLC5        0.0000 
     54 CA          5.4510    8.7290   -8.8740 C.3       6 GLL5        0.0000 
     55 CA          5.3160    5.9790   -5.6510 C.3       4 GLP5        0.0000 
     56 CA          2.7935    8.1085   -9.6690 C.3       2 GLC5        0.0000 
     57 CA          4.4730    8.7900   -9.9270 C.3       6 GLL5        0.0000 
     58 CA          1.1140    7.4270   -9.4110 C.3       4 GLP5        0.0000 
     59 N           2.6385    9.3325  -13.7480 N.am      1 SEC2        0.0000 
     60 N           3.9160    9.6620  -13.3640 N.am      5 SEL2        0.0000 
     61 CA         11.3520   12.3920  -11.9010 C.3       2 GLC5        0.0000 
     62 CA         10.4130   10.6530  -12.1270 C.3       6 GLL5        0.0000 
     63 CA         11.8010   14.3090  -12.1390 C.3       4 GLP5        0.0000 
     64 CA         10.0310   12.0910  -10.8200 C.3       2 GLC5        0.0000 
     65 CA         11.0910   12.7912  -13.0747 C.3       2 GLC5        0.0000 
     66 CA         10.8350   10.9660  -13.4680 C.3       6 GLL5        0.0000 
     67 CA          8.2940   10.1543   -8.3380 C.3       2 GLC5        0.0000 
     68 CA          9.6360   10.6010   -7.0370 C.3       4 GLP5        0.0000 
@<TRIPOS>BOND
@<TRIPOS>SUBSTRUCTURE
     1 SEC2       13 GROUP        1 X    SEC  0     ROOT SEC X 2
     2 GLC5        1 GROUP        1 X    GLC  0     **** GLC X 6
     3 SEP2       15 GROUP        1 Y    SEP  0     ROOT SEP Y 9
     4 GLP5        3 GROUP        1 Y    GLP  0     **** GLP Y 13
     5 SEL2       14 GROUP        1 Z    SEL  0     ROOT SEL Z 16
     6 GLL5        2 GROUP        1 Z    GLL  0     **** GLL Z 20
@<TRIPOS>SET

