#    Name: 3fq7_PXG_2_ligand
#    Modification time : Tue Mar 25 06:14:34 2014

@<TRIPOS>MOLECULE
3fq7_PXG_2_ligand
   39    40     1     0     0
SMALL
NO_CHARGES


@<TRIPOS>ATOM
      1 N1         13.2110   10.5000  -12.8440 N.ar      1 PXG2434     0.0000 
      2 C2         12.7870   10.2160  -11.5340 C.ar      1 PXG2434     0.0000 
      3 C2A        13.8260    9.8560  -10.5210 C.3       1 PXG2434     0.0000 
      4 C3         11.3930   10.2970  -11.1990 C.ar      1 PXG2434     0.0000 
      5 O3         10.9740   10.0560   -9.9520 O.3       1 PXG2434     0.0000 
      6 C5         10.8350   10.9660  -13.4680 C.ar      1 PXG2434     0.0000 
      7 C6         12.2250   10.8690  -13.7850 C.ar      1 PXG2434     0.0000 
      8 C5A         9.9270   11.5810  -14.5530 C.3       1 PXG2434     0.0000 
      9 OP4         9.4120   13.0320  -14.6810 O.3       1 PXG2434     0.0000 
     10 P           7.9440   13.1330  -15.2930 P.3       1 PXG2434     0.0000 
     11 OP1         7.7090   14.6270  -15.2170 O.co2     1 PXG2434     0.0000 
     12 OP2         7.9900   12.7120  -16.9120 O.co2     1 PXG2434     0.0000 
     13 OP3         7.0250   12.1850  -14.6130 O.co2     1 PXG2434     0.0000 
     14 C4         10.4130   10.6530  -12.1270 C.ar      1 PXG2434     0.0000 
     15 C4A         8.8920   10.6600  -11.6150 C.3       1 PXG2434     0.0000 
     16 C7          3.6760    9.5310  -12.1580 C.2       1 PXG2434     0.0000 
     17 C8          4.7680    9.4840  -11.0900 C.ar      1 PXG2434     0.0000 
     18 O2          2.4660    9.4540  -11.9110 O.co2     1 PXG2434     0.0000 
     19 C9          6.0700   10.1230  -11.2520 C.ar      1 PXG2434     0.0000 
     20 C10         7.1020   10.0480  -10.2040 C.ar      1 PXG2434     0.0000 
     21 C11         6.8020    9.3670   -9.0740 C.ar      1 PXG2434     0.0000 
     22 C12         5.4510    8.7290   -8.8740 C.ar      1 PXG2434     0.0000 
     23 C13         4.4730    8.7900   -9.9270 C.ar      1 PXG2434     0.0000 
     24 O8          3.9160    9.6620  -13.3640 O.co2     1 PXG2434     0.0000 
     25 N9          8.3560   10.6100  -10.2560 N.pl3     1 PXG2434     0.0000 
     26 H          12.5188   11.0828  -14.7618 H         1 PXG2434     0.0000 
     27 H           8.9841   10.8886  -14.6277 H         1 PXG2434     0.0000 
     28 H          10.4142   11.3117  -15.5846 H         1 PXG2434     0.0000 
     29 H           8.3783    9.8116  -12.2570 H         1 PXG2434     0.0000 
     30 H           8.4130   11.5815  -12.1782 H         1 PXG2434     0.0000 
     31 H           6.2747   10.6327  -12.1054 H         1 PXG2434     0.0000 
     32 H           7.4641    9.2449   -8.2969 H         1 PXG2434     0.0000 
     33 H           5.2656    8.2740   -8.0048 H         1 PXG2434     0.0000 
     34 H           3.5803    8.3205   -9.7966 H         1 PXG2434     0.0000 
     35 H           8.8638   10.9475   -9.5046 H         1 PXG2434     0.0000 
     36 H          14.3379    9.0395  -10.7881 H         1 PXG2434     0.0000 
     37 H          14.4920   10.5912  -10.3946 H         1 PXG2434     0.0000 
     38 H          13.4224    9.6690   -9.6254 H         1 PXG2434     0.0000 
     39 H          11.2359   10.8676   -9.4297 H         1 PXG2434     0.0000 
@<TRIPOS>BOND
     1    2    1 ar   
     2    7    1 ar   
     3    3    2 1    
     4    4    2 ar   
     5   36    3 1    
     6   37    3 1    
     7   38    3 1    
     8    5    4 1    
     9   14    4 ar   
    10   39    5 1    
    11    7    6 ar   
    12    8    6 1    
    13   14    6 ar   
    14   26    7 1    
    15    9    8 1    
    16   27    8 1    
    17   28    8 1    
    18   10    9 1    
    19   11   10 ar   
    20   12   10 ar   
    21   13   10 ar   
    22   15   14 1    
    23   25   15 1    
    24   29   15 1    
    25   30   15 1    
    26   17   16 1    
    27   18   16 ar   
    28   24   16 ar   
    29   19   17 ar   
    30   23   17 ar   
    31   20   19 ar   
    32   31   19 1    
    33   21   20 ar   
    34   25   20 1    
    35   22   21 ar   
    36   32   21 1    
    37   23   22 ar   
    38   33   22 1    
    39   34   23 1    
    40   35   25 1    
@<TRIPOS>SUBSTRUCTURE
     1 PXG2434     1 GROUP   
@<TRIPOS>SET

