#    Name: 2h2j_SFG_3_INTS_M
#    Modification time : Tue Mar 25 15:27:25 2014

@<TRIPOS>MOLECULE
2h2j_SFG_3_INTS_M
   47     0    12     0     0
SMALL
NO_CHARGES


@<TRIPOS>ATOM
      1 O         121.6255  131.7155  143.7625 O.2       1 ALC1        0.0000 
      2 O         120.7540  131.1650  145.0800 O.2       9 ALL1        0.0000 
      3 O         122.4970  132.2660  142.4450 O.2       5 ALP1        0.0000 
      4 O         121.7060  131.1275  145.9690 O.2       1 ALC1        0.0000 
      5 O         122.6580  131.0900  146.8580 O.2       5 ALP1        0.0000 
      6 O         121.0780  129.9095  144.7370 O.2       1 ALC1        0.0000 
      7 O         121.4020  128.6540  144.3940 O.2       5 ALP1        0.0000 
      8 NZ        117.5375  133.4660  146.8775 N.4       3 LYC4        0.0000 
      9 NZ        118.7110  133.5950  146.7430 N.4      11 LYL4        0.0000 
     10 NZ        115.3170  132.6310  147.4100 N.4       7 LYP4        0.0000 
     11 N         117.5375  133.4660  146.8775 N.am      2 SEC2        0.0000 
     12 N         118.7110  133.5950  146.7430 N.am     10 SEL2        0.0000 
     13 N         116.3640  133.3370  147.0120 N.am      6 SEP2        0.0000 
     14 N         121.9475  133.6565  146.1965 N.am      2 SEC2        0.0000 
     15 N         120.7640  133.7610  146.0150 N.am     10 SEL2        0.0000 
     16 N         123.1310  133.5520  146.3780 N.am      6 SEP2        0.0000 
     17 CA        114.5425  130.3645  145.4770 C.3       4 GLC5        0.0000 
     18 CA        116.4840  129.6030  145.1130 C.3      12 GLL5        0.0000 
     19 CA        112.6010  131.1260  145.8410 C.3       8 GLP5        0.0000 
     20 CA        116.1420  127.6425  146.0585 C.3       4 GLC5        0.0000 
     21 CA        115.8000  125.6820  147.0040 C.3       8 GLP5        0.0000 
     22 CA        118.5750  128.8795  138.9830 C.3       4 GLC5        0.0000 
     23 CA        118.2570  130.4220  140.5400 C.3      12 GLL5        0.0000 
     24 CA        118.8930  127.3370  137.4260 C.3       8 GLP5        0.0000 
     25 N         120.8795  125.5340  142.1545 N.am      2 SEC2        0.0000 
     26 N         120.7230  126.7740  141.4170 N.am     10 SEL2        0.0000 
     27 N         121.0360  124.2940  142.8920 N.am      6 SEP2        0.0000 
     28 CA        121.8845  126.9340  142.3265 C.3       4 GLC5        0.0000 
     29 CA        121.3590  127.3880  140.3210 C.3      12 GLL5        0.0000 
     30 CA        122.4100  126.4800  144.3320 C.3       8 GLP5        0.0000 
     31 CA        120.6935  125.3600  140.6120 C.3       4 GLC5        0.0000 
     32 CA        120.0280  123.3320  140.9030 C.3       8 GLP5        0.0000 
     33 O         122.9800  124.6535  140.2935 O.2       1 ALC1        0.0000 
     34 O         122.7710  125.6870  139.3210 O.2       9 ALL1        0.0000 
     35 O         123.1890  123.6200  141.2660 O.2       5 ALP1        0.0000 
     36 CA        123.4700  128.7845  140.0145 C.3       4 GLC5        0.0000 
     37 CA        122.2500  129.0930  138.4050 C.3      12 GLL5        0.0000 
     38 CA        124.6900  128.4760  141.6240 C.3       8 GLP5        0.0000 
     39 CA        121.1515  128.6050  136.8685 C.3       4 GLC5        0.0000 
     40 CA        120.0530  128.1170  135.3320 C.3       8 GLP5        0.0000 
     41 CA        122.5240  129.1955  141.3000 C.3       4 GLC5        0.0000 
     42 CA        120.9610  128.7260  140.2120 C.3      12 GLL5        0.0000 
     43 CA        124.0870  129.6650  142.3880 C.3       8 GLP5        0.0000 
     44 CA        118.5110  129.6780  147.8682 C.3       4 GLC5        0.0000 
     45 CA        117.9100  129.6270  145.7540 C.3      12 GLL5        0.0000 
     46 CA        118.8360  129.0290  149.8190 C.3       8 GLP5        0.0000 
     47 CA        123.2602  127.8187  140.7285 C.3       4 GLC5        0.0000 
@<TRIPOS>BOND
@<TRIPOS>SUBSTRUCTURE
     1 ALC1        1 GROUP        1 X    ALC  0     ROOT ALC X 1
     2 SEC2       11 GROUP        1 X    SEC  0     **** SEC X 2
     3 LYC4        8 GROUP        1 X    LYC  0     **** LYC X 4
     4 GLC5       17 GROUP        1 X    GLC  0     **** GLC X 6
     5 ALP1        3 GROUP        1 Y    ALP  0     ROOT ALP Y 8
     6 SEP2       13 GROUP        1 Y    SEP  0     **** SEP Y 9
     7 LYP4       10 GROUP        1 Y    LYP  0     **** LYP Y 11
     8 GLP5       19 GROUP        1 Y    GLP  0     **** GLP Y 13
     9 ALL1        2 GROUP        1 Z    ALL  0     ROOT ALL Z 15
    10 SEL2       12 GROUP        1 Z    SEL  0     **** SEL Z 16
    11 LYL4        9 GROUP        1 Z    LYL  0     **** LYL Z 18
    12 GLL5       18 GROUP        1 Z    GLL  0     **** GLL Z 20
@<TRIPOS>SET

