#    Name: 2h2j_SFG_3_ligand
#    Modification time : Tue Mar 25 15:27:25 2014

@<TRIPOS>MOLECULE
2h2j_SFG_3_ligand
   48    50     1     0     0
SMALL
NO_CHARGES


@<TRIPOS>ATOM
      1 N         120.7540  131.1650  145.0800 N.4       1 SFG802      0.0000 
      2 CA        119.4750  131.8520  145.2720 C.3       1 SFG802      0.0000 
      3 C         119.6660  133.1730  146.0660 C.2       1 SFG802      0.0000 
      4 O         118.7110  133.5950  146.7430 O.co2     1 SFG802      0.0000 
      5 OXT       120.7640  133.7610  146.0150 O.co2     1 SFG802      0.0000 
      6 CB        118.4620  131.0270  146.0810 C.3       1 SFG802      0.0000 
      7 CG        117.9100  129.6270  145.7540 C.3       1 SFG802      0.0000 
      8 CD        116.4840  129.6030  145.1130 C.3       1 SFG802      0.0000 
      9 NE        116.0550  128.1980  145.1030 N.3       1 SFG802      0.0000 
     10 C5'       116.4070  129.8980  143.5940 C.3       1 SFG802      0.0000 
     11 C4'       117.4210  130.7000  142.7840 C.3       1 SFG802      0.0000 
     12 O4'       118.8060  130.2650  142.8520 O.3       1 SFG802      0.0000 
     13 C3'       117.0290  130.7490  141.3100 C.3       1 SFG802      0.0000 
     14 O3'       116.5310  132.0380  140.9440 O.3       1 SFG802      0.0000 
     15 C2'       118.2570  130.4220  140.5400 C.3       1 SFG802      0.0000 
     16 O2'       118.5710  131.4940  139.6500 O.3       1 SFG802      0.0000 
     17 C1'       119.3700  130.2300  141.5280 C.3       1 SFG802      0.0000 
     18 N9        120.0620  128.9510  141.2440 N.pl3     1 SFG802      0.0000 
     19 C8        119.9980  127.7410  141.8850 C.2       1 SFG802      0.0000 
     20 N7        120.7230  126.7740  141.4170 N.2       1 SFG802      0.0000 
     21 C5        121.3590  127.3880  140.3210 C.ar      1 SFG802      0.0000 
     22 C6        122.3020  126.9350  139.3450 C.ar      1 SFG802      0.0000 
     23 N6        122.7710  125.6870  139.3210 N.pl3     1 SFG802      0.0000 
     24 N1        122.7220  127.8290  138.3950 N.ar      1 SFG802      0.0000 
     25 C2        122.2500  129.0930  138.4050 C.ar      1 SFG802      0.0000 
     26 N3        121.3710  129.6400  139.2600 N.ar      1 SFG802      0.0000 
     27 C4        120.9610  128.7260  140.2120 C.ar      1 SFG802      0.0000 
     28 H         119.0153  132.1144  144.3338 H         1 SFG802      0.0000 
     29 H         117.5374  131.7155  146.2627 H         1 SFG802      0.0000 
     30 H         118.8660  130.9786  147.1748 H         1 SFG802      0.0000 
     31 H         117.8806  129.0263  146.6791 H         1 SFG802      0.0000 
     32 H         118.6049  129.1179  145.0645 H         1 SFG802      0.0000 
     33 H         115.8097  130.1830  145.6321 H         1 SFG802      0.0000 
     34 H         115.3637  130.3614  143.4002 H         1 SFG802      0.0000 
     35 H         116.2710  128.8765  143.0658 H         1 SFG802      0.0000 
     36 H         117.3636  131.7596  143.1339 H         1 SFG802      0.0000 
     37 H         116.3000  129.9728  141.1413 H         1 SFG802      0.0000 
     38 H         118.1042  129.5004  140.0124 H         1 SFG802      0.0000 
     39 H         120.0697  131.0515  141.3958 H         1 SFG802      0.0000 
     40 H         119.3835  127.6400  142.7079 H         1 SFG802      0.0000 
     41 H         122.9970  125.3191  138.4190 H         1 SFG802      0.0000 
     42 H         122.8546  125.2312  140.2072 H         1 SFG802      0.0000 
     43 H         122.6333  129.7537  137.6159 H         1 SFG802      0.0000 
     44 H         121.2061  131.4511  144.2352 H         1 SFG802      0.0000 
     45 H         121.3902  131.3483  145.8295 H         1 SFG802      0.0000 
     46 H         120.6387  130.1729  145.0293 H         1 SFG802      0.0000 
     47 H         115.6790  131.8563  140.4530 H         1 SFG802      0.0000 
     48 H         117.8118  132.1382  139.7429 H         1 SFG802      0.0000 
@<TRIPOS>BOND
     1    2    1 1    
     2   44    1 1    
     3   45    1 1    
     4   46    1 1    
     5    3    2 1    
     6    6    2 1    
     7   28    2 1    
     8    4    3 ar   
     9    5    3 ar   
    10    7    6 1    
    11   29    6 1    
    12   30    6 1    
    13    8    7 1    
    14   31    7 1    
    15   32    7 1    
    16    9    8 1    
    17   10    8 1    
    18   33    8 1    
    19   11   10 1    
    20   34   10 1    
    21   35   10 1    
    22   12   11 1    
    23   13   11 1    
    24   36   11 1    
    25   17   12 1    
    26   14   13 1    
    27   15   13 1    
    28   37   13 1    
    29   47   14 1    
    30   16   15 1    
    31   17   15 1    
    32   38   15 1    
    33   48   16 1    
    34   18   17 1    
    35   39   17 1    
    36   19   18 1    
    37   27   18 1    
    38   20   19 2    
    39   40   19 1    
    40   21   20 1    
    41   22   21 ar   
    42   27   21 ar   
    43   23   22 1    
    44   24   22 ar   
    45   41   23 1    
    46   42   23 1    
    47   25   24 ar   
    48   26   25 ar   
    49   43   25 1    
    50   27   26 ar   
@<TRIPOS>SUBSTRUCTURE
     1 SFG802      1 GROUP   
@<TRIPOS>SET

