#    Name: 3K5I_7_CAVITY_N1_ALL.mol2
#    Modification time : Tue Mar 11 06:21:43 2014

@<TRIPOS>MOLECULE
3K5I_7_CAVITY_N1_ALL.mol2
   90     0     7     0     0
SMALL
NO_CHARGES


@<TRIPOS>ATOM
      1 CZ         12.1074  -39.1249   40.6793 C.ar      5 PHE5        0.0000 
      2 CA         18.8743  -41.6580   38.6689 C.3       6 GLY6        0.0000 
      3 DU         10.1472  -39.9355   40.6987 H         7 CUB7        0.0000 
      4 CZ         11.5005  -40.4422   40.2966 C.ar      5 PHE5        0.0000 
      5 CZ         12.8539  -40.9488   39.8945 C.ar      5 PHE5        0.0000 
      6 CZ         14.2073  -41.4555   39.4925 C.ar      5 PHE5        0.0000 
      7 CZ         15.5607  -41.9621   39.0904 C.ar      5 PHE5        0.0000 
      8 CA         16.9141  -42.4687   38.6883 C.3       6 GLY6        0.0000 
      9 CA         18.2675  -42.9754   38.2862 C.3       6 GLY6        0.0000 
     10 NZ         19.6209  -43.4820   37.8841 N.2       4 LYS4        0.0000 
     11 DU          9.5403  -41.2529   40.3160 H         7 CUB7        0.0000 
     12 DU         10.8937  -41.7595   39.9139 H         7 CUB7        0.0000 
     13 CZ         12.2471  -42.2661   39.5118 C.ar      5 PHE5        0.0000 
     14 CZ         13.6005  -42.7728   39.1098 C.ar      5 PHE5        0.0000 
     15 CA         16.3073  -43.7860   38.3056 C.3       6 GLY6        0.0000 
     16 CA         17.6606  -44.2927   37.9035 C.3       6 GLY6        0.0000 
     17 DU         10.2869  -43.0768   39.5312 H         7 CUB7        0.0000 
     18 CA         11.6403  -43.5834   39.1292 C.3       6 GLY6        0.0000 
     19 NZ         12.1824  -39.4250   35.7140 N.2       4 LYS4        0.0000 
     20 NZ         13.5358  -39.9316   35.3119 N.2       4 LYS4        0.0000 
     21 NZ         14.8891  -40.4382   34.9098 N.2       4 LYS4        0.0000 
     22 CA         16.2425  -40.9449   34.5078 C.3       6 GLY6        0.0000 
     23 CA         17.5959  -41.4515   34.1057 C.3       6 GLY6        0.0000 
     24 CA         11.5755  -40.7423   35.3313 C.3       6 GLY6        0.0000 
     25 CA         12.9289  -41.2489   34.9292 C.3       6 GLY6        0.0000 
     26 DU         14.2823  -41.7555   34.5272 H         7 CUB7        0.0000 
     27 O          15.6357  -42.2622   34.1251 O.2       2 ALA2        0.0000 
     28 OD1        16.9891  -42.7688   33.7230 O.3       3 ASP3        0.0000 
     29 OG         13.6755  -43.0729   34.1445 O.2       1 SER1        0.0000 
     30 OD1        14.4414  -39.4223   32.1228 O.3       3 ASP3        0.0000 
     31 CA         15.7948  -39.9290   31.7207 C.3       6 GLY6        0.0000 
     32 OD1        13.8346  -40.7397   31.7401 O.3       3 ASP3        0.0000 
     33 OD1        15.1880  -41.2463   31.3380 O.3       3 ASP3        0.0000 
     34 OD1        16.5414  -41.7529   30.9360 O.3       3 ASP3        0.0000 
     35 N          13.2278  -42.0570   31.3574 N.2       2 ALA2        0.0000 
     36 OD1        14.5812  -42.5636   30.9554 O.3       3 ASP3        0.0000 
     37 OD1        15.9346  -43.0702   30.5533 O.3       3 ASP3        0.0000 
     38 N           9.9233  -39.4276   39.3052 N.2       2 ALA2        0.0000 
     39 CZ         11.2767  -39.9342   38.9031 C.ar      5 PHE5        0.0000 
     40 CZ         12.6301  -40.4409   38.5010 C.ar      5 PHE5        0.0000 
     41 CZ         13.9835  -40.9475   38.0990 C.ar      5 PHE5        0.0000 
     42 CZ         15.3368  -41.4541   37.6969 C.ar      5 PHE5        0.0000 
     43 CZ         16.6902  -41.9608   37.2948 C.ar      5 PHE5        0.0000 
     44 CZ         18.0436  -42.4674   36.8927 C.ar      5 PHE5        0.0000 
     45 N           9.3165  -40.7449   38.9225 N.2       2 ALA2        0.0000 
     46 DU         10.6699  -41.2515   38.5204 H         7 CUB7        0.0000 
     47 DU         12.0232  -41.7582   38.1183 H         7 CUB7        0.0000 
     48 CA         13.3766  -42.2648   37.7163 C.3       6 GLY6        0.0000 
     49 CA         14.7300  -42.7714   37.3142 C.3       6 GLY6        0.0000 
     50 CA         16.0834  -43.2781   36.9121 C.3       6 GLY6        0.0000 
     51 CA         17.4368  -43.7847   36.5100 C.3       6 GLY6        0.0000 
     52 O           8.7097  -42.0622   38.5398 O.2       2 ALA2        0.0000 
     53 O          10.0630  -42.5689   38.1377 O.2       2 ALA2        0.0000 
     54 O          11.4164  -43.0755   37.7356 O.2       2 ALA2        0.0000 
     55 CA         12.7698  -43.5821   37.3336 C.3       6 GLY6        0.0000 
     56 CZ         12.3312  -39.6328   42.0728 C.ar      5 PHE5        0.0000 
     57 CZ         11.7244  -40.9501   41.6901 C.ar      5 PHE5        0.0000 
     58 CZ         13.0778  -41.4568   41.2881 C.ar      5 PHE5        0.0000 
     59 CZ         17.1379  -42.9767   40.0818 C.ar      5 PHE5        0.0000 
     60 CA         18.4913  -43.4833   39.6797 C.3       6 GLY6        0.0000 
     61 O          11.1176  -42.2674   41.3074 O.2       2 ALA2        0.0000 
     62 CA         13.3119  -39.4237   33.9184 C.3       6 GLY6        0.0000 
     63 NZ         14.6653  -39.9303   33.5163 N.2       4 LYS4        0.0000 
     64 CA         16.0187  -40.4369   33.1143 C.3       6 GLY6        0.0000 
     65 CA         12.7051  -40.7410   33.5357 C.3       6 GLY6        0.0000 
     66 DU         14.0585  -41.2476   33.1336 H         7 CUB7        0.0000 
     67 CA         15.4119  -41.7542   32.7316 C.3       6 GLY6        0.0000 
     68 OD1        16.7652  -42.2609   32.3295 O.3       3 ASP3        0.0000 
     69 N          13.4516  -42.5649   32.7509 N.2       2 ALA2        0.0000 
     70 O          14.8050  -43.0715   32.3489 O.2       2 ALA2        0.0000 
     71 O          16.1584  -43.5782   31.9468 O.2       2 ALA2        0.0000 
     72 NZ         11.6597  -38.1090   37.8923 N.2       4 LYS4        0.0000 
     73 CZ         15.7198  -39.6289   36.6861 C.ar      5 PHE5        0.0000 
     74 N          11.0528  -39.4263   37.5096 N.2       2 ALA2        0.0000 
     75 NZ         12.4062  -39.9329   37.1075 N.2       4 LYS4        0.0000 
     76 CZ         13.7596  -40.4396   36.7054 C.ar      5 PHE5        0.0000 
     77 CZ         15.1130  -40.9462   36.3034 C.ar      5 PHE5        0.0000 
     78 CZ         16.4664  -41.4528   35.9013 C.ar      5 PHE5        0.0000 
     79 CZ         17.8198  -41.9595   35.4992 C.ar      5 PHE5        0.0000 
     80 N          10.4460  -40.7436   37.1269 N.2       2 ALA2        0.0000 
     81 CA         11.7994  -41.2502   36.7248 C.3       6 GLY6        0.0000 
     82 OG         13.1528  -41.7569   36.3227 O.2       1 SER1        0.0000 
     83 CA         14.5062  -42.2635   35.9207 C.3       6 GLY6        0.0000 
     84 CA         15.8596  -42.7701   35.5186 C.3       6 GLY6        0.0000 
     85 OD1        17.2129  -43.2768   35.1165 O.3       3 ASP3        0.0000 
     86 O          11.1926  -42.5675   36.3421 O.2       2 ALA2        0.0000 
     87 OG         13.8993  -43.5808   35.5380 O.2       1 SER1        0.0000 
     88 O          15.2527  -44.0874   35.1359 O.2       2 ALA2        0.0000 
     89 CZ         10.5301  -38.1103   39.6879 C.ar      5 PHE5        0.0000 
     90 CZ         17.2971  -40.6435   37.6775 C.ar      5 PHE5        0.0000 
@<TRIPOS>BOND
@<TRIPOS>SUBSTRUCTURE
     1 SER1       29 GROUP   
     2 ALA2       27 GROUP   
     3 ASP3       28 GROUP   
     4 LYS4       10 GROUP   
     5 PHE5        1 GROUP   
     6 GLY6        2 GROUP   
     7 CUB7        3 GROUP   
@<TRIPOS>SET

