#    Name: 3k5i_ADP_7_INTS_M
#    Modification time : Mon Mar 24 18:48:12 2014

@<TRIPOS>MOLECULE
3k5i_ADP_7_INTS_M
   75     0    15     0     0
SMALL
NO_CHARGES


@<TRIPOS>ATOM
      1 N          12.4290  -45.1140   29.0005 N.am      2 SEC2        0.0000 
      2 N          13.7380  -44.8220   28.7560 N.am     12 SEL2        0.0000 
      3 N          11.1200  -45.4060   29.2450 N.am      7 SEP2        0.0000 
      4 NZ         16.9835  -44.4960   28.7245 N.4       3 LYC4        0.0000 
      5 NZ         15.8150  -43.6570   27.7600 N.4      13 LYL4        0.0000 
      6 NZ         18.1520  -45.3350   29.6890 N.4       8 LYP4        0.0000 
      7 N          16.9835  -44.4960   28.7245 N.am      2 SEC2        0.0000 
      8 N          15.8150  -43.6570   27.7600 N.am     12 SEL2        0.0000 
      9 N          18.1520  -45.3350   29.6890 N.am      7 SEP2        0.0000 
     10 N          17.0875  -42.8330   27.6610 N.am      2 SEC2        0.0000 
     11 N          18.3600  -42.0090   27.5620 N.am      7 SEP2        0.0000 
     12 Zn         14.6600  -41.2455   28.8395 Zn        4 ZIC7        0.0000 
     13 Zn         14.1010  -42.2760   28.6630 Zn       14 ZIL7        0.0000 
     14 Zn         15.2190  -40.2150   29.0160 Zn        9 ZIP7        0.0000 
     15 Zn         15.6740  -40.8445   29.8550 Zn        4 ZIC7        0.0000 
     16 Zn         16.1290  -41.4740   30.6940 Zn       14 ZIL7        0.0000 
     17 NZ         17.9165  -44.2510   30.5955 N.4       3 LYC4        0.0000 
     18 NZ         17.6810  -43.1670   31.5020 N.4      13 LYL4        0.0000 
     19 NZ         18.3285  -43.7250   32.4490 N.4       3 LYC4        0.0000 
     20 NZ         18.9760  -44.2830   33.3960 N.4       8 LYP4        0.0000 
     21 N          18.3285  -43.7250   32.4490 N.am      2 SEC2        0.0000 
     22 N          17.6810  -43.1670   31.5020 N.am     12 SEL2        0.0000 
     23 N          18.9760  -44.2830   33.3960 N.am      7 SEP2        0.0000 
     24 N          16.7625  -44.5980   29.9920 N.am      2 SEC2        0.0000 
     25 N          15.3730  -43.8610   30.2950 N.am     12 SEL2        0.0000 
     26 N          14.8795  -44.2735   32.8970 N.am      2 SEC2        0.0000 
     27 N          15.2850  -42.9210   32.4770 N.am     12 SEL2        0.0000 
     28 N          14.4740  -45.6260   33.3170 N.am      7 SEP2        0.0000 
     29 CA         12.5865  -43.4210   32.9960 C.3       5 GLC5        0.0000 
     30 CA         14.1310  -42.0600   32.2790 C.3      15 GLL5        0.0000 
     31 CA         11.0420  -44.7820   33.7130 C.3      10 GLP5        0.0000 
     32 CA         12.0165  -42.4615   33.7840 C.3       5 GLC5        0.0000 
     33 CA         13.7400  -41.4650   33.6120 C.3      15 GLL5        0.0000 
     34 CA         10.2930  -43.4580   33.9560 C.3      10 GLP5        0.0000 
     35 N          12.9390  -43.7855   34.6875 N.am      2 SEC2        0.0000 
     36 N          13.8510  -42.4540   34.6820 N.am     12 SEL2        0.0000 
     37 N          12.0270  -45.1170   34.6930 N.am      7 SEP2        0.0000 
     38 CA         16.4180  -39.8285   33.4110 C.3       5 GLC5        0.0000 
     39 CA         14.5260  -40.2210   34.0270 C.3      15 GLL5        0.0000 
     40 CA         18.3100  -39.4360   32.7950 C.3      10 GLP5        0.0000 
     41 O          13.3935  -37.9740   34.6320 O.2       1 ALC1        0.0000 
     42 O          13.9440  -39.0500   33.4010 O.2      11 ALL1        0.0000 
     43 O          12.8430  -36.8980   35.8630 O.2       6 ALP1        0.0000 
     44 O          14.4465  -37.9705   34.2080 O.2       1 ALC1        0.0000 
     45 O          14.9490  -36.8910   35.0150 O.2       6 ALP1        0.0000 
     46 CA         14.9435  -39.2795   37.3580 C.3       5 GLC5        0.0000 
     47 CA         14.3840  -40.2690   35.5620 C.3      15 GLL5        0.0000 
     48 CA         15.5030  -38.2900   39.1540 C.3      10 GLP5        0.0000 
     49 CA         16.1320  -39.1865   35.9825 C.3       5 GLC5        0.0000 
     50 CA         17.8800  -38.1040   36.4030 C.3      10 GLP5        0.0000 
     51 O          13.0170  -38.2240   35.9190 O.2       1 ALC1        0.0000 
     52 O          13.1910  -39.5500   35.9750 O.2      11 ALL1        0.0000 
     53 O          14.0700  -38.2205   35.4950 O.2       1 ALC1        0.0000 
     54 CA         14.3930  -43.6630   36.8205 C.3       5 GLC5        0.0000 
     55 CA         14.2220  -41.7730   35.8300 C.3      15 GLL5        0.0000 
     56 CA         14.5640  -45.5530   37.8110 C.3      10 GLP5        0.0000 
     57 N          18.2540  -43.7255   34.5970 N.am      2 SEC2        0.0000 
     58 N          17.5320  -43.1680   35.7980 N.am     12 SEL2        0.0000 
     59 CA         17.9915  -44.8780   38.0485 C.3       5 GLC5        0.0000 
     60 CA         18.3250  -42.8700   38.2510 C.3      15 GLL5        0.0000 
     61 CA         17.6580  -46.8860   37.8460 C.3      10 GLP5        0.0000 
     62 CA         19.0960  -41.1150   39.3420 C.3       5 GLC5        0.0000 
     63 CA         19.8670  -39.3600   40.4330 C.3      10 GLP5        0.0000 
     64 O          20.4080  -43.6570   37.0340 O.2       1 ALC1        0.0000 
     65 O          19.5020  -43.3160   38.2990 O.2      11 ALL1        0.0000 
     66 O          21.3140  -43.9980   35.7690 O.2       6 ALP1        0.0000 
     67 N          18.6865  -41.8040   40.6980 N.am      2 SEC2        0.0000 
     68 N          17.8430  -42.3700   39.4300 N.am     12 SEL2        0.0000 
     69 N          19.5300  -41.2380   41.9660 N.am      7 SEP2        0.0000 
     70 CA         18.2305  -40.5860   40.0060 C.3       5 GLC5        0.0000 
     71 CA         16.5940  -41.8120   39.5790 C.3      15 GLL5        0.0000 
     72 CA         12.5075  -39.7490   33.5138 C.3       5 GLC5        0.0000 
     73 CA         10.8820  -38.6550   33.2080 C.3      10 GLP5        0.0000 
     74 CA         15.6925  -44.0367   37.5343 C.3       5 GLC5        0.0000 
     75 CA         16.1980  -42.2520   37.3800 C.3      15 GLL5        0.0000 
@<TRIPOS>BOND
@<TRIPOS>SUBSTRUCTURE
     1 ALC1       41 GROUP        1 X    ALC  0     ROOT ALC X 1
     2 SEC2        1 GROUP        1 X    SEC  0     **** SEC X 2
     3 LYC4        4 GROUP        1 X    LYC  0     **** LYC X 4
     4 ZIC7       12 GROUP        1 X    ZIC  0     **** ZIC X 5
     5 GLC5       29 GROUP        1 X    GLC  0     **** GLC X 6
     6 ALP1       43 GROUP        1 Y    ALP  0     ROOT ALP Y 8
     7 SEP2        3 GROUP        1 Y    SEP  0     **** SEP Y 9
     8 LYP4        6 GROUP        1 Y    LYP  0     **** LYP Y 11
     9 ZIP7       14 GROUP        1 Y    ZIP  0     **** ZIP Y 12
    10 GLP5       31 GROUP        1 Y    GLP  0     **** GLP Y 13
    11 ALL1       42 GROUP        1 Z    ALL  0     ROOT ALL Z 15
    12 SEL2        2 GROUP        1 Z    SEL  0     **** SEL Z 16
    13 LYL4        5 GROUP        1 Z    LYL  0     **** LYL Z 18
    14 ZIL7       13 GROUP        1 Z    ZIL  0     **** ZIL Z 19
    15 GLL5       30 GROUP        1 Z    GLL  0     **** GLL Z 20
@<TRIPOS>SET

