#    Name: 3k5i_ADP_7_ligand
#    Modification time : Mon Mar 24 18:48:12 2014

@<TRIPOS>MOLECULE
3k5i_ADP_7_ligand
   38    40     1     0     0
SMALL
NO_CHARGES


@<TRIPOS>ATOM
      1 PB         14.7170  -43.7240   28.8180 P.3       1 ADP400      0.0000 
      2 O1B        13.7380  -44.8220   28.7560 O.co2     1 ADP400      0.0000 
      3 O2B        15.8150  -43.6570   27.7600 O.co2     1 ADP400      0.0000 
      4 O3B        14.1010  -42.2760   28.6630 O.co2     1 ADP400      0.0000 
      5 PA         16.2360  -42.8520   31.2260 P.3       1 ADP400      0.0000 
      6 O1A        16.1290  -41.4740   30.6940 O.co2     1 ADP400      0.0000 
      7 O2A        17.6810  -43.1670   31.5020 O.co2     1 ADP400      0.0000 
      8 O3A        15.3730  -43.8610   30.2950 O.3       1 ADP400      0.0000 
      9 O5'        15.2850  -42.9210   32.4770 O.3       1 ADP400      0.0000 
     10 C5'        14.1310  -42.0600   32.2790 C.3       1 ADP400      0.0000 
     11 C4'        13.7400  -41.4650   33.6120 C.3       1 ADP400      0.0000 
     12 O4'        13.8510  -42.4540   34.6820 O.3       1 ADP400      0.0000 
     13 C3'        14.5260  -40.2210   34.0270 C.3       1 ADP400      0.0000 
     14 O3'        13.9440  -39.0500   33.4010 O.3       1 ADP400      0.0000 
     15 C2'        14.3840  -40.2690   35.5620 C.3       1 ADP400      0.0000 
     16 O2'        13.1910  -39.5500   35.9750 O.3       1 ADP400      0.0000 
     17 C1'        14.2220  -41.7730   35.8300 C.3       1 ADP400      0.0000 
     18 N9         15.5440  -42.2940   36.1520 N.pl3     1 ADP400      0.0000 
     19 C8         16.3480  -42.8610   35.2230 C.2       1 ADP400      0.0000 
     20 N7         17.5320  -43.1680   35.7980 N.2       1 ADP400      0.0000 
     21 C5         17.4440  -42.7890   37.1350 C.ar      1 ADP400      0.0000 
     22 C6         18.3250  -42.8700   38.2510 C.ar      1 ADP400      0.0000 
     23 N6         19.5020  -43.3160   38.2990 N.pl3     1 ADP400      0.0000 
     24 N1         17.8430  -42.3700   39.4300 N.ar      1 ADP400      0.0000 
     25 C2         16.5940  -41.8120   39.5790 C.ar      1 ADP400      0.0000 
     26 N3         15.7700  -41.7510   38.5710 N.ar      1 ADP400      0.0000 
     27 C4         16.1980  -42.2520   37.3800 C.ar      1 ADP400      0.0000 
     28 H          13.2850  -42.6240   31.8868 H         1 ADP400      0.0000 
     29 H          14.3621  -41.2488   31.5889 H         1 ADP400      0.0000 
     30 H          12.6729  -41.1598   33.5492 H         1 ADP400      0.0000 
     31 H          15.5397  -40.3865   33.7785 H         1 ADP400      0.0000 
     32 H          15.2656  -39.9344   35.9957 H         1 ADP400      0.0000 
     33 H          13.5683  -41.9141   36.6412 H         1 ADP400      0.0000 
     34 H          16.1128  -43.0203   34.2981 H         1 ADP400      0.0000 
     35 H          16.3332  -41.4412   40.5259 H         1 ADP400      0.0000 
     36 H          14.2643  -38.2775   33.9492 H         1 ADP400      0.0000 
     37 H          13.3897  -38.5885   35.7851 H         1 ADP400      0.0000 
     38 H          19.7781  -43.4208   37.3436 H         1 ADP400      0.0000 
@<TRIPOS>BOND
     1    2    1 ar   
     2    3    1 ar   
     3    4    1 ar   
     4    8    1 1    
     5    6    5 ar   
     6    7    5 ar   
     7    8    5 1    
     8    9    5 1    
     9   10    9 1    
    10   11   10 1    
    11   28   10 1    
    12   29   10 1    
    13   12   11 1    
    14   13   11 1    
    15   30   11 1    
    16   17   12 1    
    17   14   13 1    
    18   15   13 1    
    19   31   13 1    
    20   36   14 1    
    21   16   15 1    
    22   17   15 1    
    23   32   15 1    
    24   37   16 1    
    25   18   17 1    
    26   33   17 1    
    27   19   18 1    
    28   27   18 1    
    29   20   19 2    
    30   34   19 1    
    31   21   20 1    
    32   22   21 ar   
    33   27   21 ar   
    34   23   22 1    
    35   24   22 ar   
    36   38   23 1    
    37   25   24 ar   
    38   26   25 ar   
    39   35   25 1    
    40   27   26 ar   
@<TRIPOS>SUBSTRUCTURE
     1 ADP400      1 GROUP   
@<TRIPOS>SET

