#    Name: 3r02_UNM_1_INTS_M
#    Modification time : Tue Mar 25 10:24:19 2014

@<TRIPOS>MOLECULE
3r02_UNM_1_INTS_M
   77     0    15     0     0
SMALL
NO_CHARGES


@<TRIPOS>ATOM
      1 CA         19.1725  -39.6365    3.6285 C.3       5 GLC5        0.0000 
      2 CA         20.0680  -38.4750    2.0560 C.3      15 GLL5        0.0000 
      3 CA         18.2770  -40.7980    5.2010 C.3      10 GLP5        0.0000 
      4 CA         21.7000  -37.3215    1.2835 C.3       5 GLC5        0.0000 
      5 CA         20.4420  -37.9490   -0.3510 C.3      15 GLL5        0.0000 
      6 CA         22.9580  -36.6940    2.9180 C.3      10 GLP5        0.0000 
      7 CA         19.4805  -39.7820    0.2770 C.3       5 GLC5        0.0000 
      8 CA         18.5190  -41.6150    0.9050 C.3      10 GLP5        0.0000 
      9 CA         17.9095  -38.3375    4.5535 C.3       5 GLC5        0.0000 
     10 CA         18.1690  -37.0070    3.0720 C.3      15 GLL5        0.0000 
     11 CA         17.6500  -39.6680    6.0350 C.3      10 GLP5        0.0000 
     12 CA         16.1140  -37.3415    2.2795 C.3       5 GLC5        0.0000 
     13 CA         17.4610  -36.0250    2.3810 C.3      15 GLL5        0.0000 
     14 CA         14.7670  -38.6580    2.1780 C.3      10 GLP5        0.0000 
     15 NZ         15.5555  -33.0890    2.4535 N.4       4 LYC4        0.0000 
     16 NZ         15.8860  -34.3610    2.0210 N.4      14 LYL4        0.0000 
     17 NZ         15.2250  -31.8170    2.8860 N.4       9 LYP4        0.0000 
     18 N          15.5555  -33.0890    2.4535 N.am      2 SEC2        0.0000 
     19 N          15.8860  -34.3610    2.0210 N.am     12 SEL2        0.0000 
     20 N          15.2250  -31.8170    2.8860 N.am      7 SEP2        0.0000 
     21 NZ         15.5535  -33.6270    3.4650 N.4       4 LYC4        0.0000 
     22 NZ         15.8820  -35.4370    4.0440 N.4      14 LYL4        0.0000 
     23 N          14.5815  -35.8375    3.5225 N.am      2 SEC2        0.0000 
     24 N          15.8820  -35.4370    4.0440 N.am     12 SEL2        0.0000 
     25 N          13.2810  -36.2380    3.0010 N.am      7 SEP2        0.0000 
     26 CA         23.1565  -38.7350   -0.5220 C.3       5 GLC5        0.0000 
     27 CA         22.1270  -39.9960    0.6740 C.3      15 GLL5        0.0000 
     28 CA         24.1860  -37.4740   -1.7180 C.3      10 GLP5        0.0000 
     29 CA         22.5425  -38.3450    1.7960 C.3       5 GLC5        0.0000 
     30 CA         23.6330  -40.6700    1.2765 C.3       5 GLC5        0.0000 
     31 CA         25.1390  -41.3440    1.8790 C.3      10 GLP5        0.0000 
     32 CA         21.8645  -41.8120    1.8205 C.3       5 GLC5        0.0000 
     33 CA         21.6020  -43.6280    2.9670 C.3      10 GLP5        0.0000 
     34 CA         22.4730  -41.6335   -0.6505 C.3       5 GLC5        0.0000 
     35 CA         22.8190  -43.2710   -1.9750 C.3      10 GLP5        0.0000 
     36 CA         20.3230  -40.8055    0.7895 C.3       5 GLC5        0.0000 
     37 CA         20.7255  -35.3980   -1.3440 C.3       5 GLC5        0.0000 
     38 CA         19.7050  -36.5090   -2.8550 C.3      15 GLL5        0.0000 
     39 CA         21.7460  -34.2870    0.1670 C.3      10 GLP5        0.0000 
     40 CA         16.9425  -39.6875   -4.3300 C.3       5 GLC5        0.0000 
     41 CA         17.6750  -37.9430   -3.6260 C.3      15 GLL5        0.0000 
     42 CA         16.2100  -41.4320   -5.0340 C.3      10 GLP5        0.0000 
     43 CA         16.6735  -38.0775   -1.9515 C.3       5 GLC5        0.0000 
     44 CA         15.6720  -38.2120   -0.2770 C.3      10 GLP5        0.0000 
     45 CA         20.0865  -34.1890   -4.9480 C.3       5 GLC5        0.0000 
     46 CA         19.1850  -35.4500   -3.8400 C.3      15 GLL5        0.0000 
     47 CA         20.9880  -32.9280   -6.0560 C.3      10 GLP5        0.0000 
     48 CA         20.1840  -34.2645   -2.2470 C.3       5 GLC5        0.0000 
     49 CA         21.1830  -33.0790   -0.6540 C.3      10 GLP5        0.0000 
     50 OD1        15.9010  -38.1470   -5.6355 O.co2     3 ASC3        0.0000 
     51 OD1        15.6810  -36.9290   -4.9170 O.co2    13 ASL3        0.0000 
     52 OD1        16.1210  -39.3650   -6.3540 O.co2     8 ASP3        0.0000 
     53 O          15.9010  -38.1470   -5.6355 O.2       1 ALC1        0.0000 
     54 O          15.6810  -36.9290   -4.9170 O.2      11 ALL1        0.0000 
     55 O          16.1210  -39.3650   -6.3540 O.2       6 ALP1        0.0000 
     56 CA         22.3830  -37.8747   -0.7370 C.3       5 GLC5        0.0000 
     57 CA         21.1630  -36.2812    0.2055 C.3       5 GLC5        0.0000 
     58 CA         21.3330  -37.3651    2.3314 C.3       5 GLC5        0.0000 
     59 CA         20.7180  -38.6020    0.8390 C.3      15 GLL5        0.0000 
     60 CA         19.1135  -39.8256    1.3249 C.3       5 GLC5        0.0000 
     61 CA         17.1590  -38.5512    2.5685 C.3       5 GLC5        0.0000 
     62 CA         19.0230  -37.5340    2.0420 C.3      15 GLL5        0.0000 
     63 CA         15.7220  -39.8320    2.5800 C.3      10 GLP5        0.0000 
     64 CA         20.4110  -35.5752    0.2273 C.3       5 GLC5        0.0000 
     65 CA         18.7520  -36.7700    0.9030 C.3      15 GLL5        0.0000 
     66 CA         17.3740  -37.5378    0.0053 C.3       5 GLC5        0.0000 
     67 CA         19.4000  -36.9570   -0.3280 C.3      15 GLL5        0.0000 
     68 CA         18.5720  -35.4465    4.2888 C.3       5 GLC5        0.0000 
     69 CA         19.3290  -34.3770    5.8510 C.3      10 GLP5        0.0000 
     70 CA         21.4765  -35.9997   -3.5438 C.3       5 GLC5        0.0000 
     71 CA         23.5080  -36.0200   -3.7400 C.3      10 GLP5        0.0000 
     72 CA         18.0505  -39.6657   -2.5377 C.3       5 GLC5        0.0000 
     73 CA         19.2250  -37.9060   -3.4430 C.3      15 GLL5        0.0000 
     74 CA         17.6510  -41.4070   -1.5410 C.3      10 GLP5        0.0000 
     75 CA         17.8047  -33.7095   -3.9308 C.3       5 GLC5        0.0000 
     76 CA         17.6660  -35.4520   -4.1710 C.3      15 GLL5        0.0000 
     77 CA         17.1840  -31.9680   -3.8560 C.3      10 GLP5        0.0000 
@<TRIPOS>BOND
@<TRIPOS>SUBSTRUCTURE
     1 ALC1       53 GROUP        1 X    ALC  0     ROOT ALC X 1
     2 SEC2       18 GROUP        1 X    SEC  0     **** SEC X 2
     3 ASC3       50 GROUP        1 X    ASC  0     **** ASC X 3
     4 LYC4       15 GROUP        1 X    LYC  0     **** LYC X 4
     5 GLC5        1 GROUP        1 X    GLC  0     **** GLC X 6
     6 ALP1       55 GROUP        1 Y    ALP  0     ROOT ALP Y 8
     7 SEP2       20 GROUP        1 Y    SEP  0     **** SEP Y 9
     8 ASP3       52 GROUP        1 Y    ASP  0     **** ASP Y 10
     9 LYP4       17 GROUP        1 Y    LYP  0     **** LYP Y 11
    10 GLP5        3 GROUP        1 Y    GLP  0     **** GLP Y 13
    11 ALL1       54 GROUP        1 Z    ALL  0     ROOT ALL Z 15
    12 SEL2       19 GROUP        1 Z    SEL  0     **** SEL Z 16
    13 ASL3       51 GROUP        1 Z    ASL  0     **** ASL Z 17
    14 LYL4       16 GROUP        1 Z    LYL  0     **** LYL Z 18
    15 GLL5        2 GROUP        1 Z    GLL  0     **** GLL Z 20
@<TRIPOS>SET

