#    Name: 3r02_UNM_1_ligand
#    Modification time : Tue Mar 25 10:24:19 2014

@<TRIPOS>MOLECULE
3r02_UNM_1_ligand
   38    40     1     0     0
SMALL
NO_CHARGES


@<TRIPOS>ATOM
      1 C01        20.7180  -38.6020    0.8390 C.ar      1 UNM555      0.0000 
      2 C02        19.0230  -37.5340    2.0420 C.ar      1 UNM555      0.0000 
      3 C03        20.0680  -38.4750    2.0560 C.ar      1 UNM555      0.0000 
      4 C04        18.7520  -36.7700    0.9030 C.ar      1 UNM555      0.0000 
      5 C05        20.4420  -37.9490   -0.3510 C.ar      1 UNM555      0.0000 
      6 C06        19.4000  -36.9570   -0.3280 C.ar      1 UNM555      0.0000 
      7 O07        17.7960  -35.8540    1.0860 O.3       1 UNM555      0.0000 
      8 C08        18.1690  -37.0070    3.0720 C.2       1 UNM555      0.0000 
      9 C09        17.4610  -36.0250    2.3810 C.2       1 UNM555      0.0000 
     10 C10        16.3790  -35.2020    2.8340 C.2       1 UNM555      0.0000 
     11 O11        15.8860  -34.3610    2.0210 O.co2     1 UNM555      0.0000 
     12 O12        15.8820  -35.4370    4.0440 O.co2     1 UNM555      0.0000 
     13 BR13       22.1270  -39.9960    0.6740 Br        1 UNM555      0.0000 
     14 C14        19.7050  -36.5090   -2.8550 C.3       1 UNM555      0.0000 
     15 C15        19.2250  -37.9060   -3.4430 C.3       1 UNM555      0.0000 
     16 C16        17.6750  -37.9430   -3.6260 C.3       1 UNM555      0.0000 
     17 C17        17.1310  -36.8660   -4.6520 C.3       1 UNM555      0.0000 
     18 C18        17.6660  -35.4520   -4.1710 C.3       1 UNM555      0.0000 
     19 C19        19.1850  -35.4500   -3.8400 C.3       1 UNM555      0.0000 
     20 N20        15.6810  -36.9290   -4.9170 N.4       1 UNM555      0.0000 
     21 N21        19.1320  -36.2350   -1.4740 N.pl3     1 UNM555      0.0000 
     22 H          20.3065  -38.9888    2.8590 H         1 UNM555      0.0000 
     23 H          20.9313  -38.1404   -1.2030 H         1 UNM555      0.0000 
     24 H          18.1248  -37.2637    3.9301 H         1 UNM555      0.0000 
     25 H          20.7569  -36.4932   -2.8534 H         1 UNM555      0.0000 
     26 H          19.5239  -38.6838   -2.7549 H         1 UNM555      0.0000 
     27 H          19.7032  -38.0525   -4.4009 H         1 UNM555      0.0000 
     28 H          17.1975  -37.7657   -2.6608 H         1 UNM555      0.0000 
     29 H          17.3813  -38.9318   -3.9824 H         1 UNM555      0.0000 
     30 H          17.6992  -37.0704   -5.5988 H         1 UNM555      0.0000 
     31 H          17.1032  -35.1618   -3.2835 H         1 UNM555      0.0000 
     32 H          17.4685  -34.7288   -4.9626 H         1 UNM555      0.0000 
     33 H          19.7465  -35.5487   -4.7994 H         1 UNM555      0.0000 
     34 H          19.4510  -34.4388   -3.4501 H         1 UNM555      0.0000 
     35 H          18.4776  -35.4094   -1.4438 H         1 UNM555      0.0000 
     36 H          15.3921  -36.2292   -5.5703 H         1 UNM555      0.0000 
     37 H          15.4110  -37.8138   -5.2968 H         1 UNM555      0.0000 
     38 H          15.1449  -36.7916   -4.0841 H         1 UNM555      0.0000 
@<TRIPOS>BOND
     1    3    1 ar   
     2    5    1 ar   
     3   13    1 1    
     4    3    2 ar   
     5    4    2 ar   
     6    8    2 1    
     7   22    3 1    
     8    6    4 ar   
     9    7    4 1    
    10    6    5 ar   
    11   23    5 1    
    12   21    6 1    
    13    9    7 1    
    14    9    8 2    
    15   24    8 1    
    16   10    9 1    
    17   11   10 ar   
    18   12   10 ar   
    19   15   14 1    
    20   19   14 1    
    21   21   14 1    
    22   25   14 1    
    23   16   15 1    
    24   26   15 1    
    25   27   15 1    
    26   17   16 1    
    27   28   16 1    
    28   29   16 1    
    29   18   17 1    
    30   20   17 1    
    31   30   17 1    
    32   19   18 1    
    33   31   18 1    
    34   32   18 1    
    35   33   19 1    
    36   34   19 1    
    37   36   20 1    
    38   37   20 1    
    39   38   20 1    
    40   35   21 1    
@<TRIPOS>SUBSTRUCTURE
     1 UNM555      1 GROUP   
@<TRIPOS>SET

