#    Name: 3oct_1N1_1_INTS_M
#    Modification time : Tue Mar 25 03:39:40 2014

@<TRIPOS>MOLECULE
3oct_1N1_1_INTS_M
   83     0     9     0     0
SMALL
NO_CHARGES


@<TRIPOS>ATOM
      1 CA         11.3270    6.0320   19.6725 C.3       3 GLC5        0.0000 
      2 CA         12.3660    4.7790   21.0800 C.3       9 GLL5        0.0000 
      3 CA         10.2880    7.2850   18.2650 C.3       6 GLP5        0.0000 
      4 CA         13.0350    6.3525   22.3620 C.3       3 GLC5        0.0000 
      5 CA         13.7040    7.9260   23.6440 C.3       6 GLP5        0.0000 
      6 CA         10.7825    5.6980   21.6720 C.3       3 GLC5        0.0000 
      7 CA          9.1990    6.6170   22.2640 C.3       6 GLP5        0.0000 
      8 CA         15.9715    2.6530   18.6400 C.3       3 GLC5        0.0000 
      9 CA         15.7200    4.0740   17.0300 C.3       9 GLL5        0.0000 
     10 CA         16.2230    1.2320   20.2500 C.3       6 GLP5        0.0000 
     11 CA         15.6930    4.4995   18.9675 C.3       3 GLC5        0.0000 
     12 CA         15.6660    4.9250   20.9050 C.3       6 GLP5        0.0000 
     13 CA         17.7125    4.1545   17.9270 C.3       3 GLC5        0.0000 
     14 CA         19.7050    4.2350   18.8240 C.3       6 GLP5        0.0000 
     15 CA         13.9230    1.7480   24.6195 C.3       3 GLC5        0.0000 
     16 CA         11.9930    1.9470   24.8060 C.3       9 GLL5        0.0000 
     17 CA         15.8530    1.5490   24.4330 C.3       6 GLP5        0.0000 
     18 CA         10.2375    1.8345   23.5960 C.3       3 GLC5        0.0000 
     19 CA          8.4820    1.7220   22.3860 C.3       6 GLP5        0.0000 
     20 CA         10.2725    0.5150   25.5510 C.3       3 GLC5        0.0000 
     21 CA         12.0040   -0.3960   24.5970 C.3       9 GLL5        0.0000 
     22 CA          8.5410    1.4260   26.5050 C.3       6 GLP5        0.0000 
     23 CA         10.8275   -1.8240   22.0605 C.3       3 GLC5        0.0000 
     24 CA         12.0830   -1.5890   23.6830 C.3       9 GLL5        0.0000 
     25 CA          9.5720   -2.0590   20.4380 C.3       6 GLP5        0.0000 
     26 CA         13.7820   -1.3425   22.2660 C.3       3 GLC5        0.0000 
     27 CA         15.4810   -1.0960   20.8490 C.3       6 GLP5        0.0000 
     28 CA         10.0165    1.5020   27.7140 C.3       3 GLC5        0.0000 
     29 CA         11.4920    1.5780   28.9230 C.3       9 GLL5        0.0000 
     30 CA          8.7090    2.9695   30.7045 C.3       3 GLC5        0.0000 
     31 CA          9.7010    1.8770   32.2530 C.3       9 GLL5        0.0000 
     32 CA          7.7170    4.0620   29.1560 C.3       6 GLP5        0.0000 
     33 O          11.2840    3.9880   25.1040 O.2       1 ALC1        0.0000 
     34 O          12.0390    3.1850   24.2340 O.2       7 ALL1        0.0000 
     35 O          10.5290    4.7910   25.9740 O.2       4 ALP1        0.0000 
     36 N          11.8680    5.7865   23.2460 N.am      2 SEC2        0.0000 
     37 N          12.1810    4.6930   22.4250 N.am      8 SEL2        0.0000 
     38 N          11.5550    6.8800   24.0670 N.am      5 SEP2        0.0000 
     39 CA         14.1635    1.8795   23.0340 C.3       3 GLC5        0.0000 
     40 CA         12.4740    2.2100   21.6350 C.3       9 GLL5        0.0000 
     41 CA         14.0700    3.5675   21.2700 C.3       3 GLC5        0.0000 
     42 CA         10.7195    2.5985   20.9310 C.3       3 GLC5        0.0000 
     43 CA          8.9650    2.9870   20.2270 C.3       6 GLP5        0.0000 
     44 O          13.5115    5.4990   18.2750 O.2       1 ALC1        0.0000 
     45 O          13.0420    4.1270   18.1500 O.2       7 ALL1        0.0000 
     46 O          13.9810    6.8710   18.4000 O.2       4 ALP1        0.0000 
     47 CA          9.7130    5.3630   17.1285 C.3       3 GLC5        0.0000 
     48 CA         10.4800    3.6230   16.7500 C.3       9 GLL5        0.0000 
     49 CA          8.9460    7.1030   17.5070 C.3       6 GLP5        0.0000 
     50 CA          9.7225    3.3050   18.4885 C.3       3 GLC5        0.0000 
     51 CA          9.0755    3.0175   15.7285 C.3       3 GLC5        0.0000 
     52 CA          7.6710    2.4120   14.7070 C.3       6 GLP5        0.0000 
     53 N           7.5175    3.4790   32.0985 N.am      2 SEC2        0.0000 
     54 N           8.2660    2.0640   32.4130 N.am      8 SEL2        0.0000 
     55 N           6.7690    4.8940   31.7840 N.am      5 SEP2        0.0000 
     56 CA         14.0637    4.5418   20.8368 C.3       3 GLC5        0.0000 
     57 CA         10.7132    3.5728   20.4977 C.3       3 GLC5        0.0000 
     58 CA         14.3693    2.0530   20.6480 C.3       3 GLC5        0.0000 
     59 CA         12.5570    3.5380   20.4570 C.3       9 GLL5        0.0000 
     60 CA         14.9123    1.8435   14.4582 C.3       3 GLC5        0.0000 
     61 CA         14.6170    3.5190   14.8460 C.3       9 GLL5        0.0000 
     62 CA         15.7690    0.2910   14.4630 C.3       6 GLP5        0.0000 
     63 CA         15.3453    4.6155   13.5452 C.3       3 GLC5        0.0000 
     64 CA         13.4940    3.2730   14.0610 C.3       9 GLL5        0.0000 
     65 CA         16.6350    5.8350   12.6370 C.3       6 GLP5        0.0000 
     66 CA         12.0113    2.5525   12.8745 C.3       3 GLC5        0.0000 
     67 CA         11.1600    1.8170   11.3970 C.3       6 GLP5        0.0000 
     68 CA         16.3510    2.7642   16.0540 C.3       3 GLC5        0.0000 
     69 CA         14.4900    3.7930   16.2040 C.3       9 GLL5        0.0000 
     70 CA         17.5970    1.5950   15.4910 C.3       6 GLP5        0.0000 
     71 CA         14.4844    5.6055   16.1328 C.3       3 GLC5        0.0000 
     72 CA         13.8320    7.3460   15.9880 C.3       6 GLP5        0.0000 
     73 CA         13.9277    0.8335   26.5960 C.3       3 GLC5        0.0000 
     74 CA         11.8940    1.8040   26.1980 C.3       9 GLL5        0.0000 
     75 CA         15.9810    0.5090   26.7120 C.3       6 GLP5        0.0000 
     76 CA         10.2201    1.3099   26.3185 C.3       3 GLC5        0.0000 
     77 CA         11.8550    0.5120   26.7620 C.3       9 GLL5        0.0000 
     78 CA         14.0058   -0.9468   24.3775 C.3       3 GLC5        0.0000 
     79 CA         15.9680   -0.9010   24.6150 C.3       6 GLP5        0.0000 
     80 CA         13.2488    5.5260   16.1908 C.3       3 GLC5        0.0000 
     81 CA         13.2240    3.8270   16.7860 C.3       9 GLL5        0.0000 
     82 CA         12.8761    4.8807   13.4396 C.3       3 GLC5        0.0000 
     83 CA         12.6090    6.4120   12.3310 C.3       6 GLP5        0.0000 
@<TRIPOS>BOND
@<TRIPOS>SUBSTRUCTURE
     1 ALC1       33 GROUP        1 X    ALC  0     ROOT ALC X 1
     2 SEC2       36 GROUP        1 X    SEC  0     **** SEC X 2
     3 GLC5        1 GROUP        1 X    GLC  0     **** GLC X 6
     4 ALP1       35 GROUP        1 Y    ALP  0     ROOT ALP Y 8
     5 SEP2       38 GROUP        1 Y    SEP  0     **** SEP Y 9
     6 GLP5        3 GROUP        1 Y    GLP  0     **** GLP Y 13
     7 ALL1       34 GROUP        1 Z    ALL  0     ROOT ALL Z 15
     8 SEL2       37 GROUP        1 Z    SEL  0     **** SEL Z 16
     9 GLL5        2 GROUP        1 Z    GLL  0     **** GLL Z 20
@<TRIPOS>SET

