#    Name: 3oct_1N1_1_ligand
#    Modification time : Tue Mar 25 03:39:40 2014

@<TRIPOS>MOLECULE
3oct_1N1_1_ligand
   60    63     1     0     0
SMALL
NO_CHARGES


@<TRIPOS>ATOM
      1 C1         12.3660    4.7790   21.0800 C.2       1 1N1663      0.0000 
      2 C2         12.5570    3.5380   20.4570 C.2       1 1N1663      0.0000 
      3 C3         12.7680    3.1630   19.0340 C.2       1 1N1663      0.0000 
      4 N6         10.9650    0.2510   30.7990 N.4       1 1N1663      0.0000 
      5 C7         13.4940    3.2730   14.0610 C.ar      1 1N1663      0.0000 
      6 C8         14.6170    3.5190   14.8460 C.ar      1 1N1663      0.0000 
      7 C9         14.4900    3.7930   16.2040 C.ar      1 1N1663      0.0000 
      8 C10        15.7200    4.0740   17.0300 C.3       1 1N1663      0.0000 
      9 C11        11.9930    1.9470   24.8060 C.ar      1 1N1663      0.0000 
     10 C12        11.8940    1.8040   26.1980 C.ar      1 1N1663      0.0000 
     11 C13        11.8550    0.5120   26.7620 C.ar      1 1N1663      0.0000 
     12 C14        12.0040   -0.3960   24.5970 C.ar      1 1N1663      0.0000 
     13 C15        12.0830   -1.5890   23.6830 C.3       1 1N1663      0.0000 
     14 C16        11.8730   -0.9570   28.8140 C.3       1 1N1663      0.0000 
     15 C19        11.4920    1.5780   28.9230 C.3       1 1N1663      0.0000 
     16 C20        10.1000    0.4060   31.9940 C.3       1 1N1663      0.0000 
     17 C21         9.7010    1.8770   32.2530 C.3       1 1N1663      0.0000 
     18 N          12.0390    3.1850   24.2340 N.pl3     1 1N1663      0.0000 
     19 C          12.1750    3.4310   22.8960 C.2       1 1N1663      0.0000 
     20 N1         12.1810    4.6930   22.4250 N.2       1 1N1663      0.0000 
     21 S          12.4740    2.2100   21.6350 S.3       1 1N1663      0.0000 
     22 N2         13.0420    4.1270   18.1500 N.am      1 1N1663      0.0000 
     23 C4         13.2240    3.8270   16.7860 C.ar      1 1N1663      0.0000 
     24 C5         12.1070    3.5850   16.0010 C.ar      1 1N1663      0.0000 
     25 C6         12.2310    3.3030   14.6430 C.ar      1 1N1663      0.0000 
     26 CL         10.4800    3.6230   16.7500 Cl        1 1N1663      0.0000 
     27 O          12.6730    1.9960   18.7150 O.2       1 1N1663      0.0000 
     28 N3         11.9120   -0.5630   25.9440 N.ar      1 1N1663      0.0000 
     29 N4         12.0680    0.8340   24.0450 N.ar      1 1N1663      0.0000 
     30 N5         11.7410    0.3540   28.1580 N.3       1 1N1663      0.0000 
     31 C17        10.9480   -1.0190   30.0510 C.3       1 1N1663      0.0000 
     32 C18        11.8690    1.3130   30.3720 C.3       1 1N1663      0.0000 
     33 O1          8.2660    2.0640   32.4130 O.3       1 1N1663      0.0000 
     34 H          12.3691    5.6261   20.5705 H         1 1N1663      0.0000 
     35 H           9.9241    0.7695   29.9588 H         1 1N1663      0.0000 
     36 H          13.5975    3.0713   13.0618 H         1 1N1663      0.0000 
     37 H          15.5558    3.4978   14.4146 H         1 1N1663      0.0000 
     38 H          11.8504    2.6254   26.8000 H         1 1N1663      0.0000 
     39 H          12.8956   -1.1246   29.1491 H         1 1N1663      0.0000 
     40 H          11.5869   -1.7620   28.1386 H         1 1N1663      0.0000 
     41 H          10.4434    1.8550   28.8815 H         1 1N1663      0.0000 
     42 H          12.0973    2.3983   28.5506 H         1 1N1663      0.0000 
     43 H          10.6146    0.0320   32.8911 H         1 1N1663      0.0000 
     44 H           9.1765   -0.1796   31.8776 H         1 1N1663      0.0000 
     45 H          10.0867    2.4779   31.4087 H         1 1N1663      0.0000 
     46 H          10.2469    2.2141   33.1536 H         1 1N1663      0.0000 
     47 H          11.9624    4.0341   24.8855 H         1 1N1663      0.0000 
     48 H          13.1285    5.1226   18.4418 H         1 1N1663      0.0000 
     49 H          11.3969    3.1189   14.0768 H         1 1N1663      0.0000 
     50 H           9.9356   -1.2516   29.7032 H         1 1N1663      0.0000 
     51 H          11.2864   -1.8470   30.6834 H         1 1N1663      0.0000 
     52 H          12.8925    0.9952   30.4115 H         1 1N1663      0.0000 
     53 H          11.7154    2.2097   30.9399 H         1 1N1663      0.0000 
     54 H          16.3565    3.3028   17.0226 H         1 1N1663      0.0000 
     55 H          16.2208    4.8706   16.6914 H         1 1N1663      0.0000 
     56 H          15.4915    4.2563   17.9863 H         1 1N1663      0.0000 
     57 H          12.1488   -1.3175   22.7228 H         1 1N1663      0.0000 
     58 H          12.8813   -2.1573   23.8823 H         1 1N1663      0.0000 
     59 H          11.2774   -2.1754   23.7672 H         1 1N1663      0.0000 
     60 H           7.8711    1.8011   31.5327 H         1 1N1663      0.0000 
@<TRIPOS>BOND
     1    2    1 2    
     2   20    1 1    
     3   34    1 1    
     4    3    2 1    
     5   21    2 1    
     6   22    3 am   
     7   27    3 2    
     8   16    4 1    
     9   31    4 1    
    10   32    4 1    
    11   35    4 1    
    12    6    5 ar   
    13   25    5 ar   
    14   36    5 1    
    15    7    6 ar   
    16   37    6 1    
    17    8    7 1    
    18   23    7 ar   
    19   54    8 1    
    20   55    8 1    
    21   56    8 1    
    22   10    9 ar   
    23   18    9 1    
    24   29    9 ar   
    25   11   10 ar   
    26   38   10 1    
    27   28   11 ar   
    28   30   11 1    
    29   13   12 1    
    30   28   12 ar   
    31   29   12 ar   
    32   57   13 1    
    33   58   13 1    
    34   59   13 1    
    35   30   14 1    
    36   31   14 1    
    37   39   14 1    
    38   40   14 1    
    39   30   15 1    
    40   32   15 1    
    41   41   15 1    
    42   42   15 1    
    43   17   16 1    
    44   43   16 1    
    45   44   16 1    
    46   33   17 1    
    47   45   17 1    
    48   46   17 1    
    49   19   18 1    
    50   47   18 1    
    51   20   19 2    
    52   21   19 1    
    53   23   22 1    
    54   48   22 1    
    55   24   23 ar   
    56   25   24 ar   
    57   26   24 1    
    58   49   25 1    
    59   50   31 1    
    60   51   31 1    
    61   52   32 1    
    62   53   32 1    
    63   60   33 1    
@<TRIPOS>SUBSTRUCTURE
     1 1N1663      1 GROUP   
@<TRIPOS>SET

