#    Name: 1hmp_5GP_1_INTS_M
#    Modification time : Tue Mar 25 05:36:01 2014

@<TRIPOS>MOLECULE
1hmp_5GP_1_INTS_M
   43     0     9     0     0
SMALL
NO_CHARGES


@<TRIPOS>ATOM
      1 N          38.3835   52.0235   10.2835 N.am      2 SEC2        0.0000 
      2 N          37.8290   50.6940    9.6640 N.am      8 SEL2        0.0000 
      3 N          38.9380   53.3530   10.9030 N.am      5 SEP2        0.0000 
      4 N          37.0550   51.4860   10.4945 N.am      2 SEC2        0.0000 
      5 N          36.2810   52.2780   11.3250 N.am      5 SEP2        0.0000 
      6 N          40.1755   50.7090   11.5605 N.am      2 SEC2        0.0000 
      7 N          38.8810   49.8470   11.7690 N.am      8 SEL2        0.0000 
      8 N          41.4700   51.5710   11.3520 N.am      5 SEP2        0.0000 
      9 N          38.4855   51.0760   12.4840 N.am      2 SEC2        0.0000 
     10 N          38.0900   52.3050   13.1990 N.am      5 SEP2        0.0000 
     11 N          35.8795   48.7110   12.2995 N.am      2 SEC2        0.0000 
     12 N          36.5520   49.1440   11.1080 N.am      8 SEL2        0.0000 
     13 N          35.2070   48.2780   13.4910 N.am      5 SEP2        0.0000 
     14 N          36.1190   47.8185   11.2060 N.am      2 SEC2        0.0000 
     15 N          35.6860   46.4930   11.3040 N.am      5 SEP2        0.0000 
     16 CA         39.9510   50.4120    8.8360 C.3       3 GLC5        0.0000 
     17 CA         39.1340   48.7040    8.5720 C.3       9 GLL5        0.0000 
     18 CA         40.7680   52.1200    9.1000 C.3       6 GLP5        0.0000 
     19 O          42.0505   46.9170   10.2190 O.2       1 ALC1        0.0000 
     20 O          41.2140   46.0040    9.3060 O.2       7 ALL1        0.0000 
     21 O          42.8870   47.8300   11.1320 O.2       4 ALP1        0.0000 
     22 CA         44.8670   50.2520    7.0795 C.3       3 GLC5        0.0000 
     23 CA         43.5350   50.0260    5.5710 C.3       9 GLL5        0.0000 
     24 CA         46.1990   50.4780    8.5880 C.3       6 GLP5        0.0000 
     25 CA         44.2980   51.7705    6.2815 C.3       3 GLC5        0.0000 
     26 CA         45.0610   53.5150    6.9920 C.3       6 GLP5        0.0000 
     27 N          44.9210   52.7575    5.3380 N.am      2 SEC2        0.0000 
     28 N          45.3030   51.5620    5.0030 N.am      8 SEL2        0.0000 
     29 N          44.5390   53.9530    5.6730 N.am      5 SEP2        0.0000 
     30 O          46.5595   49.2900    3.3670 O.2       1 ALC1        0.0000 
     31 O          45.2870   49.4760    4.0990 O.2       7 ALL1        0.0000 
     32 O          47.8320   49.1040    2.6350 O.2       4 ALP1        0.0000 
     33 O          46.5750   48.3030    2.7790 O.2       1 ALC1        0.0000 
     34 O          45.3180   47.5020    2.9230 O.2       7 ALL1        0.0000 
     35 O          45.0675   46.3445    1.9720 O.2       1 ALC1        0.0000 
     36 O          44.8170   45.1870    1.0210 O.2       4 ALP1        0.0000 
     37 CA         43.8490   48.2680    6.9950 C.3       3 GLC5        0.0000 
     38 CA         43.0120   48.7900    5.2380 C.3       9 GLL5        0.0000 
     39 CA         44.6860   47.7460    8.7520 C.3       6 GLP5        0.0000 
     40 CA         43.0665   47.2930    8.2018 C.3       3 GLC5        0.0000 
     41 CA         41.7430   46.6010    6.9920 C.3       9 GLL5        0.0000 
     42 CA         40.9823   45.3458    5.6170 C.3       3 GLC5        0.0000 
     43 CA         40.5730   43.6430    4.7500 C.3       6 GLP5        0.0000 
@<TRIPOS>BOND
@<TRIPOS>SUBSTRUCTURE
     1 ALC1       19 GROUP        1 X    ALC  0     ROOT ALC X 1
     2 SEC2        1 GROUP        1 X    SEC  0     **** SEC X 2
     3 GLC5       16 GROUP        1 X    GLC  0     **** GLC X 6
     4 ALP1       21 GROUP        1 Y    ALP  0     ROOT ALP Y 8
     5 SEP2        3 GROUP        1 Y    SEP  0     **** SEP Y 9
     6 GLP5       18 GROUP        1 Y    GLP  0     **** GLP Y 13
     7 ALL1       20 GROUP        1 Z    ALL  0     ROOT ALL Z 15
     8 SEL2        2 GROUP        1 Z    SEL  0     **** SEL Z 16
     9 GLL5       17 GROUP        1 Z    GLL  0     **** GLL Z 20
@<TRIPOS>SET

