#    Name: 1hmp_5GP_1_ligand
#    Modification time : Tue Mar 25 05:36:01 2014

@<TRIPOS>MOLECULE
1hmp_5GP_1_ligand
   36    38     1     0     0
SMALL
NO_CHARGES


@<TRIPOS>ATOM
      1 P          37.8930   49.6220   10.6630 P.3       1 5GP300      0.0000 
      2 O1P        37.8290   50.6940    9.6640 O.co2     1 5GP300      0.0000 
      3 O2P        38.8810   49.8470   11.7690 O.co2     1 5GP300      0.0000 
      4 O3P        36.5520   49.1440   11.1080 O.co2     1 5GP300      0.0000 
      5 O5'        38.4800   48.4130    9.8030 O.3       1 5GP300      0.0000 
      6 C5'        39.1340   48.7040    8.5720 C.3       1 5GP300      0.0000 
      7 C4'        39.7030   47.4660    7.9100 C.3       1 5GP300      0.0000 
      8 O4'        39.7520   47.7580    6.4930 O.3       1 5GP300      0.0000 
      9 C3'        41.1510   47.0790    8.3110 C.3       1 5GP300      0.0000 
     10 O3'        41.2140   46.0040    9.3060 O.3       1 5GP300      0.0000 
     11 C2'        41.7430   46.6010    6.9920 C.3       1 5GP300      0.0000 
     12 O2'        41.4980   45.2300    6.7510 O.3       1 5GP300      0.0000 
     13 C1'        41.0400   47.4960    5.9760 C.3       1 5GP300      0.0000 
     14 N9         41.7780   48.7420    5.8960 N.pl3     1 5GP300      0.0000 
     15 C8         41.6780   49.8740    6.6670 C.2       1 5GP300      0.0000 
     16 N7         42.6760   50.6820    6.4700 N.2       1 5GP300      0.0000 
     17 C5         43.5350   50.0260    5.5710 C.2       1 5GP300      0.0000 
     18 C6         44.7490   50.4600    4.9400 C.2       1 5GP300      0.0000 
     19 O6         45.3030   51.5620    5.0030 O.2       1 5GP300      0.0000 
     20 N1         45.2870   49.4760    4.0990 N.am      1 5GP300      0.0000 
     21 C2         44.6940   48.2560    3.8340 C.2       1 5GP300      0.0000 
     22 N2         45.3180   47.5020    2.9230 N.pl3     1 5GP300      0.0000 
     23 N3         43.5320   47.8600    4.3690 N.2       1 5GP300      0.0000 
     24 C4         43.0120   48.7900    5.2380 C.2       1 5GP300      0.0000 
     25 H          39.9676   49.4217    8.7179 H         1 5GP300      0.0000 
     26 H          38.4408   49.1838    7.8505 H         1 5GP300      0.0000 
     27 H          39.0607   46.6285    8.0786 H         1 5GP300      0.0000 
     28 H          41.6604   47.9559    8.6052 H         1 5GP300      0.0000 
     29 H          42.7796   46.8673    6.9880 H         1 5GP300      0.0000 
     30 H          41.0138   46.9969    5.0499 H         1 5GP300      0.0000 
     31 H          40.9175   50.0198    7.2888 H         1 5GP300      0.0000 
     32 H          46.2176   49.6909    3.6357 H         1 5GP300      0.0000 
     33 H          44.7433   46.8616    2.4135 H         1 5GP300      0.0000 
     34 H          46.3034   47.6462    2.8329 H         1 5GP300      0.0000 
     35 H          41.8385   46.3402   10.0109 H         1 5GP300      0.0000 
     36 H          41.2152   44.8584    7.6352 H         1 5GP300      0.0000 
@<TRIPOS>BOND
     1    2    1 ar   
     2    3    1 ar   
     3    4    1 ar   
     4    5    1 1    
     5    6    5 1    
     6    7    6 1    
     7   25    6 1    
     8   26    6 1    
     9    8    7 1    
    10    9    7 1    
    11   27    7 1    
    12   13    8 1    
    13   10    9 1    
    14   11    9 1    
    15   28    9 1    
    16   35   10 1    
    17   12   11 1    
    18   13   11 1    
    19   29   11 1    
    20   36   12 1    
    21   14   13 1    
    22   30   13 1    
    23   15   14 1    
    24   24   14 1    
    25   16   15 2    
    26   31   15 1    
    27   17   16 1    
    28   18   17 1    
    29   24   17 2    
    30   19   18 2    
    31   20   18 am   
    32   21   20 1    
    33   32   20 1    
    34   22   21 1    
    35   23   21 2    
    36   33   22 1    
    37   34   22 1    
    38   24   23 1    
@<TRIPOS>SUBSTRUCTURE
     1 5GP300      1 GROUP   
@<TRIPOS>SET

