#    Name: 1uym_PU3_1_INTS_M
#    Modification time : Tue Mar 25 07:20:14 2014

@<TRIPOS>MOLECULE
1uym_PU3_1_INTS_M
   67     0     6     0     0
SMALL
NO_CHARGES


@<TRIPOS>ATOM
      1 CA         10.2165    9.5155   23.0385 C.3       2 GLC5        0.0000 
      2 CA          8.4640   10.0760   22.9460 C.3       6 GLL5        0.0000 
      3 CA         11.9690    8.9550   23.1310 C.3       4 GLP5        0.0000 
      4 CA          9.3065   11.5105   21.8835 C.3       2 GLC5        0.0000 
      5 CA         10.1490   12.9450   20.8210 C.3       4 GLP5        0.0000 
      6 CA          7.1200   15.2290   23.2580 C.3       2 GLC5        0.0000 
      7 CA          8.3080   14.6680   24.6630 C.3       6 GLL5        0.0000 
      8 CA          5.9320   15.7900   21.8530 C.3       4 GLP5        0.0000 
      9 CA          9.3305   14.4245   23.0495 C.3       2 GLC5        0.0000 
     10 CA         10.3530   14.1810   21.4360 C.3       4 GLP5        0.0000 
     11 CA          8.1280   16.5815   24.4705 C.3       2 GLC5        0.0000 
     12 CA          7.9480   18.4950   24.2780 C.3       4 GLP5        0.0000 
     13 CA          3.4760   14.0115   26.7145 C.3       2 GLC5        0.0000 
     14 CA          4.4290   15.6400   25.5330 C.3       6 GLL5        0.0000 
     15 CA          2.5230   12.3830   27.8960 C.3       4 GLP5        0.0000 
     16 CA          4.5610   15.7270   27.4735 C.3       2 GLC5        0.0000 
     17 CA          4.6930   15.8140   29.4140 C.3       4 GLP5        0.0000 
     18 CA          4.5380   15.9875   23.7930 C.3       2 GLC5        0.0000 
     19 CA          4.6470   16.3350   22.0530 C.3       4 GLP5        0.0000 
     20 CA          3.2825   16.8455   24.9945 C.3       2 GLC5        0.0000 
     21 CA          2.1360   18.0510   24.4560 C.3       4 GLP5        0.0000 
     22 CA          5.3215   17.3645   25.7350 C.3       2 GLC5        0.0000 
     23 CA          6.2140   19.0890   25.9370 C.3       4 GLP5        0.0000 
     24 CA          1.6410   10.1725   22.0065 C.3       2 GLC5        0.0000 
     25 CA          3.3500   10.9700   23.0240 C.3       6 GLL5        0.0000 
     26 CA         -0.0680    9.3750   20.9890 C.3       4 GLP5        0.0000 
     27 CA          0.0385   10.1040   22.8705 C.3       2 GLC5        0.0000 
     28 CA          0.1450   10.8330   24.7520 C.3       6 GLL5        0.0000 
     29 CA         -2.4025    9.4135   25.6845 C.3       2 GLC5        0.0000 
     30 CA         -1.2660   11.0070   25.1640 C.3       6 GLL5        0.0000 
     31 CA         -3.5390    7.8200   26.2050 C.3       4 GLP5        0.0000 
     32 CA         -2.1540   12.5715   25.9725 C.3       2 GLC5        0.0000 
     33 CA         -3.0420   14.1360   26.7810 C.3       4 GLP5        0.0000 
     34 O          -3.4200   11.8730   24.5285 O.2       1 ALC1        0.0000 
     35 O          -2.1020   11.7400   24.4230 O.2       5 ALL1        0.0000 
     36 O          -4.7380   12.0060   24.6340 O.2       3 ALP1        0.0000 
     37 CA          1.7695   11.2130   26.7395 C.3       2 GLC5        0.0000 
     38 CA          1.0160   10.0430   25.5830 C.3       6 GLL5        0.0000 
     39 CA         -2.1825    8.7240   26.6840 C.3       2 GLC5        0.0000 
     40 CA         -0.8260    9.6280   27.1630 C.3       6 GLL5        0.0000 
     41 CA         -1.6215    8.2245   28.6070 C.3       2 GLC5        0.0000 
     42 CA         -2.4170    6.8210   30.0510 C.3       4 GLP5        0.0000 
     43 CA         -1.6915   10.4140   28.9780 C.3       2 GLC5        0.0000 
     44 CA         -2.5570   11.2000   30.7930 C.3       4 GLP5        0.0000 
     45 CA          0.5235   10.5830   28.2470 C.3       2 GLC5        0.0000 
     46 CA          1.8730   11.5380   29.3310 C.3       4 GLP5        0.0000 
     47 CA          2.9555   10.8250   26.7535 C.3       2 GLC5        0.0000 
     48 CA          3.3880    9.2670   25.6110 C.3       6 GLL5        0.0000 
     49 CA          4.5685   10.0915   26.6855 C.3       2 GLC5        0.0000 
     50 CA          5.7490   10.9160   27.7600 C.3       4 GLP5        0.0000 
     51 CA          6.0622   11.1382   25.7298 C.3       2 GLC5        0.0000 
     52 CA          5.7600   11.0910   23.3580 C.3       6 GLL5        0.0000 
     53 CA          5.7472   11.9058   21.9548 C.3       2 GLC5        0.0000 
     54 CA          6.9910   11.6300   24.0410 C.3       6 GLL5        0.0000 
     55 CA          5.1190   12.4510   20.2100 C.3       4 GLP5        0.0000 
     56 CA          5.9027   12.0192   26.3125 C.3       2 GLC5        0.0000 
     57 CA          6.7610   12.9230   24.7240 C.3       6 GLL5        0.0000 
     58 CA          3.6990   12.6945   26.3025 C.3       2 GLC5        0.0000 
     59 CA          5.3520   13.3220   25.0060 C.3       6 GLL5        0.0000 
     60 CA          5.1125   11.5423   25.8998 C.3       2 GLC5        0.0000 
     61 CA          4.3980   12.6900   24.4120 C.3       6 GLL5        0.0000 
     62 CA          4.5160   12.0101   21.8709 C.3       2 GLC5        0.0000 
     63 CA          0.2372   12.1055   26.1885 C.3       2 GLC5        0.0000 
     64 CA          1.0350   13.2910   27.4190 C.3       4 GLP5        0.0000 
     65 CA          5.1380    7.9985   26.4923 C.3       2 GLC5        0.0000 
     66 CA          3.2360    7.8460   25.0520 C.3       6 GLL5        0.0000 
     67 CA          6.3890    8.5450   27.9840 C.3       4 GLP5        0.0000 
@<TRIPOS>BOND
@<TRIPOS>SUBSTRUCTURE
     1 ALC1       34 GROUP        1 X    ALC  0     ROOT ALC X 1
     2 GLC5        1 GROUP        1 X    GLC  0     **** GLC X 6
     3 ALP1       36 GROUP        1 Y    ALP  0     ROOT ALP Y 8
     4 GLP5        3 GROUP        1 Y    GLP  0     **** GLP Y 13
     5 ALL1       35 GROUP        1 Z    ALL  0     ROOT ALL Z 15
     6 GLL5        2 GROUP        1 Z    GLL  0     **** GLL Z 20
@<TRIPOS>SET

