#    Name: 1uym_PU3_1_ligand
#    Modification time : Tue Mar 25 07:20:14 2014

@<TRIPOS>MOLECULE
1uym_PU3_1_ligand
   52    54     1     0     0
SMALL
NO_CHARGES


@<TRIPOS>ATOM
      1 C19         8.4640   10.0760   22.9460 C.3       1 PU31224     0.0000 
      2 O3          8.3440   11.2560   23.7340 O.3       1 PU31224     0.0000 
      3 C5          6.9910   11.6300   24.0410 C.ar      1 PU31224     0.0000 
      4 C6          5.7600   11.0910   23.3580 C.ar      1 PU31224     0.0000 
      5 C4          6.7610   12.9230   24.7240 C.ar      1 PU31224     0.0000 
      6 O1          7.8080   13.5830   25.4380 O.3       1 PU31224     0.0000 
      7 C7          8.3080   14.6680   24.6630 C.3       1 PU31224     0.0000 
      8 C3          5.3520   13.3220   25.0060 C.ar      1 PU31224     0.0000 
      9 O2          5.2000   14.5000   25.8540 O.3       1 PU31224     0.0000 
     10 C8          4.4290   15.6400   25.5330 C.3       1 PU31224     0.0000 
     11 C2          4.3980   12.6900   24.4120 C.ar      1 PU31224     0.0000 
     12 C1          4.5540   11.6470   23.6670 C.ar      1 PU31224     0.0000 
     13 C9          3.3500   10.9700   23.0240 C.3       1 PU31224     0.0000 
     14 C10         2.1830   10.7420   23.9560 C.2       1 PU31224     0.0000 
     15 N1          0.9210   11.2490   23.7430 N.2       1 PU31224     0.0000 
     16 C11         0.1450   10.8330   24.7520 C.ar      1 PU31224     0.0000 
     17 C13        -1.2660   11.0070   25.1640 C.ar      1 PU31224     0.0000 
     18 N5         -2.1020   11.7400   24.4230 N.pl3     1 PU31224     0.0000 
     19 C12         1.0160   10.0430   25.5830 C.ar      1 PU31224     0.0000 
     20 N4          0.5640    9.4680   26.7350 N.ar      1 PU31224     0.0000 
     21 C14        -0.8260    9.6280   27.1630 C.ar      1 PU31224     0.0000 
     22 N3         -1.6180   10.4520   26.2380 N.ar      1 PU31224     0.0000 
     23 N2          2.2420    9.9970   25.0830 N.pl3     1 PU31224     0.0000 
     24 C15         3.3880    9.2670   25.6110 C.3       1 PU31224     0.0000 
     25 C16         3.2360    7.8460   25.0520 C.3       1 PU31224     0.0000 
     26 C17         4.5380    7.0580   24.9490 C.3       1 PU31224     0.0000 
     27 C18         5.2630    7.3030   23.6400 C.3       1 PU31224     0.0000 
     28 H           5.8939   10.3424   22.7040 H         1 PU31224     0.0000 
     29 H           3.3794   13.0651   24.5490 H         1 PU31224     0.0000 
     30 H           3.6734    9.9982   22.6020 H         1 PU31224     0.0000 
     31 H           3.0148   11.5843   22.1653 H         1 PU31224     0.0000 
     32 H          -3.0490   11.7836   24.7411 H         1 PU31224     0.0000 
     33 H          -1.7056   12.1792   23.6168 H         1 PU31224     0.0000 
     34 H          -1.1831    9.2412   27.9554 H         1 PU31224     0.0000 
     35 H           3.3648    9.2155   26.6810 H         1 PU31224     0.0000 
     36 H           4.3135    9.6744   25.2565 H         1 PU31224     0.0000 
     37 H           2.7731    7.9083   24.0502 H         1 PU31224     0.0000 
     38 H           2.5279    7.2886   25.6921 H         1 PU31224     0.0000 
     39 H           4.3156    5.9876   25.0460 H         1 PU31224     0.0000 
     40 H           5.1920    7.3392   25.7844 H         1 PU31224     0.0000 
     41 H           9.4197    9.8543   22.7524 H         1 PU31224     0.0000 
     42 H           8.0658    9.2813   23.4042 H         1 PU31224     0.0000 
     43 H           8.0004   10.1691   22.0649 H         1 PU31224     0.0000 
     44 H           9.0436   15.1537   25.1352 H         1 PU31224     0.0000 
     45 H           8.6763   14.3593   23.7860 H         1 PU31224     0.0000 
     46 H           7.5953   15.3399   24.4614 H         1 PU31224     0.0000 
     47 H           4.4637   16.3280   26.2579 H         1 PU31224     0.0000 
     48 H           4.7494   16.0811   24.6947 H         1 PU31224     0.0000 
     49 H           3.4659   15.4097   25.3934 H         1 PU31224     0.0000 
     50 H           5.4976    8.2677   23.5203 H         1 PU31224     0.0000 
     51 H           6.1165    6.7848   23.5856 H         1 PU31224     0.0000 
     52 H           4.7076    7.0365   22.8523 H         1 PU31224     0.0000 
@<TRIPOS>BOND
     1    2    1 1    
     2   41    1 1    
     3   42    1 1    
     4   43    1 1    
     5    3    2 1    
     6    4    3 ar   
     7    5    3 ar   
     8   12    4 ar   
     9   28    4 1    
    10    6    5 1    
    11    8    5 ar   
    12    7    6 1    
    13   44    7 1    
    14   45    7 1    
    15   46    7 1    
    16    9    8 1    
    17   11    8 ar   
    18   10    9 1    
    19   47   10 1    
    20   48   10 1    
    21   49   10 1    
    22   12   11 ar   
    23   29   11 1    
    24   13   12 1    
    25   14   13 1    
    26   30   13 1    
    27   31   13 1    
    28   15   14 2    
    29   23   14 1    
    30   16   15 1    
    31   17   16 ar   
    32   19   16 ar   
    33   18   17 1    
    34   22   17 ar   
    35   32   18 1    
    36   33   18 1    
    37   20   19 ar   
    38   23   19 1    
    39   21   20 ar   
    40   22   21 ar   
    41   34   21 1    
    42   24   23 1    
    43   25   24 1    
    44   35   24 1    
    45   36   24 1    
    46   26   25 1    
    47   37   25 1    
    48   38   25 1    
    49   27   26 1    
    50   39   26 1    
    51   40   26 1    
    52   50   27 1    
    53   51   27 1    
    54   52   27 1    
@<TRIPOS>SUBSTRUCTURE
     1 PU31224     1 GROUP   
@<TRIPOS>SET

