#    Name: 4ehz_JAK_4_INTS_M
#    Modification time : Mon Mar 24 17:53:14 2014

@<TRIPOS>MOLECULE
4ehz_JAK_4_INTS_M
   63     0    12     0     0
SMALL
NO_CHARGES


@<TRIPOS>ATOM
      1 CA         14.3270    4.3930  -45.8460 C.3       4 GLC5        0.0000 
      2 CA         12.7510    4.2250  -44.4080 C.3      12 GLL5        0.0000 
      3 CA         15.9030    4.5610  -47.2840 C.3       8 GLP5        0.0000 
      4 CA         11.8410    3.8265  -42.4600 C.3       4 GLC5        0.0000 
      5 CA         10.9310    3.4280  -40.5120 C.3       8 GLP5        0.0000 
      6 CA         16.1395    1.1195  -46.1025 C.3       4 GLC5        0.0000 
      7 CA         15.2920   -0.0320  -44.5490 C.3      12 GLL5        0.0000 
      8 CA         16.9870    2.2710  -47.6560 C.3       8 GLP5        0.0000 
      9 CA         15.1985   -2.1100  -44.1965 C.3       4 GLC5        0.0000 
     10 CA         15.1050   -4.1880  -43.8440 C.3       8 GLP5        0.0000 
     11 N          16.3900   -1.9810  -44.2435 N.am      2 SEC2        0.0000 
     12 N          16.4800   -0.4390  -44.1370 N.am     10 SEL2        0.0000 
     13 N          16.3000   -3.5230  -44.3500 N.am      6 SEP2        0.0000 
     14 CA         17.8820   -1.4465  -44.5010 C.3       4 GLC5        0.0000 
     15 CA         17.3390    0.3780  -43.5130 C.3      12 GLL5        0.0000 
     16 CA         18.4250   -3.2710  -45.4890 C.3       8 GLP5        0.0000 
     17 CA         16.9780    0.1460  -41.7445 C.3       4 GLC5        0.0000 
     18 CA         16.6170   -0.0860  -39.9760 C.3       8 GLP5        0.0000 
     19 CA         16.9915    1.9965  -45.4555 C.3       4 GLC5        0.0000 
     20 CA         16.9960    1.7220  -43.2550 C.3      12 GLL5        0.0000 
     21 CA         14.9990    2.7645  -41.1135 C.3       4 GLC5        0.0000 
     22 CA         15.5610    4.5750  -41.5180 C.3      12 GLL5        0.0000 
     23 CA         14.4370    0.9540  -40.7090 C.3       8 GLP5        0.0000 
     24 CA         15.0760    5.7640  -38.8640 C.3       4 GLC5        0.0000 
     25 CA         15.8800    5.9420  -40.9060 C.3      12 GLL5        0.0000 
     26 CA         14.2720    5.5860  -36.8220 C.3       8 GLP5        0.0000 
     27 CA         17.5025    6.1590  -39.5265 C.3       4 GLC5        0.0000 
     28 CA         19.1250    6.3760  -38.1470 C.3       8 GLP5        0.0000 
     29 OD1        18.7570    6.8795  -40.7315 O.co2     3 ASC3        0.0000 
     30 OD1        17.0930    6.4980  -41.5210 O.co2    11 ASL3        0.0000 
     31 OD1        20.4210    7.2610  -39.9420 O.co2     7 ASP3        0.0000 
     32 CA         16.0000    7.8660  -44.5800 C.3       4 GLC5        0.0000 
     33 CA         16.8890    6.6800  -42.9620 C.3      12 GLL5        0.0000 
     34 CA         15.1110    9.0520  -46.1980 C.3       8 GLP5        0.0000 
     35 CA         18.5455    6.6785  -43.7045 C.3       4 GLC5        0.0000 
     36 CA         20.2020    6.6770  -44.4470 C.3       8 GLP5        0.0000 
     37 CA         18.1805    5.6930  -44.6635 C.3       4 GLC5        0.0000 
     38 CA         16.7000    5.3050  -43.6150 C.3      12 GLL5        0.0000 
     39 CA         19.6610    6.0810  -45.7120 C.3       8 GLP5        0.0000 
     40 CA         19.0480    3.4350  -44.1550 C.3       4 GLC5        0.0000 
     41 CA         18.1580    2.3030  -42.5640 C.3      12 GLL5        0.0000 
     42 CA         19.9380    4.5670  -45.7460 C.3       8 GLP5        0.0000 
     43 CA         19.5265   -0.1695  -40.9485 C.3       4 GLC5        0.0000 
     44 CA         19.0790    1.3300  -42.4390 C.3      12 GLL5        0.0000 
     45 CA         19.9740   -1.6690  -39.4580 C.3       8 GLP5        0.0000 
     46 O          19.3335   -1.0535  -43.2535 O.2       1 ALC1        0.0000 
     47 O          18.6000    0.1740  -43.0040 O.2       9 ALL1        0.0000 
     48 O          20.0670   -2.2810  -43.5030 O.2       5 ALP1        0.0000 
     49 CA         15.4950    2.4167  -45.8175 C.3       4 GLC5        0.0000 
     50 CA         15.7420    2.2060  -43.6720 C.3      12 GLL5        0.0000 
     51 CA         15.6780    3.0860  -47.6320 C.3       8 GLP5        0.0000 
     52 CA         13.0760    0.1967  -44.1058 C.3       4 GLC5        0.0000 
     53 CA         14.8820    1.2890  -44.3340 C.3      12 GLL5        0.0000 
     54 CA         11.0650   -0.2350  -43.7700 C.3       8 GLP5        0.0000 
     55 CA         14.7620    0.7913  -42.5753 C.3       4 GLC5        0.0000 
     56 CA         15.4030    1.4590  -42.0862 C.3       4 GLC5        0.0000 
     57 CA         15.9802    4.7837  -45.3053 C.3       4 GLC5        0.0000 
     58 CA         15.4150    4.7080  -43.0380 C.3      12 GLL5        0.0000 
     59 CA         20.4868    2.4988  -42.5007 C.3       4 GLC5        0.0000 
     60 CA         22.3550    3.1810  -42.5000 C.3       8 GLP5        0.0000 
     61 CA         17.6178    0.8653  -41.2387 C.3       4 GLC5        0.0000 
     62 CA         19.1130    1.0641  -44.3499 C.3       4 GLC5        0.0000 
     63 CA         20.3330    0.6950  -45.7570 C.3       8 GLP5        0.0000 
@<TRIPOS>BOND
@<TRIPOS>SUBSTRUCTURE
     1 ALC1       46 GROUP        1 X    ALC  0     ROOT ALC X 1
     2 SEC2       11 GROUP        1 X    SEC  0     **** SEC X 2
     3 ASC3       29 GROUP        1 X    ASC  0     **** ASC X 3
     4 GLC5        1 GROUP        1 X    GLC  0     **** GLC X 6
     5 ALP1       48 GROUP        1 Y    ALP  0     ROOT ALP Y 8
     6 SEP2       13 GROUP        1 Y    SEP  0     **** SEP Y 9
     7 ASP3       31 GROUP        1 Y    ASP  0     **** ASP Y 10
     8 GLP5        3 GROUP        1 Y    GLP  0     **** GLP Y 13
     9 ALL1       47 GROUP        1 Z    ALL  0     ROOT ALL Z 15
    10 SEL2       12 GROUP        1 Z    SEL  0     **** SEL Z 16
    11 ASL3       30 GROUP        1 Z    ASL  0     **** ASL Z 17
    12 GLL5        2 GROUP        1 Z    GLL  0     **** GLL Z 20
@<TRIPOS>SET

