#    Name: 4ehz_JAK_4_ligand
#    Modification time : Mon Mar 24 17:53:14 2014

@<TRIPOS>MOLECULE
4ehz_JAK_4_ligand
   35    38     1     0     0
SMALL
NO_CHARGES


@<TRIPOS>ATOM
      1 C1         12.7510    4.2250  -44.4080 C.3       1 JAK1201     0.0000 
      2 C2         13.8390    3.1900  -44.2360 C.2       1 JAK1201     0.0000 
      3 N3         13.7510    1.9570  -44.6390 N.2       1 JAK1201     0.0000 
      4 C4         14.8820    1.2890  -44.3340 C.ar      1 JAK1201     0.0000 
      5 C5         15.2920   -0.0320  -44.5490 C.ar      1 JAK1201     0.0000 
      6 N6         16.4800   -0.4390  -44.1370 N.ar      1 JAK1201     0.0000 
      7 C7         17.3390    0.3780  -43.5130 C.ar      1 JAK1201     0.0000 
      8 C8         16.9960    1.7220  -43.2550 C.ar      1 JAK1201     0.0000 
      9 C9         15.7420    2.2060  -43.6720 C.ar      1 JAK1201     0.0000 
     10 N10        15.0440    3.4060  -43.6230 N.pl3     1 JAK1201     0.0000 
     11 C11        15.4150    4.7080  -43.0380 C.3       1 JAK1201     0.0000 
     12 C12        15.5610    4.5750  -41.5180 C.3       1 JAK1201     0.0000 
     13 C13        15.8800    5.9420  -40.9060 C.3       1 JAK1201     0.0000 
     14 N14        17.0930    6.4980  -41.5210 N.4       1 JAK1201     0.0000 
     15 C15        16.8890    6.6800  -42.9620 C.3       1 JAK1201     0.0000 
     16 C16        16.7000    5.3050  -43.6150 C.3       1 JAK1201     0.0000 
     17 C17        18.1580    2.3030  -42.5640 C.2       1 JAK1201     0.0000 
     18 C18        19.0790    1.3300  -42.4390 C.2       1 JAK1201     0.0000 
     19 N19        18.6000    0.1740  -43.0040 N.pl3     1 JAK1201     0.0000 
     20 H          14.6318   -0.6709  -45.0397 H         1 JAK1201     0.0000 
     21 H          14.6063    5.4315  -43.2107 H         1 JAK1201     0.0000 
     22 H          16.3658    3.8849  -41.2946 H         1 JAK1201     0.0000 
     23 H          14.6333    4.2023  -41.1004 H         1 JAK1201     0.0000 
     24 H          16.0147    5.8133  -39.8302 H         1 JAK1201     0.0000 
     25 H          15.0247    6.6000  -41.0716 H         1 JAK1201     0.0000 
     26 H          17.7499    7.1604  -43.4203 H         1 JAK1201     0.0000 
     27 H          16.0013    7.2763  -43.1581 H         1 JAK1201     0.0000 
     28 H          16.5976    5.4239  -44.6755 H         1 JAK1201     0.0000 
     29 H          17.5320    4.6751  -43.3693 H         1 JAK1201     0.0000 
     30 H          18.1812    3.1992  -42.2894 H         1 JAK1201     0.0000 
     31 H          19.9472    1.4158  -42.0194 H         1 JAK1201     0.0000 
     32 H          19.0808   -0.6660  -43.0396 H         1 JAK1201     0.0000 
     33 H          13.0189    5.1116  -44.0311 H         1 JAK1201     0.0000 
     34 H          12.5269    4.3717  -45.3715 H         1 JAK1201     0.0000 
     35 H          11.9051    3.9546  -43.9482 H         1 JAK1201     0.0000 
@<TRIPOS>BOND
     1    2    1 1    
     2   33    1 1    
     3   34    1 1    
     4   35    1 1    
     5    3    2 2    
     6   10    2 1    
     7    4    3 1    
     8    5    4 ar   
     9    9    4 ar   
    10    6    5 ar   
    11   20    5 1    
    12    7    6 ar   
    13    8    7 ar   
    14   19    7 1    
    15    9    8 ar   
    16   17    8 1    
    17   10    9 1    
    18   11   10 1    
    19   12   11 1    
    20   16   11 1    
    21   21   11 1    
    22   13   12 1    
    23   22   12 1    
    24   23   12 1    
    25   14   13 1    
    26   24   13 1    
    27   25   13 1    
    28   15   14 1    
    29   16   15 1    
    30   26   15 1    
    31   27   15 1    
    32   28   16 1    
    33   29   16 1    
    34   18   17 2    
    35   30   17 1    
    36   19   18 1    
    37   31   18 1    
    38   32   19 1    
@<TRIPOS>SUBSTRUCTURE
     1 JAK1201     1 GROUP   
@<TRIPOS>SET

