#    Name: 4loi_1YC_1_INTS_M
#    Modification time : Tue Apr  8 00:06:08 2014

@<TRIPOS>MOLECULE
4loi_1YC_1_INTS_M
   69     0    12     0     0
SMALL
NO_CHARGES


@<TRIPOS>ATOM
      1 O          50.2025   35.2460   15.4465 O.2       1 ALC1        0.0000 
      2 O          48.9710   34.7900   15.2670 O.2       9 ALL1        0.0000 
      3 O          51.4340   35.7020   15.6260 O.2       5 ALP1        0.0000 
      4 O          48.2650   38.2740   14.6860 O.2       1 ALC1        0.0000 
      5 O          48.6480   36.9590   14.4880 O.2       9 ALL1        0.0000 
      6 O          47.8820   39.5890   14.8840 O.2       5 ALP1        0.0000 
      7 N          45.8900   36.6460   14.3705 N.am      2 SEC2        0.0000 
      8 N          46.7940   35.6880   15.1620 N.am     10 SEL2        0.0000 
      9 N          44.9860   37.6040   13.5790 N.am      6 SEP2        0.0000 
     10 CA         45.8010   35.1300   17.5565 C.3       4 GLC5        0.0000 
     11 CA         46.2810   34.5290   15.6510 C.3      12 GLL5        0.0000 
     12 CA         45.3210   35.7310   19.4620 C.3       8 GLP5        0.0000 
     13 CA         43.6610   36.8840   16.3550 C.3       4 GLC5        0.0000 
     14 CA         43.8120   34.9970   15.7520 C.3      12 GLL5        0.0000 
     15 CA         43.5100   38.7710   16.9580 C.3       8 GLP5        0.0000 
     16 CA         44.5665   35.3640   17.6070 C.3       4 GLC5        0.0000 
     17 CA         41.4265   36.3275   17.7330 C.3       4 GLC5        0.0000 
     18 CA         41.6550   34.7840   16.6610 C.3      12 GLL5        0.0000 
     19 CA         41.1980   37.8710   18.8050 C.3       8 GLP5        0.0000 
     20 CA         41.7040   33.2090   19.2300 C.3       4 GLC5        0.0000 
     21 CA         41.2190   33.4410   17.2800 C.3      12 GLL5        0.0000 
     22 CA         42.1890   32.9770   21.1800 C.3       8 GLP5        0.0000 
     23 NZ         43.8495   28.9810   17.2920 N.4       3 LYC4        0.0000 
     24 NZ         43.0660   30.1070   17.0470 N.4      11 LYL4        0.0000 
     25 NZ         45.7300   28.5520   17.2160 N.4       7 LYP4        0.0000 
     26 N          43.8495   28.9810   17.2920 N.am      2 SEC2        0.0000 
     27 N          43.0660   30.1070   17.0470 N.am     10 SEL2        0.0000 
     28 N          44.6330   27.8550   17.5370 N.am      6 SEP2        0.0000 
     29 N          44.3525   29.9370   16.8310 N.am      2 SEC2        0.0000 
     30 N          45.6390   29.7670   16.6150 N.am      6 SEP2        0.0000 
     31 NZ         46.1960   33.2515   12.3240 N.4       3 LYC4        0.0000 
     32 NZ         44.8430   33.1700   12.3960 N.4      11 LYL4        0.0000 
     33 NZ         47.7110   32.0870   12.6670 N.4       7 LYP4        0.0000 
     34 N          46.1960   33.2515   12.3240 N.am      2 SEC2        0.0000 
     35 N          44.8430   33.1700   12.3960 N.am     10 SEL2        0.0000 
     36 N          47.5490   33.3330   12.2520 N.am      6 SEP2        0.0000 
     37 N          45.7610   32.2965   12.7915 N.am      2 SEC2        0.0000 
     38 N          46.6790   31.4230   13.1870 N.am      6 SEP2        0.0000 
     39 CA         41.6675   32.0825    9.9545 C.3       4 GLC5        0.0000 
     40 CA         41.1940   32.3330   11.9500 C.3      12 GLL5        0.0000 
     41 CA         42.1410   31.8320    7.9590 C.3       8 GLP5        0.0000 
     42 CA         39.0725   30.3765   11.4075 C.3       4 GLC5        0.0000 
     43 CA         40.4290   31.1140   12.4570 C.3      12 GLL5        0.0000 
     44 CA         37.7160   29.6390   10.3580 C.3       8 GLP5        0.0000 
     45 CA         41.1695   29.4590   11.2220 C.3       4 GLC5        0.0000 
     46 CA         41.9100   27.8040    9.9870 C.3       8 GLP5        0.0000 
     47 CA         39.8870   28.3730   13.0480 C.3       4 GLC5        0.0000 
     48 CA         41.4910   29.5040   13.7200 C.3      12 GLL5        0.0000 
     49 CA         38.2830   27.2420   12.3760 C.3       8 GLP5        0.0000 
     50 CA         41.7005   28.6540   11.8535 C.3       4 GLC5        0.0000 
     51 N          45.8635   30.2515   13.3195 N.am      2 SEC2        0.0000 
     52 N          45.0480   29.0800   13.4520 N.am     10 SEL2        0.0000 
     53 CA         42.6220   27.8490   12.0325 C.3       4 GLC5        0.0000 
     54 CA         43.3340   27.8940   14.0780 C.3      12 GLL5        0.0000 
     55 N          41.3185   26.8835   15.1915 N.am      2 SEC2        0.0000 
     56 N          42.6690   26.8300   14.5670 N.am     10 SEL2        0.0000 
     57 N          39.9680   26.9370   15.8160 N.am      6 SEP2        0.0000 
     58 CA         42.1925   25.8310   16.3405 C.3       4 GLC5        0.0000 
     59 CA         43.4120   25.6940   14.8900 C.3      12 GLL5        0.0000 
     60 CA         40.9730   25.9680   17.7910 C.3       8 GLP5        0.0000 
     61 CA         43.6170   24.0215   15.8915 C.3       4 GLC5        0.0000 
     62 CA         43.8220   22.3490   16.8930 C.3       8 GLP5        0.0000 
     63 CA         46.2610   26.7845   16.2350 C.3       4 GLC5        0.0000 
     64 CA         45.3950   26.7780   14.2570 C.3      12 GLL5        0.0000 
     65 CA         47.1270   26.7910   18.2130 C.3       8 GLP5        0.0000 
     66 CA         39.4890   34.8242   17.3798 C.3       4 GLC5        0.0000 
     67 CA         37.5410   35.5360   17.7890 C.3       8 GLP5        0.0000 
     68 CA         39.0222   32.8028   11.7647 C.3       4 GLC5        0.0000 
     69 CA         37.2330   33.8820   11.3260 C.3       8 GLP5        0.0000 
@<TRIPOS>BOND
@<TRIPOS>SUBSTRUCTURE
     1 ALC1        1 GROUP        1 X    ALC  0     ROOT ALC X 1
     2 SEC2        7 GROUP        1 X    SEC  0     **** SEC X 2
     3 LYC4       23 GROUP        1 X    LYC  0     **** LYC X 4
     4 GLC5       10 GROUP        1 X    GLC  0     **** GLC X 6
     5 ALP1        3 GROUP        1 Y    ALP  0     ROOT ALP Y 8
     6 SEP2        9 GROUP        1 Y    SEP  0     **** SEP Y 9
     7 LYP4       25 GROUP        1 Y    LYP  0     **** LYP Y 11
     8 GLP5       12 GROUP        1 Y    GLP  0     **** GLP Y 13
     9 ALL1        2 GROUP        1 Z    ALL  0     ROOT ALL Z 15
    10 SEL2        8 GROUP        1 Z    SEL  0     **** SEL Z 16
    11 LYL4       24 GROUP        1 Z    LYL  0     **** LYL Z 18
    12 GLL5       11 GROUP        1 Z    GLL  0     **** GLL Z 20
@<TRIPOS>SET

