#    Name: 4loi_1YC_1_ligand
#    Modification time : Tue Apr  8 00:06:08 2014

@<TRIPOS>MOLECULE
4loi_1YC_1_ligand
   67    73     1     0     0
SMALL
NO_CHARGES


@<TRIPOS>ATOM
      1 OAC        49.2200   32.7020   15.9940 O.2       1 1YC401      0.0000 
      2 CBC        48.4280   33.6100   15.7410 C.2       1 1YC401      0.0000 
      3 NAT        48.9710   34.7900   15.2670 N.am      1 1YC401      0.0000 
      4 CBA        48.1240   35.8310   14.9510 C.2       1 1YC401      0.0000 
      5 NAA        48.6480   36.9590   14.4880 N.pl3     1 1YC401      0.0000 
      6 NAS        46.7940   35.6880   15.1620 N.2       1 1YC401      0.0000 
      7 CBG        46.2810   34.5290   15.6510 C.2       1 1YC401      0.0000 
      8 CBE        47.0890   33.5040   15.9400 C.2       1 1YC401      0.0000 
      9 NAR        46.3250   32.5230   16.4360 N.2       1 1YC401      0.0000 
     10 CAL        45.0490   32.9280   16.4110 C.2       1 1YC401      0.0000 
     11 NBQ        45.0340   34.1790   15.9610 N.pl3     1 1YC401      0.0000 
     12 CBO        43.8120   34.9970   15.7520 C.3       1 1YC401      0.0000 
     13 OAX        43.0640   35.0900   16.9410 O.3       1 1YC401      0.0000 
     14 CBK        41.6550   34.7840   16.6610 C.3       1 1YC401      0.0000 
     15 CAN        41.2190   33.4410   17.2800 C.3       1 1YC401      0.0000 
     16 OP3        42.0600   32.3970   16.8430 O.3       1 1YC401      0.0000 
     17 P2'        41.7180   30.8270   17.1060 P.3       1 1YC401      0.0000 
     18 O2'        40.7890   30.4330   15.9190 O.3       1 1YC401      0.0000 
     19 OP2        40.9330   30.7340   18.4020 O.co2     1 1YC401      0.0000 
     20 OP1        43.0660   30.1070   17.0470 O.co2     1 1YC401      0.0000 
     21 CBI        41.5420   34.7330   15.1800 C.3       1 1YC401      0.0000 
     22 OAE        41.2700   36.0430   14.6970 O.3       1 1YC401      0.0000 
     23 CBM        42.9110   34.3040   14.7660 C.3       1 1YC401      0.0000 
     24 OAZ        43.1900   34.7490   13.4180 O.3       1 1YC401      0.0000 
     25 PBS        43.3630   33.6570   12.2480 P.3       1 1YC401      0.0000 
     26 OAH        44.8430   33.1700   12.3960 O.co2     1 1YC401      0.0000 
     27 OAI        43.0470   34.2480   10.8840 O.co2     1 1YC401      0.0000 
     28 O5'        42.4080   32.3640   12.5440 O.3       1 1YC401      0.0000 
     29 C5'        41.1940   32.3330   11.9500 C.3       1 1YC401      0.0000 
     30 C4'        40.4290   31.1140   12.4570 C.3       1 1YC401      0.0000 
     31 O4'        41.2410   29.9150   12.4060 O.3       1 1YC401      0.0000 
     32 C3'        40.1300   31.3330   13.8970 C.3       1 1YC401      0.0000 
     33 O3'        38.9420   30.6430   14.2780 O.3       1 1YC401      0.0000 
     34 C2'        41.2430   30.7380   14.5990 C.3       1 1YC401      0.0000 
     35 C1'        41.4910   29.5040   13.7200 C.3       1 1YC401      0.0000 
     36 N9         42.8730   29.0910   13.6900 N.pl3     1 1YC401      0.0000 
     37 C8         43.9350   29.8180   13.2970 C.2       1 1YC401      0.0000 
     38 N7         45.0480   29.0800   13.4520 N.2       1 1YC401      0.0000 
     39 C5         44.6860   27.8800   13.9430 C.ar      1 1YC401      0.0000 
     40 C4         43.3340   27.8940   14.0780 C.ar      1 1YC401      0.0000 
     41 N3         42.6690   26.8300   14.5670 N.ar      1 1YC401      0.0000 
     42 C2         43.4120   25.6940   14.8900 C.ar      1 1YC401      0.0000 
     43 N1         44.7820   25.6880   14.7340 N.ar      1 1YC401      0.0000 
     44 C6         45.3950   26.7780   14.2570 C.ar      1 1YC401      0.0000 
     45 N6         46.7310   26.7870   14.0940 N.pl3     1 1YC401      0.0000 
     46 H          49.9832   34.8871   15.1535 H         1 1YC401      0.0000 
     47 H          48.1233   37.7922   14.6626 H         1 1YC401      0.0000 
     48 H          49.5202   36.8738   14.0063 H         1 1YC401      0.0000 
     49 H          44.2821   32.4022   16.6735 H         1 1YC401      0.0000 
     50 H          44.0654   35.9540   15.3627 H         1 1YC401      0.0000 
     51 H          41.0252   35.5646   17.0355 H         1 1YC401      0.0000 
     52 H          40.1686   33.2796   16.9933 H         1 1YC401      0.0000 
     53 H          41.2424   33.5670   18.3733 H         1 1YC401      0.0000 
     54 H          40.8414   34.0146   14.9011 H         1 1YC401      0.0000 
     55 H          43.0035   33.2601   14.8857 H         1 1YC401      0.0000 
     56 H          41.2400   32.2427   10.8517 H         1 1YC401      0.0000 
     57 H          40.5686   33.2137   12.1732 H         1 1YC401      0.0000 
     58 H          39.5278   31.0047   11.9203 H         1 1YC401      0.0000 
     59 H          40.0815   32.3706   14.0959 H         1 1YC401      0.0000 
     60 H          42.0751   31.3633   14.5527 H         1 1YC401      0.0000 
     61 H          40.8480   28.7263   14.0123 H         1 1YC401      0.0000 
     62 H          43.9021   30.7262   12.9574 H         1 1YC401      0.0000 
     63 H          42.9261   24.8562   15.2476 H         1 1YC401      0.0000 
     64 H          47.2093   25.9424   14.3346 H         1 1YC401      0.0000 
     65 H          47.1262   27.6374   13.7468 H         1 1YC401      0.0000 
     66 H          41.8932   36.1687   13.9251 H         1 1YC401      0.0000 
     67 H          39.1410   30.2651   15.1822 H         1 1YC401      0.0000 
@<TRIPOS>BOND
     1    2    1 2    
     2    3    2 am   
     3    8    2 1    
     4    4    3 1    
     5   46    3 1    
     6    5    4 1    
     7    6    4 2    
     8   47    5 1    
     9   48    5 1    
    10    7    6 1    
    11    8    7 2    
    12   11    7 1    
    13    9    8 1    
    14   10    9 2    
    15   11   10 1    
    16   49   10 1    
    17   12   11 1    
    18   13   12 1    
    19   23   12 1    
    20   50   12 1    
    21   14   13 1    
    22   15   14 1    
    23   21   14 1    
    24   51   14 1    
    25   16   15 1    
    26   52   15 1    
    27   53   15 1    
    28   17   16 1    
    29   18   17 1    
    30   19   17 ar   
    31   20   17 ar   
    32   34   18 1    
    33   22   21 1    
    34   23   21 1    
    35   54   21 1    
    36   66   22 1    
    37   24   23 1    
    38   55   23 1    
    39   25   24 1    
    40   26   25 ar   
    41   27   25 ar   
    42   28   25 1    
    43   29   28 1    
    44   30   29 1    
    45   56   29 1    
    46   57   29 1    
    47   31   30 1    
    48   32   30 1    
    49   58   30 1    
    50   35   31 1    
    51   33   32 1    
    52   34   32 1    
    53   59   32 1    
    54   67   33 1    
    55   35   34 1    
    56   60   34 1    
    57   36   35 1    
    58   61   35 1    
    59   37   36 1    
    60   40   36 1    
    61   38   37 2    
    62   62   37 1    
    63   39   38 1    
    64   40   39 ar   
    65   44   39 ar   
    66   41   40 ar   
    67   42   41 ar   
    68   43   42 ar   
    69   63   42 1    
    70   44   43 ar   
    71   45   44 1    
    72   64   45 1    
    73   65   45 1    
@<TRIPOS>SUBSTRUCTURE
     1 1YC401      1 GROUP   
@<TRIPOS>SET

