#    Name: 4mo2_FDA_1_INTS_M
#    Modification time : Tue Mar 25 12:17:00 2014

@<TRIPOS>MOLECULE
4mo2_FDA_1_INTS_M
  123     0    12     0     0
SMALL
NO_CHARGES


@<TRIPOS>ATOM
      1 NZ         10.2685  -15.8680    2.3005 N.4       3 LYC4        0.0000 
      2 NZ         10.3910  -14.7240    3.3580 N.4      11 LYL4        0.0000 
      3 NZ          8.9870  -16.4280    0.9690 N.4       7 LYP4        0.0000 
      4 N           9.5705  -14.9565    2.3730 N.am      2 SEC2        0.0000 
      5 N          10.3910  -14.7240    3.3580 N.am     10 SEL2        0.0000 
      6 N           8.7500  -15.1890    1.3880 N.am      6 SEP2        0.0000 
      7 N          10.2685  -15.8680    2.3005 N.am      2 SEC2        0.0000 
      8 N          10.1460  -17.0120    1.2430 N.am      6 SEP2        0.0000 
      9 N          12.5445  -12.4970    2.4760 N.am      2 SEC2        0.0000 
     10 N          11.2170  -12.2660    3.2310 N.am     10 SEL2        0.0000 
     11 N          13.8720  -12.7280    1.7210 N.am      6 SEP2        0.0000 
     12 CA          9.9455  -15.9135    5.7845 C.3       4 GLC5        0.0000 
     13 CA         10.9630  -14.0580    6.2530 C.3      12 GLL5        0.0000 
     14 CA          8.9280  -17.7690    5.3160 C.3       8 GLP5        0.0000 
     15 CA         12.3350  -13.7380    8.9495 C.3       4 GLC5        0.0000 
     16 CA         12.1970  -14.2340    7.1470 C.3      12 GLL5        0.0000 
     17 CA         12.4730  -13.2420   10.7520 C.3       8 GLP5        0.0000 
     18 O          15.0930  -13.8805    7.8415 O.2       1 ALC1        0.0000 
     19 O          14.4910  -14.1800    6.5970 O.2       9 ALL1        0.0000 
     20 O          15.6950  -13.5810    9.0860 O.2       5 ALP1        0.0000 
     21 N          14.4920  -18.4385    7.4340 N.am      2 SEC2        0.0000 
     22 N          14.7400  -16.7470    7.0880 N.am     10 SEL2        0.0000 
     23 N          14.2440  -20.1300    7.7800 N.am      6 SEP2        0.0000 
     24 O          15.6770  -16.0950    7.7295 O.2       1 ALC1        0.0000 
     25 O          14.7400  -16.7470    7.0880 O.2       9 ALL1        0.0000 
     26 O          16.6140  -15.4430    8.3710 O.2       5 ALP1        0.0000 
     27 CA         12.7010  -14.5985    9.6025 C.3       4 GLC5        0.0000 
     28 CA         12.9290  -15.9550    8.4530 C.3      12 GLL5        0.0000 
     29 CA         14.7120  -19.4775   11.1885 C.3       4 GLC5        0.0000 
     30 CA         12.6990  -19.4450   11.8760 C.3      12 GLL5        0.0000 
     31 CA         16.7250  -19.5100   10.5010 C.3       8 GLP5        0.0000 
     32 CA         12.6050  -19.1865   14.0475 C.3       4 GLC5        0.0000 
     33 CA         12.5110  -18.9280   16.2190 C.3       8 GLP5        0.0000 
     34 O          12.9580  -21.6375   12.8590 O.2       1 ALC1        0.0000 
     35 O          12.0550  -20.6790   12.2150 O.2       9 ALL1        0.0000 
     36 O          13.8610  -22.5960   13.5030 O.2       5 ALP1        0.0000 
     37 N          14.0305  -19.5605   14.0705 N.am      2 SEC2        0.0000 
     38 N          13.6030  -18.9150   12.7040 N.am     10 SEL2        0.0000 
     39 N          14.4580  -20.2060   15.4370 N.am      6 SEP2        0.0000 
     40 CA         12.6495  -17.1215   13.0895 C.3       4 GLC5        0.0000 
     41 CA         14.2300  -17.7430   12.4070 C.3      12 GLL5        0.0000 
     42 CA         11.0690  -16.5000   13.7720 C.3       8 GLP5        0.0000 
     43 CA         15.0085  -17.0120   14.3345 C.3       4 GLC5        0.0000 
     44 CA         15.7870  -16.2810   16.2620 C.3       8 GLP5        0.0000 
     45 CA         15.5565  -16.3440   12.2560 C.3       4 GLC5        0.0000 
     46 CA         16.8830  -14.9450   12.1050 C.3       8 GLP5        0.0000 
     47 CA         15.4775  -18.6265   11.4540 C.3       4 GLC5        0.0000 
     48 CA         15.2190  -19.5240   13.2880 C.3       4 GLC5        0.0000 
     49 CA         16.2080  -21.3050   14.1690 C.3       8 GLP5        0.0000 
     50 CA         13.3705  -18.3355   14.3130 C.3       4 GLC5        0.0000 
     51 N          15.5375  -17.1145   11.1710 N.am      2 SEC2        0.0000 
     52 N          13.9440  -17.0820   11.2440 N.am     10 SEL2        0.0000 
     53 N          17.1310  -17.1470   11.0980 N.am      6 SEP2        0.0000 
     54 CA         12.7550  -15.4095   10.5650 C.3       4 GLC5        0.0000 
     55 CA         13.0370  -17.5770   10.3780 C.3      12 GLL5        0.0000 
     56 N           6.6665   -6.5995   -3.8255 N.am      2 SEC2        0.0000 
     57 N           7.1740   -6.4030   -5.0440 N.am     10 SEL2        0.0000 
     58 N           6.1590   -6.7960   -2.6070 N.am      6 SEP2        0.0000 
     59 O           9.0230   -6.1925   -7.2920 O.2       1 ALC1        0.0000 
     60 O           8.6440   -7.4090   -6.7160 O.2       9 ALL1        0.0000 
     61 O           9.4020   -4.9760   -7.8680 O.2       5 ALP1        0.0000 
     62 N          11.0165   -7.4665   -8.1980 N.am      2 SEC2        0.0000 
     63 N          10.1030   -8.5220   -8.2920 N.am     10 SEL2        0.0000 
     64 N          11.9300   -6.4110   -8.1040 N.am      6 SEP2        0.0000 
     65 O          11.3225  -10.7055   -7.4640 O.2       1 ALC1        0.0000 
     66 O          10.1390  -10.9370   -6.7450 O.2       9 ALL1        0.0000 
     67 O          12.5060  -10.4740   -8.1830 O.2       5 ALP1        0.0000 
     68 CA         11.1915  -17.6135   -7.0680 C.3       4 GLC5        0.0000 
     69 CA         10.7810  -15.9340   -6.4930 C.3      12 GLL5        0.0000 
     70 CA         11.6020  -19.2930   -7.6430 C.3       8 GLP5        0.0000 
     71 CA         11.2135  -17.2755   -5.1760 C.3       4 GLC5        0.0000 
     72 CA         11.6460  -18.6170   -3.8590 C.3       8 GLP5        0.0000 
     73 CA          9.3325  -16.8785   -7.2410 C.3       4 GLC5        0.0000 
     74 CA          7.8840  -17.8230   -7.9890 C.3       8 GLP5        0.0000 
     75 CA         10.3280  -17.3030   -3.9790 C.3       4 GLC5        0.0000 
     76 CA          9.0100  -15.9890   -4.0990 C.3      12 GLL5        0.0000 
     77 CA          7.9510  -16.5845   -5.6875 C.3       4 GLC5        0.0000 
     78 CA          6.8920  -17.1800   -7.2760 C.3       8 GLP5        0.0000 
     79 CA          7.2670  -15.0470   -4.6470 C.3       4 GLC5        0.0000 
     80 CA          5.5240  -14.1050   -5.1950 C.3       8 GLP5        0.0000 
     81 CA          8.9930   -8.1780   -3.6160 C.3       4 GLC5        0.0000 
     82 CA          8.7190   -9.7920   -5.0980 C.3      12 GLL5        0.0000 
     83 CA          9.2670   -6.5640   -2.1340 C.3       8 GLP5        0.0000 
     84 CA          6.6775  -11.8870   -4.3355 C.3       4 GLC5        0.0000 
     85 CA          8.0000  -10.9430   -2.9720 C.3      12 GLL5        0.0000 
     86 CA          5.3550  -12.8310   -5.6990 C.3       8 GLP5        0.0000 
     87 CA         10.5555   -9.4460   -1.0130 C.3       4 GLC5        0.0000 
     88 CA          8.9500  -10.6640   -1.8160 C.3      12 GLL5        0.0000 
     89 CA         12.1610   -8.2280   -0.2100 C.3       8 GLP5        0.0000 
     90 CA          9.1085   -8.6140   -1.9750 C.3       4 GLC5        0.0000 
     91 N          10.9655  -11.2135   -2.5590 N.am      2 SEC2        0.0000 
     92 N           9.9380  -11.6320   -1.7390 N.am     10 SEL2        0.0000 
     93 N          11.9930  -10.7950   -3.3790 N.am      6 SEP2        0.0000 
     94 O           6.2060  -10.0290   -1.2670 O.2       1 ALC1        0.0000 
     95 O           7.3280   -9.5670   -0.4940 O.2       9 ALL1        0.0000 
     96 O           5.0840  -10.4910   -2.0400 O.2       5 ALP1        0.0000 
     97 CA         10.5520   -9.4510    0.2905 C.3       4 GLC5        0.0000 
     98 CA          8.9430  -10.6740    0.7910 C.3      12 GLL5        0.0000 
     99 CA          7.1140   -8.7970    2.0750 C.3       4 GLC5        0.0000 
    100 CA          7.9900  -10.7370    1.9690 C.3      12 GLL5        0.0000 
    101 CA          6.2380   -6.8570    2.1810 C.3       8 GLP5        0.0000 
    102 N           8.7870   -9.1455    6.1290 N.am      2 SEC2        0.0000 
    103 N           9.0070  -10.5390    5.8290 N.am     10 SEL2        0.0000 
    104 N           8.5670   -7.7520    6.4290 N.am      6 SEP2        0.0000 
    105 N           5.7560  -12.3045    4.2250 N.am      2 SEC2        0.0000 
    106 N           6.9450  -11.4590    4.2950 N.am     10 SEL2        0.0000 
    107 N           4.5670  -13.1500    4.1550 N.am      6 SEP2        0.0000 
    108 CA         12.0180  -12.0395    6.4180 C.3       4 GLC5        0.0000 
    109 CA         12.4560   -9.9330    6.1360 C.3       8 GLP5        0.0000 
    110 CA         13.7120  -13.4285    5.3830 C.3       4 GLC5        0.0000 
    111 CA         14.6540  -12.2830    3.9700 C.3       8 GLP5        0.0000 
    112 CA         14.3763  -18.7340    9.8475 C.3       4 GLC5        0.0000 
    113 CA         12.3780  -18.8010   10.6880 C.3      12 GLL5        0.0000 
    114 CA         16.0450  -19.2790    9.1620 C.3       8 GLP5        0.0000 
    115 CA         11.9284  -17.4250   12.3010 C.3       4 GLC5        0.0000 
    116 CA         10.5775   -9.6182   -4.6903 C.3       4 GLC5        0.0000 
    117 CA         12.0840   -9.4590   -3.6930 C.3       8 GLP5        0.0000 
    118 CA         10.8440  -10.8173   -4.5490 C.3       4 GLC5        0.0000 
    119 CA         10.0080  -12.1560   -5.9550 C.3      12 GLL5        0.0000 
    120 CA         10.2795  -10.1312   -3.0435 C.3       4 GLC5        0.0000 
    121 CA          7.8862  -12.5856    1.0984 C.3       4 GLC5        0.0000 
    122 CA          8.1510  -10.6730   -0.5140 C.3      12 GLL5        0.0000 
    123 CA          7.5040  -14.4660    1.1430 C.3       8 GLP5        0.0000 
@<TRIPOS>BOND
@<TRIPOS>SUBSTRUCTURE
     1 ALC1       18 GROUP        1 X    ALC  0     ROOT ALC X 1
     2 SEC2        4 GROUP        1 X    SEC  0     **** SEC X 2
     3 LYC4        1 GROUP        1 X    LYC  0     **** LYC X 4
     4 GLC5       12 GROUP        1 X    GLC  0     **** GLC X 6
     5 ALP1       20 GROUP        1 Y    ALP  0     ROOT ALP Y 8
     6 SEP2        6 GROUP        1 Y    SEP  0     **** SEP Y 9
     7 LYP4        3 GROUP        1 Y    LYP  0     **** LYP Y 11
     8 GLP5       14 GROUP        1 Y    GLP  0     **** GLP Y 13
     9 ALL1       19 GROUP        1 Z    ALL  0     ROOT ALL Z 15
    10 SEL2        5 GROUP        1 Z    SEL  0     **** SEL Z 16
    11 LYL4        2 GROUP        1 Z    LYL  0     **** LYL Z 18
    12 GLL5       13 GROUP        1 Z    GLL  0     **** GLL Z 20
@<TRIPOS>SET

