#    Name: 4mo2_FDA_1_ligand
#    Modification time : Tue Mar 25 12:17:00 2014

@<TRIPOS>MOLECULE
4mo2_FDA_1_ligand
   86    91     1     0     0
SMALL
NO_CHARGES


@<TRIPOS>ATOM
      1 PA         10.4700  -13.2830    3.9290 P.3       1 FDA402      0.0000 
      2 O1A        10.3910  -14.7240    3.3580 O.co2     1 FDA402      0.0000 
      3 O2A        11.2170  -12.2660    3.2310 O.co2     1 FDA402      0.0000 
      4 O5B        11.1720  -13.1010    5.2230 O.3       1 FDA402      0.0000 
      5 C5B        10.9630  -14.0580    6.2530 C.3       1 FDA402      0.0000 
      6 C4B        12.1970  -14.2340    7.1470 C.3       1 FDA402      0.0000 
      7 O4B        11.8990  -15.0400    8.2610 O.3       1 FDA402      0.0000 
      8 C3B        13.3430  -14.9140    6.4450 C.3       1 FDA402      0.0000 
      9 O3B        14.4910  -14.1800    6.5970 O.3       1 FDA402      0.0000 
     10 C2B        13.4450  -16.2460    7.0880 C.3       1 FDA402      0.0000 
     11 O2B        14.7400  -16.7470    7.0880 O.3       1 FDA402      0.0000 
     12 C1B        12.9290  -15.9550    8.4530 C.3       1 FDA402      0.0000 
     13 N9A        12.5140  -17.1710    9.1250 N.pl3     1 FDA402      0.0000 
     14 C8A        11.5900  -18.1150    8.7190 C.2       1 FDA402      0.0000 
     15 N7A        11.5050  -19.0860    9.6410 N.2       1 FDA402      0.0000 
     16 C5A        12.3780  -18.8010   10.6880 C.ar      1 FDA402      0.0000 
     17 C6A        12.6990  -19.4450   11.8760 C.ar      1 FDA402      0.0000 
     18 N6A        12.0550  -20.6790   12.2150 N.pl3     1 FDA402      0.0000 
     19 N1A        13.6030  -18.9150   12.7040 N.ar      1 FDA402      0.0000 
     20 C2A        14.2300  -17.7430   12.4070 C.ar      1 FDA402      0.0000 
     21 N3A        13.9440  -17.0820   11.2440 N.ar      1 FDA402      0.0000 
     22 C4A        13.0370  -17.5770   10.3780 C.ar      1 FDA402      0.0000 
     23 N1          7.9530   -8.6440   -4.6830 N.am      1 FDA402      0.0000 
     24 C2          7.9210   -7.4670   -5.4950 C.2       1 FDA402      0.0000 
     25 O2          7.1740   -6.4030   -5.0440 O.2       1 FDA402      0.0000 
     26 N3          8.6440   -7.4090   -6.7160 N.am      1 FDA402      0.0000 
     27 C4          9.3900   -8.5320   -7.1210 C.2       1 FDA402      0.0000 
     28 O4         10.1030   -8.5220   -8.2920 O.2       1 FDA402      0.0000 
     29 C4X         9.4230   -9.7630   -6.2770 C.2       1 FDA402      0.0000 
     30 N5         10.1390  -10.9370   -6.7450 N.pl3     1 FDA402      0.0000 
     31 C5X        10.0080  -12.1560   -5.9550 C.ar      1 FDA402      0.0000 
     32 C6         10.5510  -13.4170   -6.5180 C.ar      1 FDA402      0.0000 
     33 C7         10.2220  -14.6520   -5.9110 C.ar      1 FDA402      0.0000 
     34 C7M        10.7810  -15.9340   -6.4930 C.3       1 FDA402      0.0000 
     35 C8          9.3730  -14.6830   -4.7610 C.ar      1 FDA402      0.0000 
     36 C8M         9.0100  -15.9890   -4.0990 C.3       1 FDA402      0.0000 
     37 C9          8.8560  -13.4850   -4.2210 C.ar      1 FDA402      0.0000 
     38 C9A         9.2000  -12.1950   -4.8550 C.ar      1 FDA402      0.0000 
     39 N10         8.6620  -10.9700   -4.2880 N.pl3     1 FDA402      0.0000 
     40 C10         8.7190   -9.7920   -5.0980 C.2       1 FDA402      0.0000 
     41 C1'         8.0000  -10.9430   -2.9720 C.3       1 FDA402      0.0000 
     42 C2'         8.9500  -10.6640   -1.8160 C.3       1 FDA402      0.0000 
     43 O2'         9.9380  -11.6320   -1.7390 O.3       1 FDA402      0.0000 
     44 C3'         8.1510  -10.6730   -0.5140 C.3       1 FDA402      0.0000 
     45 O3'         7.3280   -9.5670   -0.4940 O.3       1 FDA402      0.0000 
     46 C4'         8.9430  -10.6740    0.7910 C.3       1 FDA402      0.0000 
     47 O4'         9.8470  -11.7340    0.8880 O.3       1 FDA402      0.0000 
     48 C5'         7.9900  -10.7370    1.9690 C.3       1 FDA402      0.0000 
     49 O5'         8.6750  -10.3570    3.1340 O.3       1 FDA402      0.0000 
     50 P           8.4920  -11.1900    4.4840 P.3       1 FDA402      0.0000 
     51 O1P         9.0070  -10.5390    5.8290 O.co2     1 FDA402      0.0000 
     52 O2P         6.9450  -11.4590    4.2950 O.co2     1 FDA402      0.0000 
     53 O3P         9.1320  -12.6790    4.2400 O.3       1 FDA402      0.0000 
     54 H          10.7119  -15.0550    5.8409 H         1 FDA402      0.0000 
     55 H          10.1191  -13.7733    6.9115 H         1 FDA402      0.0000 
     56 H          12.5333  -13.2532    7.4659 H         1 FDA402      0.0000 
     57 H          13.0501  -15.0535    5.4176 H         1 FDA402      0.0000 
     58 H          12.7260  -16.8937    6.6041 H         1 FDA402      0.0000 
     59 H          13.7527  -15.4865    9.0043 H         1 FDA402      0.0000 
     60 H          11.0913  -18.0629    7.8905 H         1 FDA402      0.0000 
     61 H          12.6538  -21.4725   12.3233 H         1 FDA402      0.0000 
     62 H          11.0606  -20.6434   12.3149 H         1 FDA402      0.0000 
     63 H          14.9295  -17.3467   13.0653 H         1 FDA402      0.0000 
     64 H           7.4357   -8.6756   -3.8101 H         1 FDA402      0.0000 
     65 H           8.6196   -6.5695   -7.2829 H         1 FDA402      0.0000 
     66 H          10.6909  -10.9137   -7.5618 H         1 FDA402      0.0000 
     67 H          11.1467  -13.3618   -7.3270 H         1 FDA402      0.0000 
     68 H           8.2565  -13.4785   -3.4128 H         1 FDA402      0.0000 
     69 H           7.4951  -11.9100   -2.7793 H         1 FDA402      0.0000 
     70 H           7.2053  -10.1713   -2.9608 H         1 FDA402      0.0000 
     71 H           9.3497   -9.6700   -1.9422 H         1 FDA402      0.0000 
     72 H           7.5286  -11.5898   -0.5158 H         1 FDA402      0.0000 
     73 H           9.4592   -9.7061    0.8599 H         1 FDA402      0.0000 
     74 H           7.6023  -11.7621    2.0302 H         1 FDA402      0.0000 
     75 H           7.1435  -10.0737    1.7493 H         1 FDA402      0.0000 
     76 H          11.7810  -15.9399   -6.4863 H         1 FDA402      0.0000 
     77 H          10.4797  -16.7374   -5.9794 H         1 FDA402      0.0000 
     78 H          10.4935  -16.0677   -7.4414 H         1 FDA402      0.0000 
     79 H           9.8190  -16.4760   -3.7698 H         1 FDA402      0.0000 
     80 H           8.4097  -15.8517   -3.3111 H         1 FDA402      0.0000 
     81 H           8.5332  -16.6039   -4.7272 H         1 FDA402      0.0000 
     82 H          14.6637  -14.1709    7.5819 H         1 FDA402      0.0000 
     83 H          15.2630  -16.1120    7.6565 H         1 FDA402      0.0000 
     84 H          10.0157  -11.8455   -0.7651 H         1 FDA402      0.0000 
     85 H           6.8471   -9.5865   -1.3705 H         1 FDA402      0.0000 
     86 H          10.1906  -11.6959    1.8263 H         1 FDA402      0.0000 
@<TRIPOS>BOND
     1    2    1 ar   
     2    3    1 ar   
     3    4    1 1    
     4   53    1 1    
     5    5    4 1    
     6    6    5 1    
     7   54    5 1    
     8   55    5 1    
     9    7    6 1    
    10    8    6 1    
    11   56    6 1    
    12   12    7 1    
    13    9    8 1    
    14   10    8 1    
    15   57    8 1    
    16   82    9 1    
    17   11   10 1    
    18   12   10 1    
    19   58   10 1    
    20   83   11 1    
    21   13   12 1    
    22   59   12 1    
    23   14   13 1    
    24   22   13 1    
    25   15   14 2    
    26   60   14 1    
    27   16   15 1    
    28   17   16 ar   
    29   22   16 ar   
    30   18   17 1    
    31   19   17 ar   
    32   61   18 1    
    33   62   18 1    
    34   20   19 ar   
    35   21   20 ar   
    36   63   20 1    
    37   22   21 ar   
    38   24   23 am   
    39   40   23 1    
    40   64   23 1    
    41   25   24 2    
    42   26   24 am   
    43   27   26 am   
    44   65   26 1    
    45   28   27 2    
    46   29   27 1    
    47   30   29 1    
    48   40   29 2    
    49   31   30 1    
    50   66   30 1    
    51   32   31 ar   
    52   38   31 ar   
    53   33   32 ar   
    54   67   32 1    
    55   34   33 1    
    56   35   33 ar   
    57   76   34 1    
    58   77   34 1    
    59   78   34 1    
    60   36   35 1    
    61   37   35 ar   
    62   79   36 1    
    63   80   36 1    
    64   81   36 1    
    65   38   37 ar   
    66   68   37 1    
    67   39   38 1    
    68   40   39 1    
    69   41   39 1    
    70   42   41 1    
    71   69   41 1    
    72   70   41 1    
    73   43   42 1    
    74   44   42 1    
    75   71   42 1    
    76   84   43 1    
    77   45   44 1    
    78   46   44 1    
    79   72   44 1    
    80   85   45 1    
    81   47   46 1    
    82   48   46 1    
    83   73   46 1    
    84   86   47 1    
    85   49   48 1    
    86   74   48 1    
    87   75   48 1    
    88   50   49 1    
    89   51   50 ar   
    90   52   50 ar   
    91   53   50 1    
@<TRIPOS>SUBSTRUCTURE
     1 FDA402      1 GROUP   
@<TRIPOS>SET

