#    Name: 2C2B_7_CAVITY_N1_ALL.mol2
#    Modification time : Tue Mar 11 05:42:05 2014

@<TRIPOS>MOLECULE
2C2B_7_CAVITY_N1_ALL.mol2
  160     0     6     0     0
SMALL
NO_CHARGES


@<TRIPOS>ATOM
      1 CZ         52.7149   -8.2367   10.1274 C.ar      4 PHE5        0.0000 
      2 N          60.6385   -3.5252    3.3807 N.2       2 ALA2        0.0000 
      3 N          60.0597   -2.6290    2.3263 N.2       2 ALA2        0.0000 
      4 OG         59.4809   -1.7329    1.2718 O.2       1 SER1        0.0000 
      5 O          59.8373   -4.7104    4.9471 O.2       2 ALA2        0.0000 
      6 N          59.2585   -3.8142    3.8926 N.2       2 ALA2        0.0000 
      7 O          58.4573   -4.9994    5.4590 O.2       2 ALA2        0.0000 
      8 N          57.8785   -4.1032    4.4045 N.2       2 ALA2        0.0000 
      9 N          57.0773   -5.2884    5.9709 N.2       2 ALA2        0.0000 
     10 N          56.4985   -4.3922    4.9164 N.2       2 ALA2        0.0000 
     11 N          56.2761   -6.4735    7.5373 N.2       2 ALA2        0.0000 
     12 N          55.6973   -5.5774    6.4828 N.2       2 ALA2        0.0000 
     13 CZ         55.1185   -4.6812    5.4284 C.ar      4 PHE5        0.0000 
     14 CZ         54.5397   -3.7851    4.3739 C.ar      4 PHE5        0.0000 
     15 CA         56.0538   -8.5549   10.1581 C.3       5 GLY6        0.0000 
     16 N          55.4750   -7.6587    9.1036 N.2       2 ALA2        0.0000 
     17 N          54.8961   -6.7625    8.0492 N.2       2 ALA2        0.0000 
     18 CZ         54.3173   -5.8664    6.9947 C.ar      4 PHE5        0.0000 
     19 CZ         53.7385   -4.9702    5.9403 C.ar      4 PHE5        0.0000 
     20 OG         53.1597   -4.0741    4.8858 O.2       1 SER1        0.0000 
     21 O          54.6738   -8.8439   10.6700 O.2       2 ALA2        0.0000 
     22 O          54.0949   -7.9477    9.6155 O.2       2 ALA2        0.0000 
     23 CZ         53.5161   -7.0515    8.5611 C.ar      4 PHE5        0.0000 
     24 CZ         60.9263   -8.1782   -2.8656 C.ar      4 PHE5        0.0000 
     25 DU         60.3475   -7.2821   -3.9201 H         6 CUB7        0.0000 
     26 N          59.7687   -6.3859   -4.9745 N.2       2 ALA2        0.0000 
     27 NZ         58.9675   -7.5711   -3.4082 N.2       3 LYS4        0.0000 
     28 N          58.3887   -6.6749   -4.4626 N.2       2 ALA2        0.0000 
     29 NZ         62.0355   -3.4901   -1.6240 N.2       3 LYS4        0.0000 
     30 DU         61.4567   -2.5940   -2.6785 H         6 CUB7        0.0000 
     31 O          60.8779   -1.6978   -3.7329 O.2       2 ALA2        0.0000 
     32 CZ         61.8132   -5.5715    0.9968 C.ar      4 PHE5        0.0000 
     33 NZ         61.2343   -4.6753   -0.0576 N.2       3 LYS4        0.0000 
     34 NZ         60.6555   -3.7791   -1.1121 N.2       3 LYS4        0.0000 
     35 N          60.0767   -2.8830   -2.1665 N.2       2 ALA2        0.0000 
     36 N          59.4979   -1.9868   -3.2210 N.2       2 ALA2        0.0000 
     37 CZ         59.8543   -4.9643    0.4543 C.ar      4 PHE5        0.0000 
     38 N          59.2755   -4.0682   -0.6002 N.2       2 ALA2        0.0000 
     39 CZ         59.0532   -6.1495    2.0206 C.ar      4 PHE5        0.0000 
     40 CZ         58.4743   -5.2533    0.9662 C.ar      4 PHE5        0.0000 
     41 CA         58.2520   -7.3346    3.5870 C.3       5 GLY6        0.0000 
     42 CZ         57.6732   -6.4385    2.5325 C.ar      4 PHE5        0.0000 
     43 O          58.7766  -15.8788    4.5727 O.2       2 ALA2        0.0000 
     44 O          57.3965  -16.1678    5.0846 O.2       2 ALA2        0.0000 
     45 N          56.0165  -16.4568    5.5966 N.2       2 ALA2        0.0000 
     46 NZ         61.3540   -3.7616   -3.6145 N.2       3 LYS4        0.0000 
     47 O          60.7752   -2.8655   -4.6689 O.2       2 ALA2        0.0000 
     48 NZ         60.5528   -4.9468   -2.0481 N.2       3 LYS4        0.0000 
     49 N          59.9740   -4.0506   -3.1025 N.2       2 ALA2        0.0000 
     50 N          59.3952   -3.1545   -4.1570 N.2       2 ALA2        0.0000 
     51 CZ         59.7517   -6.1320   -0.4817 C.ar      4 PHE5        0.0000 
     52 N          59.1728   -5.2358   -1.5362 N.2       2 ALA2        0.0000 
     53 N          58.5940   -4.3396   -2.5906 N.2       2 ALA2        0.0000 
     54 CZ         58.3717   -6.4210    0.0302 C.ar      4 PHE5        0.0000 
     55 CZ         57.7928   -5.5248   -1.0243 C.ar      4 PHE5        0.0000 
     56 CA         55.9511   -9.7225    9.2221 C.3       5 GLY6        0.0000 
     57 N          55.3723   -8.8263    8.1676 N.2       2 ALA2        0.0000 
     58 DU         54.7935   -7.9302    7.1132 H         6 CUB7        0.0000 
     59 DU         54.2146   -7.0340    6.0587 H         6 CUB7        0.0000 
     60 CZ         53.6358   -6.1379    5.0043 C.ar      4 PHE5        0.0000 
     61 CZ         53.0570   -5.2417    3.9498 C.ar      4 PHE5        0.0000 
     62 CA         54.5711  -10.0115    9.7340 C.3       5 GLY6        0.0000 
     63 DU         53.9923   -9.1153    8.6795 H         6 CUB7        0.0000 
     64 CZ         53.4134   -8.2192    7.6251 C.ar      4 PHE5        0.0000 
     65 CZ         52.8346   -7.3230    6.5706 C.ar      4 PHE5        0.0000 
     66 CA         52.2558   -6.4269    5.5162 C.3       5 GLY6        0.0000 
     67 CA         52.0334   -8.5082    8.1370 C.3       5 GLY6        0.0000 
     68 N          51.4546   -7.6120    7.0826 N.2       2 ALA2        0.0000 
     69 CZ         58.1493   -8.5023    2.6510 C.ar      4 PHE5        0.0000 
     70 CZ         57.5705   -7.6061    1.5966 C.ar      4 PHE5        0.0000 
     71 CZ         56.9916   -6.7100    0.5421 C.ar      4 PHE5        0.0000 
     72 CZ         57.3481   -9.6874    4.2174 C.ar      4 PHE5        0.0000 
     73 CZ         56.7693   -8.7913    3.1629 C.ar      4 PHE5        0.0000 
     74 CZ         57.7046  -12.6649    7.8926 C.ar      4 PHE5        0.0000 
     75 CZ         57.1258  -11.7688    6.8382 C.ar      4 PHE5        0.0000 
     76 CZ         56.5469  -10.8726    5.7837 C.ar      4 PHE5        0.0000 
     77 CZ         55.9681   -9.9764    4.7293 C.ar      4 PHE5        0.0000 
     78 CZ         55.3893   -9.0803    3.6748 C.ar      4 PHE5        0.0000 
     79 N          55.7457  -12.0578    7.3501 N.2       2 ALA2        0.0000 
     80 N          55.1669  -11.1616    6.2956 N.2       2 ALA2        0.0000 
     81 N          54.5881  -10.2655    5.2412 N.2       2 ALA2        0.0000 
     82 N          54.0093   -9.3693    4.1867 N.2       2 ALA2        0.0000 
     83 CZ         58.8478   -8.4848    0.1486 C.ar      4 PHE5        0.0000 
     84 CZ         58.2690   -7.5886   -0.9058 C.ar      4 PHE5        0.0000 
     85 CZ         57.6902   -6.6924   -1.9603 C.ar      4 PHE5        0.0000 
     86 N          57.1113   -5.7963   -3.0147 N.2       2 ALA2        0.0000 
     87 CZ         58.0466   -9.6699    1.7150 C.ar      4 PHE5        0.0000 
     88 CZ         57.4678   -8.7738    0.6606 C.ar      4 PHE5        0.0000 
     89 CZ         56.8890   -7.8776   -0.3939 C.ar      4 PHE5        0.0000 
     90 CZ         57.2454  -10.8551    3.2814 C.ar      4 PHE5        0.0000 
     91 DU         56.6666   -9.9589    2.2269 H         6 CUB7        0.0000 
     92 CA         56.0878   -9.0628    1.1725 C.3       5 GLY6        0.0000 
     93 CZ         57.6019  -13.8326    6.9566 C.ar      4 PHE5        0.0000 
     94 CZ         57.0231  -12.9364    5.9022 C.ar      4 PHE5        0.0000 
     95 CZ         56.4443  -12.0402    4.8477 C.ar      4 PHE5        0.0000 
     96 CZ         55.8654  -11.1441    3.7933 C.ar      4 PHE5        0.0000 
     97 CA         55.2866  -10.2479    2.7388 C.3       5 GLY6        0.0000 
     98 CZ         56.2219  -14.1216    7.4685 C.ar      4 PHE5        0.0000 
     99 N          55.6431  -13.2254    6.4141 N.2       2 ALA2        0.0000 
    100 N          55.0642  -12.3292    5.3596 N.2       2 ALA2        0.0000 
    101 N          54.4854  -11.4331    4.3052 N.2       2 ALA2        0.0000 
    102 CA         53.9066  -10.5369    3.2508 C.3       5 GLY6        0.0000 
    103 N          54.2631  -13.5144    6.9260 N.2       2 ALA2        0.0000 
    104 N          53.6842  -12.6183    5.8716 N.2       2 ALA2        0.0000 
    105 NZ         61.2514   -4.9293   -4.5504 N.2       3 LYS4        0.0000 
    106 NZ         60.4502   -6.1144   -2.9841 N.2       3 LYS4        0.0000 
    107 N          59.8713   -5.2183   -4.0385 N.2       2 ALA2        0.0000 
    108 CZ         59.0702   -6.4034   -2.4722 C.ar      4 PHE5        0.0000 
    109 N          58.4913   -5.5073   -3.5266 N.2       2 ALA2        0.0000 
    110 CZ         57.4508   -8.5198    5.1534 C.ar      4 PHE5        0.0000 
    111 CZ         56.8720   -7.6236    4.0989 C.ar      4 PHE5        0.0000 
    112 CA         57.8073  -11.4973    8.8286 C.3       5 GLY6        0.0000 
    113 CZ         57.2284  -10.6011    7.7742 C.ar      4 PHE5        0.0000 
    114 CZ         56.6496   -9.7050    6.7197 C.ar      4 PHE5        0.0000 
    115 CZ         56.0708   -8.8088    5.6653 C.ar      4 PHE5        0.0000 
    116 CZ         55.4920   -7.9127    4.6108 C.ar      4 PHE5        0.0000 
    117 N          56.4273  -11.7863    9.3405 N.2       2 ALA2        0.0000 
    118 N          55.8484  -10.8901    8.2861 N.2       2 ALA2        0.0000 
    119 DU         55.2696   -9.9940    7.2316 H         6 CUB7        0.0000 
    120 N          54.6908   -9.0978    6.1772 N.2       2 ALA2        0.0000 
    121 CZ         54.1120   -8.2017    5.1227 C.ar      4 PHE5        0.0000 
    122 CZ         53.5331   -7.3055    4.0683 C.ar      4 PHE5        0.0000 
    123 N          53.8896  -10.2830    7.7435 N.2       2 ALA2        0.0000 
    124 N          53.3108   -9.3868    6.6891 N.2       2 ALA2        0.0000 
    125 N          52.7319   -8.4907    5.6347 N.2       2 ALA2        0.0000 
    126 CA         52.1531   -7.5945    4.5802 C.3       5 GLY6        0.0000 
    127 N          62.7170   -3.2187    0.3664 N.2       2 ALA2        0.0000 
    128 N          62.1382   -2.3225   -0.6880 N.2       2 ALA2        0.0000 
    129 N          61.9158   -4.4038    1.9328 N.2       2 ALA2        0.0000 
    130 OG         61.3370   -3.5077    0.8783 O.2       1 SER1        0.0000 
    131 OG         60.7582   -2.6115   -0.1761 O.2       1 SER1        0.0000 
    132 CA         60.1794   -1.7154   -1.2306 C.3       5 GLY6        0.0000 
    133 N          60.5358   -4.6928    2.4447 N.2       2 ALA2        0.0000 
    134 DU         59.9570   -3.7967    1.3903 H         6 CUB7        0.0000 
    135 N          59.3782   -2.9005    0.3358 N.2       2 ALA2        0.0000 
    136 N          58.7994   -2.0044   -0.7186 N.2       2 ALA2        0.0000 
    137 CA         59.1558   -4.9818    2.9566 C.3       5 GLY6        0.0000 
    138 CZ         58.5770   -4.0857    1.9022 C.ar      4 PHE5        0.0000 
    139 CZ         57.9982   -3.1895    0.8477 C.ar      4 PHE5        0.0000 
    140 O          58.9335   -7.0632    5.5774 O.2       2 ALA2        0.0000 
    141 CA         58.3547   -6.1670    4.5230 C.3       5 GLY6        0.0000 
    142 CZ         57.7758   -5.2708    3.4685 C.ar      4 PHE5        0.0000 
    143 CZ         57.5535   -7.3522    6.0893 C.ar      4 PHE5        0.0000 
    144 CZ         56.9746   -6.4560    5.0349 C.ar      4 PHE5        0.0000 
    145 N          57.3311   -9.4335    8.7102 N.2       2 ALA2        0.0000 
    146 N          56.7523   -8.5373    7.6557 N.2       2 ALA2        0.0000 
    147 N          56.1735   -7.6412    6.6013 N.2       2 ALA2        0.0000 
    148 CZ         55.5946   -6.7450    5.5468 C.ar      4 PHE5        0.0000 
    149 CZ         55.0158   -5.8489    4.4924 C.ar      4 PHE5        0.0000 
    150 NZ         57.5875   -7.8601   -2.8962 N.2       3 LYS4        0.0000 
    151 CA         57.0087   -6.9639   -3.9507 C.3       5 GLY6        0.0000 
    152 O          56.2075   -8.1491   -2.3843 O.2       2 ALA2        0.0000 
    153 CZ         58.3004  -13.8150    4.4543 C.ar      4 PHE5        0.0000 
    154 CZ         57.4992  -15.0002    6.0206 C.ar      4 PHE5        0.0000 
    155 DU         56.9204  -14.1040    4.9662 H         6 CUB7        0.0000 
    156 DU         56.3416  -13.2079    3.9117 H         6 CUB7        0.0000 
    157 CZ         56.1192  -15.2892    6.5326 C.ar      4 PHE5        0.0000 
    158 NZ         55.5404  -14.3930    5.4781 N.2       3 LYS4        0.0000 
    159 DU         54.9616  -13.4969    4.4237 H         6 CUB7        0.0000 
    160 NZ         53.5816  -13.7859    4.9356 N.2       3 LYS4        0.0000 
@<TRIPOS>BOND
@<TRIPOS>SUBSTRUCTURE
     1 SER1        4 GROUP   
     2 ALA2        2 GROUP   
     3 LYS4       27 GROUP   
     4 PHE5        1 GROUP   
     5 GLY6       15 GROUP   
     6 CUB7       25 GROUP   
@<TRIPOS>SET

