#    Name: 2C2B_7_CAVITY_N1_6.mol2
#    Modification time : Tue Mar 11 05:42:05 2014

@<TRIPOS>MOLECULE
2C2B_7_CAVITY_N1_6.mol2
  106     0     6     0     0
SMALL
NO_CHARGES


@<TRIPOS>ATOM
      1 CZ         52.7149   -8.2367   10.1274 C.ar      4 PHE5        0.0000 
      2 O          59.8373   -4.7104    4.9471 O.2       2 ALA2        0.0000 
      3 N          59.2585   -3.8142    3.8926 N.2       2 ALA2        0.0000 
      4 O          58.4573   -4.9994    5.4590 O.2       2 ALA2        0.0000 
      5 N          57.8785   -4.1032    4.4045 N.2       2 ALA2        0.0000 
      6 N          57.0773   -5.2884    5.9709 N.2       2 ALA2        0.0000 
      7 N          56.4985   -4.3922    4.9164 N.2       2 ALA2        0.0000 
      8 N          56.2761   -6.4735    7.5373 N.2       2 ALA2        0.0000 
      9 N          55.6973   -5.5774    6.4828 N.2       2 ALA2        0.0000 
     10 CZ         55.1185   -4.6812    5.4284 C.ar      4 PHE5        0.0000 
     11 CZ         54.5397   -3.7851    4.3739 C.ar      4 PHE5        0.0000 
     12 CA         56.0538   -8.5549   10.1581 C.3       5 GLY6        0.0000 
     13 N          55.4750   -7.6587    9.1036 N.2       2 ALA2        0.0000 
     14 N          54.8961   -6.7625    8.0492 N.2       2 ALA2        0.0000 
     15 CZ         54.3173   -5.8664    6.9947 C.ar      4 PHE5        0.0000 
     16 CZ         53.7385   -4.9702    5.9403 C.ar      4 PHE5        0.0000 
     17 OG         53.1597   -4.0741    4.8858 O.2       1 SER1        0.0000 
     18 O          54.6738   -8.8439   10.6700 O.2       2 ALA2        0.0000 
     19 O          54.0949   -7.9477    9.6155 O.2       2 ALA2        0.0000 
     20 CZ         53.5161   -7.0515    8.5611 C.ar      4 PHE5        0.0000 
     21 CA         58.2520   -7.3346    3.5870 C.3       5 GLY6        0.0000 
     22 CZ         57.6732   -6.4385    2.5325 C.ar      4 PHE5        0.0000 
     23 O          58.7766  -15.8788    4.5727 O.2       2 ALA2        0.0000 
     24 O          57.3965  -16.1678    5.0846 O.2       2 ALA2        0.0000 
     25 N          56.0165  -16.4568    5.5966 N.2       2 ALA2        0.0000 
     26 CA         55.9511   -9.7225    9.2221 C.3       5 GLY6        0.0000 
     27 N          55.3723   -8.8263    8.1676 N.2       2 ALA2        0.0000 
     28 DU         54.7935   -7.9302    7.1132 H         6 CUB7        0.0000 
     29 DU         54.2146   -7.0340    6.0587 H         6 CUB7        0.0000 
     30 CZ         53.6358   -6.1379    5.0043 C.ar      4 PHE5        0.0000 
     31 CZ         53.0570   -5.2417    3.9498 C.ar      4 PHE5        0.0000 
     32 CA         54.5711  -10.0115    9.7340 C.3       5 GLY6        0.0000 
     33 DU         53.9923   -9.1153    8.6795 H         6 CUB7        0.0000 
     34 CZ         53.4134   -8.2192    7.6251 C.ar      4 PHE5        0.0000 
     35 CZ         52.8346   -7.3230    6.5706 C.ar      4 PHE5        0.0000 
     36 CA         52.2558   -6.4269    5.5162 C.3       5 GLY6        0.0000 
     37 CA         52.0334   -8.5082    8.1370 C.3       5 GLY6        0.0000 
     38 N          51.4546   -7.6120    7.0826 N.2       2 ALA2        0.0000 
     39 CZ         58.1493   -8.5023    2.6510 C.ar      4 PHE5        0.0000 
     40 CZ         57.5705   -7.6061    1.5966 C.ar      4 PHE5        0.0000 
     41 CZ         57.3481   -9.6874    4.2174 C.ar      4 PHE5        0.0000 
     42 CZ         56.7693   -8.7913    3.1629 C.ar      4 PHE5        0.0000 
     43 CZ         57.7046  -12.6649    7.8926 C.ar      4 PHE5        0.0000 
     44 CZ         57.1258  -11.7688    6.8382 C.ar      4 PHE5        0.0000 
     45 CZ         56.5469  -10.8726    5.7837 C.ar      4 PHE5        0.0000 
     46 CZ         55.9681   -9.9764    4.7293 C.ar      4 PHE5        0.0000 
     47 CZ         55.3893   -9.0803    3.6748 C.ar      4 PHE5        0.0000 
     48 N          55.7457  -12.0578    7.3501 N.2       2 ALA2        0.0000 
     49 N          55.1669  -11.1616    6.2956 N.2       2 ALA2        0.0000 
     50 N          54.5881  -10.2655    5.2412 N.2       2 ALA2        0.0000 
     51 N          54.0093   -9.3693    4.1867 N.2       2 ALA2        0.0000 
     52 CZ         58.8478   -8.4848    0.1486 C.ar      4 PHE5        0.0000 
     53 CZ         58.0466   -9.6699    1.7150 C.ar      4 PHE5        0.0000 
     54 CZ         57.4678   -8.7738    0.6606 C.ar      4 PHE5        0.0000 
     55 CZ         57.2454  -10.8551    3.2814 C.ar      4 PHE5        0.0000 
     56 DU         56.6666   -9.9589    2.2269 H         6 CUB7        0.0000 
     57 CA         56.0878   -9.0628    1.1725 C.3       5 GLY6        0.0000 
     58 CZ         57.6019  -13.8326    6.9566 C.ar      4 PHE5        0.0000 
     59 CZ         57.0231  -12.9364    5.9022 C.ar      4 PHE5        0.0000 
     60 CZ         56.4443  -12.0402    4.8477 C.ar      4 PHE5        0.0000 
     61 CZ         55.8654  -11.1441    3.7933 C.ar      4 PHE5        0.0000 
     62 CA         55.2866  -10.2479    2.7388 C.3       5 GLY6        0.0000 
     63 CZ         56.2219  -14.1216    7.4685 C.ar      4 PHE5        0.0000 
     64 N          55.6431  -13.2254    6.4141 N.2       2 ALA2        0.0000 
     65 N          55.0642  -12.3292    5.3596 N.2       2 ALA2        0.0000 
     66 N          54.4854  -11.4331    4.3052 N.2       2 ALA2        0.0000 
     67 CA         53.9066  -10.5369    3.2508 C.3       5 GLY6        0.0000 
     68 N          54.2631  -13.5144    6.9260 N.2       2 ALA2        0.0000 
     69 N          53.6842  -12.6183    5.8716 N.2       2 ALA2        0.0000 
     70 CZ         57.4508   -8.5198    5.1534 C.ar      4 PHE5        0.0000 
     71 CZ         56.8720   -7.6236    4.0989 C.ar      4 PHE5        0.0000 
     72 CA         57.8073  -11.4973    8.8286 C.3       5 GLY6        0.0000 
     73 CZ         57.2284  -10.6011    7.7742 C.ar      4 PHE5        0.0000 
     74 CZ         56.6496   -9.7050    6.7197 C.ar      4 PHE5        0.0000 
     75 CZ         56.0708   -8.8088    5.6653 C.ar      4 PHE5        0.0000 
     76 CZ         55.4920   -7.9127    4.6108 C.ar      4 PHE5        0.0000 
     77 N          56.4273  -11.7863    9.3405 N.2       2 ALA2        0.0000 
     78 N          55.8484  -10.8901    8.2861 N.2       2 ALA2        0.0000 
     79 DU         55.2696   -9.9940    7.2316 H         6 CUB7        0.0000 
     80 N          54.6908   -9.0978    6.1772 N.2       2 ALA2        0.0000 
     81 CZ         54.1120   -8.2017    5.1227 C.ar      4 PHE5        0.0000 
     82 CZ         53.5331   -7.3055    4.0683 C.ar      4 PHE5        0.0000 
     83 N          53.8896  -10.2830    7.7435 N.2       2 ALA2        0.0000 
     84 N          53.3108   -9.3868    6.6891 N.2       2 ALA2        0.0000 
     85 N          52.7319   -8.4907    5.6347 N.2       2 ALA2        0.0000 
     86 CA         52.1531   -7.5945    4.5802 C.3       5 GLY6        0.0000 
     87 CA         59.1558   -4.9818    2.9566 C.3       5 GLY6        0.0000 
     88 CZ         58.5770   -4.0857    1.9022 C.ar      4 PHE5        0.0000 
     89 O          58.9335   -7.0632    5.5774 O.2       2 ALA2        0.0000 
     90 CA         58.3547   -6.1670    4.5230 C.3       5 GLY6        0.0000 
     91 CZ         57.7758   -5.2708    3.4685 C.ar      4 PHE5        0.0000 
     92 CZ         57.5535   -7.3522    6.0893 C.ar      4 PHE5        0.0000 
     93 CZ         56.9746   -6.4560    5.0349 C.ar      4 PHE5        0.0000 
     94 N          57.3311   -9.4335    8.7102 N.2       2 ALA2        0.0000 
     95 N          56.7523   -8.5373    7.6557 N.2       2 ALA2        0.0000 
     96 N          56.1735   -7.6412    6.6013 N.2       2 ALA2        0.0000 
     97 CZ         55.5946   -6.7450    5.5468 C.ar      4 PHE5        0.0000 
     98 CZ         55.0158   -5.8489    4.4924 C.ar      4 PHE5        0.0000 
     99 CZ         58.3004  -13.8150    4.4543 C.ar      4 PHE5        0.0000 
    100 CZ         57.4992  -15.0002    6.0206 C.ar      4 PHE5        0.0000 
    101 DU         56.9204  -14.1040    4.9662 H         6 CUB7        0.0000 
    102 DU         56.3416  -13.2079    3.9117 H         6 CUB7        0.0000 
    103 CZ         56.1192  -15.2892    6.5326 C.ar      4 PHE5        0.0000 
    104 NZ         55.5404  -14.3930    5.4781 N.2       3 LYS4        0.0000 
    105 DU         54.9616  -13.4969    4.4237 H         6 CUB7        0.0000 
    106 NZ         53.5816  -13.7859    4.9356 N.2       3 LYS4        0.0000 
@<TRIPOS>BOND
@<TRIPOS>SUBSTRUCTURE
     1 SER1       17 GROUP   
     2 ALA2        2 GROUP   
     3 LYS4      104 GROUP   
     4 PHE5        1 GROUP   
     5 GLY6       12 GROUP   
     6 CUB7       28 GROUP   
@<TRIPOS>SET

