#    Name: 2c2b_SAM_7_INTS_M
#    Modification time : Mon Mar 24 22:19:52 2014

@<TRIPOS>MOLECULE
2c2b_SAM_7_INTS_M
   56     0     9     0     0
SMALL
NO_CHARGES


@<TRIPOS>ATOM
      1 CA         58.6430  -12.9330    4.9180 C.3       3 GLC5        0.0000 
      2 CA         57.0610  -14.1730    4.3140 C.3       9 GLL5        0.0000 
      3 CA         60.2250  -11.6930    5.5220 C.3       6 GLP5        0.0000 
      4 CA         57.4185  -14.5005    7.3360 C.3       3 GLC5        0.0000 
      5 CA         56.3800  -13.9160    5.6660 C.3       9 GLL5        0.0000 
      6 CA         58.4570  -15.0850    9.0060 C.3       6 GLP5        0.0000 
      7 CA         57.7330  -10.9650    6.0535 C.3       3 GLC5        0.0000 
      8 CA         56.1640  -11.2500    6.5940 C.3       9 GLL5        0.0000 
      9 CA         59.3020  -10.6800    5.5130 C.3       6 GLP5        0.0000 
     10 CA         57.7430  -11.3980    9.7715 C.3       3 GLC5        0.0000 
     11 CA         56.8680  -11.9230    8.1210 C.3       9 GLL5        0.0000 
     12 CA         58.6180  -10.8730   11.4220 C.3       6 GLP5        0.0000 
     13 CA         58.0970  -10.7895    7.2990 C.3       3 GLC5        0.0000 
     14 CA         59.3260   -9.6560    6.4770 C.3       6 GLP5        0.0000 
     15 CA         58.2170  -13.1175    8.3960 C.3       3 GLC5        0.0000 
     16 CA         59.5660  -14.3120    8.6710 C.3       6 GLP5        0.0000 
     17 CA         52.9100  -11.2525    7.7005 C.3       3 GLC5        0.0000 
     18 CA         54.6800  -10.4030    7.1990 C.3       9 GLL5        0.0000 
     19 CA         51.1400  -12.1020    8.2020 C.3       6 GLP5        0.0000 
     20 CA         52.1430   -9.7750    8.1735 C.3       3 GLC5        0.0000 
     21 CA         53.8330   -8.6330    8.8330 C.3       9 GLL5        0.0000 
     22 CA         50.4530  -10.9170    7.5140 C.3       6 GLP5        0.0000 
     23 N          56.1975   -6.5320   10.9785 N.am      2 SEC2        0.0000 
     24 N          54.7990   -7.0030   10.3450 N.am      8 SEL2        0.0000 
     25 N          57.5960   -6.0610   11.6120 N.am      5 SEP2        0.0000 
     26 CA         53.8310   -5.5395    8.2705 C.3       3 GLC5        0.0000 
     27 CA         55.3350   -6.9660    7.9810 C.3       9 GLL5        0.0000 
     28 CA         52.3270   -4.1130    8.5600 C.3       6 GLP5        0.0000 
     29 CA         53.5230   -3.3280    6.5600 C.3       3 GLC5        0.0000 
     30 CA         53.4800   -5.1880    5.3540 C.3       9 GLL5        0.0000 
     31 CA         53.5660   -1.4680    7.7660 C.3       6 GLP5        0.0000 
     32 CA         51.5245   -5.5650    2.7470 C.3       3 GLC5        0.0000 
     33 CA         52.4140   -5.1470    4.4600 C.3       9 GLL5        0.0000 
     34 CA         50.6350   -5.9830    1.0340 C.3       6 GLP5        0.0000 
     35 CA         50.5505   -5.4100    5.3935 C.3       3 GLC5        0.0000 
     36 CA         48.6870   -5.6730    6.3270 C.3       6 GLP5        0.0000 
     37 CA         51.2470   -3.2325    4.6185 C.3       3 GLC5        0.0000 
     38 CA         50.0800   -1.3180    4.7770 C.3       6 GLP5        0.0000 
     39 O          52.8620   -2.6630    3.6400 O.2       1 ALC1        0.0000 
     40 O          52.2470   -4.0920    3.6710 O.2       7 ALL1        0.0000 
     41 O          53.4770   -1.2340    3.6090 O.2       4 ALP1        0.0000 
     42 O          50.8915   -4.2150    3.0375 O.2       1 ALC1        0.0000 
     43 O          49.5360   -4.3380    2.4040 O.2       4 ALP1        0.0000 
     44 N          50.0040   -6.0675    4.6405 N.am      2 SEC2        0.0000 
     45 N          51.5310   -6.2090    4.3820 N.am      8 SEL2        0.0000 
     46 N          48.4770   -5.9260    4.8990 N.am      5 SEP2        0.0000 
     47 CA         51.0810   -9.1120    6.3560 C.3       3 GLC5        0.0000 
     48 CA         51.7090   -7.3070    5.1980 C.3       9 GLL5        0.0000 
     49 CA         51.5755   -8.0220    3.4250 C.3       3 GLC5        0.0000 
     50 CA         51.4420   -8.7370    1.6520 C.3       6 GLP5        0.0000 
     51 CA         51.1720   -6.6450    3.1160 C.3       3 GLC5        0.0000 
     52 CA         50.1980   -6.4900    5.7625 C.3       3 GLC5        0.0000 
     53 CA         57.6068  -11.9960    5.6188 C.3       3 GLC5        0.0000 
     54 CA         55.4430  -12.7080    5.7830 C.3       9 GLL5        0.0000 
     55 CA         52.7400   -6.4897    8.9995 C.3       3 GLC5        0.0000 
     56 CA         51.4280   -5.0640    9.0570 C.3       6 GLP5        0.0000 
@<TRIPOS>BOND
@<TRIPOS>SUBSTRUCTURE
     1 ALC1       39 GROUP        1 X    ALC  0     ROOT ALC X 1
     2 SEC2       23 GROUP        1 X    SEC  0     **** SEC X 2
     3 GLC5        1 GROUP        1 X    GLC  0     **** GLC X 6
     4 ALP1       41 GROUP        1 Y    ALP  0     ROOT ALP Y 8
     5 SEP2       25 GROUP        1 Y    SEP  0     **** SEP Y 9
     6 GLP5        3 GROUP        1 Y    GLP  0     **** GLP Y 13
     7 ALL1       40 GROUP        1 Z    ALL  0     ROOT ALL Z 15
     8 SEL2       24 GROUP        1 Z    SEL  0     **** SEL Z 16
     9 GLL5        2 GROUP        1 Z    GLL  0     **** GLL Z 20
@<TRIPOS>SET

