#    Name: 2c2b_SAM_7_ligand
#    Modification time : Mon Mar 24 22:19:52 2014

@<TRIPOS>MOLECULE
2c2b_SAM_7_ligand
   50    52     1     0     0
SMALL
NO_CHARGES


@<TRIPOS>ATOM
      1 N          57.6920  -12.9400    3.7600 N.4       1 SAM500      0.0000 
      2 CA         57.0610  -14.1730    4.3140 C.3       1 SAM500      0.0000 
      3 C          56.1210  -14.8080    3.2890 C.2       1 SAM500      0.0000 
      4 O          56.4160  -15.8720    2.7410 O.co2     1 SAM500      0.0000 
      5 OXT        55.0550  -14.2760    2.9720 O.co2     1 SAM500      0.0000 
      6 CB         56.3800  -13.9160    5.6660 C.3       1 SAM500      0.0000 
      7 CG         55.4430  -12.7080    5.7830 C.3       1 SAM500      0.0000 
      8 SD         56.1640  -11.2500    6.5940 S.3       1 SAM500      0.0000 
      9 CE         56.8680  -11.9230    8.1210 C.3       1 SAM500      0.0000 
     10 C5'        54.6800  -10.4030    7.1990 C.3       1 SAM500      0.0000 
     11 C4'        55.0370   -9.2670    8.1490 C.3       1 SAM500      0.0000 
     12 O4'        55.6920   -8.2290    7.4440 O.3       1 SAM500      0.0000 
     13 C3'        53.8330   -8.6330    8.8330 C.3       1 SAM500      0.0000 
     14 O3'        53.5000   -9.2670   10.0460 O.3       1 SAM500      0.0000 
     15 C2'        54.2710   -7.1980    9.0510 C.3       1 SAM500      0.0000 
     16 O2'        54.7990   -7.0030   10.3450 O.3       1 SAM500      0.0000 
     17 C1'        55.3350   -6.9660    7.9810 C.3       1 SAM500      0.0000 
     18 N9         54.7670   -6.0750    6.9450 N.pl3     1 SAM500      0.0000 
     19 C8         55.2620   -4.8430    6.6010 C.2       1 SAM500      0.0000 
     20 N7         54.4750   -4.3160    5.6330 N.2       1 SAM500      0.0000 
     21 C5         53.4800   -5.1880    5.3540 C.ar      1 SAM500      0.0000 
     22 C6         52.4140   -5.1470    4.4600 C.ar      1 SAM500      0.0000 
     23 N6         52.2470   -4.0920    3.6710 N.pl3     1 SAM500      0.0000 
     24 N1         51.5310   -6.2090    4.3820 N.ar      1 SAM500      0.0000 
     25 C2         51.7090   -7.3070    5.1980 C.ar      1 SAM500      0.0000 
     26 N3         52.7710   -7.3330    6.0850 N.ar      1 SAM500      0.0000 
     27 C4         53.6480   -6.2990    6.1670 C.ar      1 SAM500      0.0000 
     28 H          57.8750  -14.9113    4.4996 H         1 SAM500      0.0000 
     29 H          57.1755  -13.8228    6.4482 H         1 SAM500      0.0000 
     30 H          55.8084  -14.8352    5.9520 H         1 SAM500      0.0000 
     31 H          54.5708  -12.9019    6.3941 H         1 SAM500      0.0000 
     32 H          55.1388  -12.3093    4.8237 H         1 SAM500      0.0000 
     33 H          54.1375  -11.1968    7.6636 H         1 SAM500      0.0000 
     34 H          54.2184  -10.0763    6.2932 H         1 SAM500      0.0000 
     35 H          55.6906   -9.6578    8.9270 H         1 SAM500      0.0000 
     36 H          53.0289   -8.6180    8.1190 H         1 SAM500      0.0000 
     37 H          53.4418   -6.5605    8.8253 H         1 SAM500      0.0000 
     38 H          56.1697   -6.4854    8.4575 H         1 SAM500      0.0000 
     39 H          56.0395   -4.4306    6.9887 H         1 SAM500      0.0000 
     40 H          51.4420   -4.1091    3.0779 H         1 SAM500      0.0000 
     41 H          52.9413   -3.3757    3.7412 H         1 SAM500      0.0000 
     42 H          51.0584   -8.1014    5.1491 H         1 SAM500      0.0000 
     43 H          58.3102  -12.5111    4.4187 H         1 SAM500      0.0000 
     44 H          58.2280  -13.1341    2.9384 H         1 SAM500      0.0000 
     45 H          57.0091  -12.2539    3.5091 H         1 SAM500      0.0000 
     46 H          57.5635  -12.6171    7.9350 H         1 SAM500      0.0000 
     47 H          57.3034  -11.2126    8.6739 H         1 SAM500      0.0000 
     48 H          56.1702  -12.3534    8.6935 H         1 SAM500      0.0000 
     49 H          52.5345   -9.0525   10.1935 H         1 SAM500      0.0000 
     50 H          54.6561   -7.8732   10.8165 H         1 SAM500      0.0000 
@<TRIPOS>BOND
     1    2    1 1    
     2   43    1 1    
     3   44    1 1    
     4   45    1 1    
     5    3    2 1    
     6    6    2 1    
     7   28    2 1    
     8    4    3 ar   
     9    5    3 ar   
    10    7    6 1    
    11   29    6 1    
    12   30    6 1    
    13    8    7 1    
    14   31    7 1    
    15   32    7 1    
    16    9    8 1    
    17   10    8 1    
    18   46    9 1    
    19   47    9 1    
    20   48    9 1    
    21   11   10 1    
    22   33   10 1    
    23   34   10 1    
    24   12   11 1    
    25   13   11 1    
    26   35   11 1    
    27   17   12 1    
    28   14   13 1    
    29   15   13 1    
    30   36   13 1    
    31   49   14 1    
    32   16   15 1    
    33   17   15 1    
    34   37   15 1    
    35   50   16 1    
    36   18   17 1    
    37   38   17 1    
    38   19   18 1    
    39   27   18 1    
    40   20   19 2    
    41   39   19 1    
    42   21   20 1    
    43   22   21 ar   
    44   27   21 ar   
    45   23   22 1    
    46   24   22 ar   
    47   40   23 1    
    48   41   23 1    
    49   25   24 ar   
    50   26   25 ar   
    51   42   25 1    
    52   27   26 ar   
@<TRIPOS>SUBSTRUCTURE
     1 SAM500      1 GROUP   
@<TRIPOS>SET

