#    Name: 2abi_1CA_2_INTS_M
#    Modification time : Mon Mar 24 18:56:54 2014

@<TRIPOS>MOLECULE
2abi_1CA_2_INTS_M
   78     0     9     0     0
SMALL
NO_CHARGES


@<TRIPOS>ATOM
      1 CA         45.9915   22.1630   15.1915 C.3       3 GLC5        0.0000 
      2 CA         44.8770   23.1160   13.5580 C.3       9 GLL5        0.0000 
      3 CA         47.1060   21.2100   16.8250 C.3       6 GLP5        0.0000 
      4 CA         41.4745   25.1110   11.6210 C.3       3 GLC5        0.0000 
      5 CA         42.6250   24.4220   12.9790 C.3       9 GLL5        0.0000 
      6 CA         40.3240   25.8000   10.2630 C.3       6 GLP5        0.0000 
      7 CA         42.7170   23.1940   11.5655 C.3       3 GLC5        0.0000 
      8 CA         42.8090   21.9660   10.1520 C.3       6 GLP5        0.0000 
      9 CA         41.6770   22.7935   12.2095 C.3       3 GLC5        0.0000 
     10 CA         41.9040   23.7070   14.0120 C.3       9 GLL5        0.0000 
     11 CA         41.4500   21.8800   10.4070 C.3       6 GLP5        0.0000 
     12 CA         40.3620   24.9180   12.2405 C.3       3 GLC5        0.0000 
     13 CA         40.4000   24.0360   14.2180 C.3       9 GLL5        0.0000 
     14 CA         40.4645   22.3245   12.3725 C.3       3 GLC5        0.0000 
     15 CA         39.4790   22.7690   14.3380 C.3       9 GLL5        0.0000 
     16 CA         37.3045   23.1175   14.6110 C.3       3 GLC5        0.0000 
     17 CA         35.1300   23.4660   14.8840 C.3       6 GLP5        0.0000 
     18 CA         43.9055   20.3890   16.5795 C.3       3 GLC5        0.0000 
     19 CA         42.0630   19.8920   15.7460 C.3       9 GLL5        0.0000 
     20 CA         45.7480   20.8860   17.4130 C.3       6 GLP5        0.0000 
     21 CA         42.0650   18.1515   14.3080 C.3       3 GLC5        0.0000 
     22 CA         41.0250   18.7350   15.8030 C.3       9 GLL5        0.0000 
     23 CA         43.1050   17.5680   12.8130 C.3       6 GLP5        0.0000 
     24 CA         37.9990   22.3605   17.1090 C.3       3 GLC5        0.0000 
     25 CA         37.4610   20.6230   15.8910 C.3       9 GLL5        0.0000 
     26 CA         38.5370   24.0980   18.3270 C.3       6 GLP5        0.0000 
     27 CA         36.2955   22.0445   15.3875 C.3       3 GLC5        0.0000 
     28 CA         40.7460   20.8785   19.4410 C.3       3 GLC5        0.0000 
     29 CA         39.8080   19.7450   18.0410 C.3       9 GLL5        0.0000 
     30 CA         41.6840   22.0120   20.8410 C.3       6 GLP5        0.0000 
     31 CA         39.2980   19.4150   19.7090 C.3       3 GLC5        0.0000 
     32 CA         38.7880   19.0850   21.3770 C.3       6 GLP5        0.0000 
     33 CA         44.3325   21.9240   16.9180 C.3       3 GLC5        0.0000 
     34 CA         42.9170   22.9620   16.4230 C.3       9 GLL5        0.0000 
     35 CA         42.8075   22.8910   18.3585 C.3       3 GLC5        0.0000 
     36 CA         42.6980   22.8200   20.2940 C.3       6 GLP5        0.0000 
     37 CA         41.3660   23.9265   16.9240 C.3       3 GLC5        0.0000 
     38 CA         39.8150   24.8910   17.4250 C.3       6 GLP5        0.0000 
     39 CA         38.4970   15.2625   14.7560 C.3       3 GLC5        0.0000 
     40 CA         38.7460   15.7380   16.6420 C.3       9 GLL5        0.0000 
     41 CA         38.2480   14.7870   12.8700 C.3       6 GLP5        0.0000 
     42 CA         36.6245   15.7620   15.9835 C.3       3 GLC5        0.0000 
     43 CA         34.5030   15.7860   15.3250 C.3       6 GLP5        0.0000 
     44 CA         37.5635   14.5415   18.0550 C.3       3 GLC5        0.0000 
     45 CA         36.3810   13.3450   19.4680 C.3       6 GLP5        0.0000 
     46 N          46.2200   24.5545   12.2625 N.am      2 SEC2        0.0000 
     47 N          44.6060   24.7720   11.9500 N.am      8 SEL2        0.0000 
     48 N          47.8340   24.3370   12.5750 N.am      5 SEP2        0.0000 
     49 N          45.2950   25.5225   11.1350 N.am      2 SEC2        0.0000 
     50 N          45.9840   26.2730   10.3200 N.am      5 SEP2        0.0000 
     51 N          40.6515   14.7095   17.7120 N.am      2 SEC2        0.0000 
     52 N          39.1910   14.7760   17.6260 N.am      8 SEL2        0.0000 
     53 N          42.1120   14.6430   17.7980 N.am      5 SEP2        0.0000 
     54 O          38.0655   14.7100   18.6540 O.2       1 ALC1        0.0000 
     55 O          39.1910   14.7760   17.6260 O.2       7 ALL1        0.0000 
     56 O          36.9400   14.6440   19.6820 O.2       4 ALP1        0.0000 
     57 CA         45.8025   21.8328   12.5090 C.3       3 GLC5        0.0000 
     58 CA         44.0090   21.9570   14.2000 C.3       9 GLL5        0.0000 
     59 CA         47.1620   21.1290   11.1390 C.3       6 GLP5        0.0000 
     60 CA         44.5250   21.5305   15.9800 C.3       3 GLC5        0.0000 
     61 CA         43.6260   22.2512   12.0155 C.3       3 GLC5        0.0000 
     62 CA         40.4835   24.3813   15.7700 C.3       3 GLC5        0.0000 
     63 CA         42.2391   25.2756   15.2449 C.3       3 GLC5        0.0000 
     64 CA         43.1460   26.5010   16.6330 C.3       6 GLP5        0.0000 
     65 CA         38.7722   24.2028   13.0975 C.3       3 GLC5        0.0000 
     66 CA         37.6050   25.0030   11.9170 C.3       6 GLP5        0.0000 
     67 CA         39.7758   23.5500   16.1373 C.3       3 GLC5        0.0000 
     68 CA         42.4545   19.0430   14.0697 C.3       3 GLC5        0.0000 
     69 CA         41.5450   21.1440   14.9070 C.3       9 GLL5        0.0000 
     70 CA         42.9510   24.5892   16.1457 C.3       3 GLC5        0.0000 
     71 CA         42.5950   22.3930   14.8940 C.3       9 GLL5        0.0000 
     72 CA         43.2170   18.0652   16.3257 C.3       3 GLC5        0.0000 
     73 CA         44.8900   16.8170   16.8770 C.3       6 GLP5        0.0000 
     74 CA         35.9785   17.8283   16.1962 C.3       3 GLC5        0.0000 
     75 CA         37.0350   19.1920   16.3140 C.3       9 GLL5        0.0000 
     76 CA         34.2760   16.9270   16.0890 C.3       6 GLP5        0.0000 
     77 CA         37.2921   19.0414   14.2709 C.3       3 GLC5        0.0000 
     78 CA         36.6250   18.4600   12.5500 C.3       6 GLP5        0.0000 
@<TRIPOS>BOND
@<TRIPOS>SUBSTRUCTURE
     1 ALC1       54 GROUP        1 X    ALC  0     ROOT ALC X 1
     2 SEC2       46 GROUP        1 X    SEC  0     **** SEC X 2
     3 GLC5        1 GROUP        1 X    GLC  0     **** GLC X 6
     4 ALP1       56 GROUP        1 Y    ALP  0     ROOT ALP Y 8
     5 SEP2       48 GROUP        1 Y    SEP  0     **** SEP Y 9
     6 GLP5        3 GROUP        1 Y    GLP  0     **** GLP Y 13
     7 ALL1       55 GROUP        1 Z    ALL  0     ROOT ALL Z 15
     8 SEL2       47 GROUP        1 Z    SEL  0     **** SEL Z 16
     9 GLL5        2 GROUP        1 Z    GLL  0     **** GLL Z 20
@<TRIPOS>SET

