#    Name: 2abi_1CA_2_ligand
#    Modification time : Mon Mar 24 18:56:54 2014

@<TRIPOS>MOLECULE
2abi_1CA_2_ligand
   54    57     1     0     0
SMALL
NO_CHARGES


@<TRIPOS>ATOM
      1 C1         44.0090   21.9570   14.2000 C.3       1 1CA2001     0.0000 
      2 C2         44.8770   23.1160   13.5580 C.3       1 1CA2001     0.0000 
      3 C3         44.0470   24.1810   12.7770 C.2       1 1CA2001     0.0000 
      4 C4         42.6250   24.4220   12.9790 C.2       1 1CA2001     0.0000 
      5 C5         41.9040   23.7070   14.0120 C.2       1 1CA2001     0.0000 
      6 C6         40.4000   24.0360   14.2180 C.3       1 1CA2001     0.0000 
      7 C7         39.4790   22.7690   14.3380 C.3       1 1CA2001     0.0000 
      8 C8         39.9940   21.6490   15.3610 C.3       1 1CA2001     0.0000 
      9 C9         41.5450   21.1440   14.9070 C.3       1 1CA2001     0.0000 
     10 C10        42.5950   22.3930   14.8940 C.3       1 1CA2001     0.0000 
     11 C11        42.0630   19.8920   15.7460 C.3       1 1CA2001     0.0000 
     12 C12        41.0250   18.7350   15.8030 C.3       1 1CA2001     0.0000 
     13 C13        39.5720   19.2600   16.4780 C.3       1 1CA2001     0.0000 
     14 C14        39.0140   20.4090   15.4690 C.3       1 1CA2001     0.0000 
     15 C15        37.4610   20.6230   15.8910 C.3       1 1CA2001     0.0000 
     16 C16        37.0350   19.1920   16.3140 C.3       1 1CA2001     0.0000 
     17 C17        38.3270   18.2670   16.2930 C.3       1 1CA2001     0.0000 
     18 C18        39.8080   19.7450   18.0410 C.3       1 1CA2001     0.0000 
     19 C19        42.9170   22.9620   16.4230 C.3       1 1CA2001     0.0000 
     20 C20        38.2900   17.0020   17.1640 C.2       1 1CA2001     0.0000 
     21 C21        38.7460   15.7380   16.6420 C.3       1 1CA2001     0.0000 
     22 O3         44.6060   24.7720   11.9500 O.2       1 1CA2001     0.0000 
     23 O20        37.9590   17.0620   18.3700 O.2       1 1CA2001     0.0000 
     24 O21        39.1910   14.7760   17.6260 O.3       1 1CA2001     0.0000 
     25 H          44.6038   21.4501   14.9718 H         1 1CA2001     0.0000 
     26 H          43.7723   21.2159   13.4247 H         1 1CA2001     0.0000 
     27 H          45.6031   22.6601   12.8779 H         1 1CA2001     0.0000 
     28 H          45.4288   23.6126   14.3619 H         1 1CA2001     0.0000 
     29 H          42.1434   25.0900   12.3956 H         1 1CA2001     0.0000 
     30 H          40.0478   24.6390   13.3743 H         1 1CA2001     0.0000 
     31 H          40.2866   24.6317   15.1301 H         1 1CA2001     0.0000 
     32 H          39.3844   22.3027   13.3517 H         1 1CA2001     0.0000 
     33 H          38.4810   23.0833   14.6611 H         1 1CA2001     0.0000 
     34 H          40.1149   22.0973   16.3284 H         1 1CA2001     0.0000 
     35 H          41.4337   20.8237   13.8559 H         1 1CA2001     0.0000 
     36 H          42.2820   20.2322   16.7550 H         1 1CA2001     0.0000 
     37 H          42.9791   19.5342   15.2830 H         1 1CA2001     0.0000 
     38 H          41.3696   17.9392   16.4311 H         1 1CA2001     0.0000 
     39 H          40.7827   18.3864   14.8200 H         1 1CA2001     0.0000 
     40 H          38.9836   19.8889   14.4823 H         1 1CA2001     0.0000 
     41 H          36.9397   20.9263   15.0420 H         1 1CA2001     0.0000 
     42 H          37.4394   21.2697   16.7070 H         1 1CA2001     0.0000 
     43 H          36.3295   18.8012   15.6140 H         1 1CA2001     0.0000 
     44 H          36.6480   19.2075   17.3092 H         1 1CA2001     0.0000 
     45 H          38.4068   17.9471   15.2027 H         1 1CA2001     0.0000 
     46 H          39.5761   15.9183   15.8991 H         1 1CA2001     0.0000 
     47 H          37.9288   15.2758   16.0159 H         1 1CA2001     0.0000 
     48 H          40.1588   19.0023   18.6114 H         1 1CA2001     0.0000 
     49 H          40.4650   20.4964   18.1015 H         1 1CA2001     0.0000 
     50 H          38.9592   20.0631   18.4633 H         1 1CA2001     0.0000 
     51 H          43.3603   22.2690   16.9915 H         1 1CA2001     0.0000 
     52 H          43.5235   23.7568   16.4034 H         1 1CA2001     0.0000 
     53 H          42.0829   23.2414   16.8986 H         1 1CA2001     0.0000 
     54 H          38.4695   14.7615   18.3183 H         1 1CA2001     0.0000 
@<TRIPOS>BOND
     1    2    1 1    
     2   10    1 1    
     3   25    1 1    
     4   26    1 1    
     5    3    2 1    
     6   27    2 1    
     7   28    2 1    
     8    4    3 1    
     9   22    3 2    
    10    5    4 2    
    11   29    4 1    
    12    6    5 1    
    13   10    5 1    
    14    7    6 1    
    15   30    6 1    
    16   31    6 1    
    17    8    7 1    
    18   32    7 1    
    19   33    7 1    
    20    9    8 1    
    21   14    8 1    
    22   34    8 1    
    23   10    9 1    
    24   11    9 1    
    25   35    9 1    
    26   19   10 1    
    27   12   11 1    
    28   36   11 1    
    29   37   11 1    
    30   13   12 1    
    31   38   12 1    
    32   39   12 1    
    33   14   13 1    
    34   17   13 1    
    35   18   13 1    
    36   15   14 1    
    37   40   14 1    
    38   16   15 1    
    39   41   15 1    
    40   42   15 1    
    41   17   16 1    
    42   43   16 1    
    43   44   16 1    
    44   20   17 1    
    45   45   17 1    
    46   48   18 1    
    47   49   18 1    
    48   50   18 1    
    49   51   19 1    
    50   52   19 1    
    51   53   19 1    
    52   21   20 1    
    53   23   20 2    
    54   24   21 1    
    55   46   21 1    
    56   47   21 1    
    57   54   24 1    
@<TRIPOS>SUBSTRUCTURE
     1 1CA2001     1 GROUP   
@<TRIPOS>SET

