#    Name: 2prg_BRL_2_INTS_M
#    Modification time : Mon Mar 24 19:19:07 2014

@<TRIPOS>MOLECULE
2prg_BRL_2_INTS_M
   63     0     6     0     0
SMALL
NO_CHARGES


@<TRIPOS>ATOM
      1 CA         58.2615   -9.3660   44.2685 C.3       2 GLC5        0.0000 
      2 CA         58.5760   -9.1220   42.3750 C.3       6 GLL5        0.0000 
      3 CA         57.9470   -9.6100   46.1620 C.3       4 GLP5        0.0000 
      4 N          58.5410  -12.0575   41.6205 N.am      1 SEC2        0.0000 
      5 N          58.3550  -11.6580   42.9660 N.am      5 SEL2        0.0000 
      6 N          58.7270  -12.4570   40.2750 N.am      3 SEP2        0.0000 
      7 N          54.8020   -7.8950   41.6970 N.am      1 SEC2        0.0000 
      8 N          54.8440   -9.3490   41.6150 N.am      5 SEL2        0.0000 
      9 N          54.7600   -6.4410   41.7790 N.am      3 SEP2        0.0000 
     10 N          53.8120   -9.8985   40.8750 N.am      1 SEC2        0.0000 
     11 N          52.7800  -10.4480   40.1350 N.am      3 SEP2        0.0000 
     12 CA         57.0150   -7.8935   43.6210 C.3       2 GLC5        0.0000 
     13 CA         57.0880   -8.4800   41.6310 C.3       6 GLL5        0.0000 
     14 CA         56.9420   -7.3070   45.6110 C.3       4 GLP5        0.0000 
     15 CA         55.4205   -7.3925   42.1955 C.3       2 GLC5        0.0000 
     16 CA         53.7530   -6.3050   42.7600 C.3       4 GLP5        0.0000 
     17 CA         57.4205   -8.0365   38.1240 C.3       2 GLC5        0.0000 
     18 CA         57.2650   -7.8610   40.1740 C.3       6 GLL5        0.0000 
     19 CA         57.5760   -8.2120   36.0740 C.3       4 GLP5        0.0000 
     20 CA         56.0910   -5.1770   39.0115 C.3       2 GLC5        0.0000 
     21 CA         57.6720   -5.2830   40.4390 C.3       6 GLL5        0.0000 
     22 CA         54.5100   -5.0710   37.5840 C.3       4 GLP5        0.0000 
     23 CA         60.0625   -4.8860   37.5205 C.3       2 GLC5        0.0000 
     24 CA         60.3450   -5.5850   39.4150 C.3       6 GLL5        0.0000 
     25 CA         59.7800   -4.1870   35.6260 C.3       4 GLP5        0.0000 
     26 CA         59.9250   -6.3095   41.3665 C.3       2 GLC5        0.0000 
     27 CA         59.4890   -6.7350   39.5050 C.3       6 GLL5        0.0000 
     28 CA         60.3610   -5.8840   43.2280 C.3       4 GLP5        0.0000 
     29 CA         61.9245   -3.8935   41.1335 C.3       2 GLC5        0.0000 
     30 CA         61.9290   -2.6440   39.5730 C.3       6 GLL5        0.0000 
     31 CA         61.9200   -5.1430   42.6940 C.3       4 GLP5        0.0000 
     32 CA         62.7505   -3.8290   38.2450 C.3       2 GLC5        0.0000 
     33 CA         63.5720   -5.0140   36.9170 C.3       4 GLP5        0.0000 
     34 CA         62.7055   -0.4130   38.1860 C.3       2 GLC5        0.0000 
     35 CA         62.1780   -1.1580   39.9550 C.3       6 GLL5        0.0000 
     36 CA         63.2330    0.3320   36.4170 C.3       4 GLP5        0.0000 
     37 CA         63.3500    0.1305   40.5885 C.3       2 GLC5        0.0000 
     38 CA         64.5220    1.4190   41.2220 C.3       4 GLP5        0.0000 
     39 CA         61.7355    1.8790   41.1805 C.3       2 GLC5        0.0000 
     40 CA         60.5980    0.4440   40.9590 C.3       6 GLL5        0.0000 
     41 CA         62.8730    3.3140   41.4020 C.3       4 GLP5        0.0000 
     42 CA         66.0475   -1.3325   43.8675 C.3       2 GLC5        0.0000 
     43 CA         63.9850   -1.8970   44.2690 C.3       6 GLL5        0.0000 
     44 CA         68.1100   -0.7680   43.4660 C.3       4 GLP5        0.0000 
     45 CA         59.0965   -7.3425   42.6155 C.3       2 GLC5        0.0000 
     46 CA         59.2921   -5.4639   41.7646 C.3       2 GLC5        0.0000 
     47 CA         58.1470   -6.5940   40.0300 C.3       6 GLL5        0.0000 
     48 CA         59.3720   -3.0663   38.3927 C.3       2 GLC5        0.0000 
     49 CA         58.5370   -4.1490   40.3680 C.3       6 GLL5        0.0000 
     50 CA         59.5370   -1.9250   36.6690 C.3       4 GLP5        0.0000 
     51 CA         61.0155   -5.0343   41.1670 C.3       2 GLC5        0.0000 
     52 CA         59.8770   -4.2660   39.8650 C.3       6 GLL5        0.0000 
     53 CA         61.6430   -6.3135   38.6615 C.3       2 GLC5        0.0000 
     54 CA         63.3690   -6.4670   37.8630 C.3       4 GLP5        0.0000 
     55 CA         60.7953   -1.9130   38.2165 C.3       2 GLC5        0.0000 
     56 CA         63.6875    0.0673   42.0315 C.3       2 GLC5        0.0000 
     57 CA         63.4820   -1.6550   42.9450 C.3       6 GLL5        0.0000 
     58 CA         61.5955   -2.3768   46.4258 C.3       2 GLC5        0.0000 
     59 CA         61.9870   -0.7140   45.1600 C.3       6 GLL5        0.0000 
     60 CA         60.5830   -3.6860   47.5730 C.3       4 GLP5        0.0000 
     61 CA         64.8358   -3.4145   43.9825 C.3       2 GLC5        0.0000 
     62 CA         65.9380   -5.0530   44.3580 C.3       4 GLP5        0.0000 
     63 CA         62.6695   -3.3669   43.1245 C.3       2 GLC5        0.0000 
@<TRIPOS>BOND
@<TRIPOS>SUBSTRUCTURE
     1 SEC2        4 GROUP        1 X    SEC  0     ROOT SEC X 2
     2 GLC5        1 GROUP        1 X    GLC  0     **** GLC X 6
     3 SEP2        6 GROUP        1 Y    SEP  0     ROOT SEP Y 9
     4 GLP5        3 GROUP        1 Y    GLP  0     **** GLP Y 13
     5 SEL2        5 GROUP        1 Z    SEL  0     ROOT SEL Z 16
     6 GLL5        2 GROUP        1 Z    GLL  0     **** GLL Z 20
@<TRIPOS>SET

