#    Name: 2prg_BRL_2_ligand
#    Modification time : Mon Mar 24 19:19:08 2014

@<TRIPOS>MOLECULE
2prg_BRL_2_ligand
   44    46     1     0     0
SMALL
NO_CHARGES


@<TRIPOS>ATOM
      1 S1         58.5760   -9.1220   42.3750 S.3       1 BRL2        0.0000 
      2 O2         58.3550  -11.6580   42.9660 O.2       1 BRL2        0.0000 
      3 O4         54.8440   -9.3490   41.6150 O.2       1 BRL2        0.0000 
      4 O13        60.5110   -3.0020   39.8750 O.3       1 BRL2        0.0000 
      5 N3         56.4500  -10.5740   42.5750 N.am      1 BRL2        0.0000 
      6 N16        61.6700   -0.5970   41.2800 N.pl3     1 BRL2        0.0000 
      7 N18        61.5500   -0.4960   43.8860 N.ar      1 BRL2        0.0000 
      8 C2         57.7540  -10.6060   42.7000 C.2       1 BRL2        0.0000 
      9 C4         56.0280   -9.5110   41.9100 C.2       1 BRL2        0.0000 
     10 C5         57.0880   -8.4800   41.6310 C.3       1 BRL2        0.0000 
     11 C6         57.2650   -7.8610   40.1740 C.3       1 BRL2        0.0000 
     12 C7         58.1470   -6.5940   40.0300 C.ar      1 BRL2        0.0000 
     13 C8         57.6720   -5.2830   40.4390 C.ar      1 BRL2        0.0000 
     14 C9         58.5370   -4.1490   40.3680 C.ar      1 BRL2        0.0000 
     15 C10        59.8770   -4.2660   39.8650 C.ar      1 BRL2        0.0000 
     16 C11        60.3450   -5.5850   39.4150 C.ar      1 BRL2        0.0000 
     17 C12        59.4890   -6.7350   39.5050 C.ar      1 BRL2        0.0000 
     18 C14        61.9290   -2.6440   39.5730 C.3       1 BRL2        0.0000 
     19 C15        62.1780   -1.1580   39.9550 C.3       1 BRL2        0.0000 
     20 C16        60.5980    0.4440   40.9590 C.3       1 BRL2        0.0000 
     21 C17        62.2240   -0.9140   42.7370 C.ar      1 BRL2        0.0000 
     22 C19        61.9870   -0.7140   45.1600 C.ar      1 BRL2        0.0000 
     23 C20        63.2290   -1.4210   45.3970 C.ar      1 BRL2        0.0000 
     24 C21        63.9850   -1.8970   44.2690 C.ar      1 BRL2        0.0000 
     25 C22        63.4820   -1.6550   42.9450 C.ar      1 BRL2        0.0000 
     26 H          55.8321  -11.2768   42.9417 H         1 BRL2        0.0000 
     27 H          56.8975   -7.6091   42.3522 H         1 BRL2        0.0000 
     28 H          56.2494   -7.6403   39.7826 H         1 BRL2        0.0000 
     29 H          57.6738   -8.6615   39.5218 H         1 BRL2        0.0000 
     30 H          56.7205   -5.1844   40.7747 H         1 BRL2        0.0000 
     31 H          58.1992   -3.2352   40.6803 H         1 BRL2        0.0000 
     32 H          61.2815   -5.6684   39.0405 H         1 BRL2        0.0000 
     33 H          59.8174   -7.6412   39.2044 H         1 BRL2        0.0000 
     34 H          62.1361   -2.7611   38.5157 H         1 BRL2        0.0000 
     35 H          62.6099   -3.2602   40.1486 H         1 BRL2        0.0000 
     36 H          63.2929   -0.9760   39.8933 H         1 BRL2        0.0000 
     37 H          61.7673   -0.5204   39.1155 H         1 BRL2        0.0000 
     38 H          61.4603   -0.3904   45.9791 H         1 BRL2        0.0000 
     39 H          63.5529   -1.5740   46.3336 H         1 BRL2        0.0000 
     40 H          64.8493   -2.3898   44.4057 H         1 BRL2        0.0000 
     41 H          63.9862   -1.9912   42.1331 H         1 BRL2        0.0000 
     42 H          60.9616    1.1928   40.4048 H         1 BRL2        0.0000 
     43 H          59.8348    0.0463   40.4498 H         1 BRL2        0.0000 
     44 H          60.2162    0.8518   41.7884 H         1 BRL2        0.0000 
@<TRIPOS>BOND
     1    8    1 1    
     2   10    1 1    
     3    8    2 2    
     4    9    3 2    
     5   15    4 1    
     6   18    4 1    
     7    8    5 am   
     8    9    5 am   
     9   26    5 1    
    10   19    6 1    
    11   20    6 1    
    12   21    6 1    
    13   21    7 ar   
    14   22    7 ar   
    15   10    9 1    
    16   11   10 1    
    17   27   10 1    
    18   12   11 1    
    19   28   11 1    
    20   29   11 1    
    21   13   12 ar   
    22   17   12 ar   
    23   14   13 ar   
    24   30   13 1    
    25   15   14 ar   
    26   31   14 1    
    27   16   15 ar   
    28   17   16 ar   
    29   32   16 1    
    30   33   17 1    
    31   19   18 1    
    32   34   18 1    
    33   35   18 1    
    34   36   19 1    
    35   37   19 1    
    36   42   20 1    
    37   43   20 1    
    38   44   20 1    
    39   25   21 ar   
    40   23   22 ar   
    41   38   22 1    
    42   24   23 ar   
    43   39   23 1    
    44   25   24 ar   
    45   40   24 1    
    46   41   25 1    
@<TRIPOS>SUBSTRUCTURE
     1 BRL2        1 GROUP   
@<TRIPOS>SET

