#    Name: 1yw1_FMN_1_INTS_M
#    Modification time : Tue Mar 25 11:16:54 2014

@<TRIPOS>MOLECULE
1yw1_FMN_1_INTS_M
   49     0     9     0     0
SMALL
NO_CHARGES


@<TRIPOS>ATOM
      1 N         -14.6145   64.6675   15.6025 N.am      2 SEC2        0.0000 
      2 N         -13.0640   64.1490   15.1180 N.am      8 SEL2        0.0000 
      3 N         -16.1650   65.1860   16.0870 N.am      5 SEP2        0.0000 
      4 O         -12.1415   66.6330   14.1700 O.2       1 ALC1        0.0000 
      5 O         -11.3600   65.5020   14.6450 O.2       7 ALL1        0.0000 
      6 O         -12.9230   67.7640   13.6950 O.2       4 ALP1        0.0000 
      7 N         -10.1305   68.0605   13.6840 N.am      2 SEC2        0.0000 
      8 N          -9.5140   66.7490   14.1660 N.am      8 SEL2        0.0000 
      9 N         -10.7470   69.3720   13.2020 N.am      5 SEP2        0.0000 
     10 CA         -1.3550   65.7400   16.8085 C.3       3 GLC5        0.0000 
     11 CA         -3.3540   65.0700   17.4650 C.3       9 GLL5        0.0000 
     12 CA          0.6440   66.4100   16.1520 C.3       6 GLP5        0.0000 
     13 CA         -3.0445   61.2480   19.1965 C.3       3 GLC5        0.0000 
     14 CA         -4.4730   62.5640   19.1840 C.3       9 GLL5        0.0000 
     15 CA         -1.6160   59.9320   19.2090 C.3       6 GLP5        0.0000 
     16 CA         -4.6200   62.5890   21.1410 C.3       3 GLC5        0.0000 
     17 CA         -4.7670   62.6140   23.0980 C.3       6 GLP5        0.0000 
     18 CA         -8.2645   57.3625   16.9895 C.3       3 GLC5        0.0000 
     19 CA         -9.2880   58.3660   18.5550 C.3       9 GLL5        0.0000 
     20 CA         -7.2410   56.3590   15.4240 C.3       6 GLP5        0.0000 
     21 CA         -7.9220   57.0905   19.2325 C.3       3 GLC5        0.0000 
     22 CA         -6.5560   55.8150   19.9100 C.3       6 GLP5        0.0000 
     23 N         -12.3675   53.8525   16.4190 N.am      2 SEC2        0.0000 
     24 N         -11.0870   54.7700   15.9540 N.am      8 SEL2        0.0000 
     25 N         -13.6480   52.9350   16.8840 N.am      5 SEP2        0.0000 
     26 N         -10.7085   55.0095   14.8445 N.am      2 SEC2        0.0000 
     27 N         -10.3300   55.2490   13.7350 N.am      5 SEP2        0.0000 
     28 N         -10.6800   53.2780   16.6020 N.am      2 SEC2        0.0000 
     29 N         -10.2730   51.7860   17.2500 N.am      5 SEP2        0.0000 
     30 N          -8.1565   55.0945   17.5320 N.am      2 SEC2        0.0000 
     31 N          -9.3440   54.9030   17.5100 N.am      8 SEL2        0.0000 
     32 N          -6.9690   55.2860   17.5540 N.am      5 SEP2        0.0000 
     33 N          -8.6055   55.2715   18.9650 N.am      2 SEC2        0.0000 
     34 N          -7.8670   55.6400   20.4200 N.am      5 SEP2        0.0000 
     35 N          -8.7370   54.0015   18.2065 N.am      2 SEC2        0.0000 
     36 N          -8.1300   53.1000   18.9030 N.am      5 SEP2        0.0000 
     37 N          -9.8085   53.3445   17.3800 N.am      2 SEC2        0.0000 
     38 N         -12.7385   53.9100   17.5645 N.am      2 SEC2        0.0000 
     39 N         -11.8290   54.8850   18.2450 N.am      8 SEL2        0.0000 
     40 CA         -6.9595   62.4827   15.8290 C.3       3 GLC5        0.0000 
     41 CA         -7.4750   63.6020   17.2120 C.3       9 GLL5        0.0000 
     42 CA         -6.6750   60.8030   14.7930 C.3       6 GLP5        0.0000 
     43 CA         -3.3010   63.6751   16.4654 C.3       3 GLC5        0.0000 
     44 CA         -2.3260   62.4310   15.6820 C.3       6 GLP5        0.0000 
     45 CA         -6.2880   61.9485   16.4300 C.3       3 GLC5        0.0000 
     46 CA         -5.2320   63.2970   18.1220 C.3       9 GLL5        0.0000 
     47 CA         -3.5892   62.6808   17.1675 C.3       3 GLC5        0.0000 
     48 CA         -8.0047   61.1662   16.2550 C.3       3 GLC5        0.0000 
     49 CA         -9.3360   62.2370   18.0030 C.3       9 GLL5        0.0000 
@<TRIPOS>BOND
@<TRIPOS>SUBSTRUCTURE
     1 ALC1        4 GROUP        1 X    ALC  0     ROOT ALC X 1
     2 SEC2        1 GROUP        1 X    SEC  0     **** SEC X 2
     3 GLC5       10 GROUP        1 X    GLC  0     **** GLC X 6
     4 ALP1        6 GROUP        1 Y    ALP  0     ROOT ALP Y 8
     5 SEP2        3 GROUP        1 Y    SEP  0     **** SEP Y 9
     6 GLP5       12 GROUP        1 Y    GLP  0     **** GLP Y 13
     7 ALL1        5 GROUP        1 Z    ALL  0     ROOT ALL Z 15
     8 SEL2        2 GROUP        1 Z    SEL  0     **** SEL Z 16
     9 GLL5       11 GROUP        1 Z    GLL  0     **** GLL Z 20
@<TRIPOS>SET

