#    Name: 1yw1_FMN_1_ligand
#    Modification time : Tue Mar 25 11:16:54 2014

@<TRIPOS>MOLECULE
1yw1_FMN_1_ligand
   50    52     1     0     0
SMALL
NO_CHARGES


@<TRIPOS>ATOM
      1 N1        -11.0440   63.6410   16.0990 N.2       1 FMN2606     0.0000 
      2 C2        -11.8700   64.4040   15.2930 C.2       1 FMN2606     0.0000 
      3 O2        -13.0640   64.1490   15.1180 O.2       1 FMN2606     0.0000 
      4 N3        -11.3600   65.5020   14.6450 N.am      1 FMN2606     0.0000 
      5 C4        -10.0370   65.8340   14.7950 C.2       1 FMN2606     0.0000 
      6 O4         -9.5140   66.7490   14.1660 O.2       1 FMN2606     0.0000 
      7 C4A        -9.2030   65.0750   15.5930 C.2       1 FMN2606     0.0000 
      8 N5         -7.8780   65.4500   15.7100 N.2       1 FMN2606     0.0000 
      9 C5A        -7.0130   64.7230   16.5180 C.ar      1 FMN2606     0.0000 
     10 C6         -5.6640   65.1100   16.6360 C.ar      1 FMN2606     0.0000 
     11 C7         -4.7320   64.4270   17.4290 C.ar      1 FMN2606     0.0000 
     12 C7M        -3.3540   65.0700   17.4650 C.3       1 FMN2606     0.0000 
     13 C8         -5.2320   63.2970   18.1220 C.ar      1 FMN2606     0.0000 
     14 C8M        -4.4730   62.5640   19.1840 C.3       1 FMN2606     0.0000 
     15 C9         -6.5700   62.8910   18.0120 C.ar      1 FMN2606     0.0000 
     16 C9A        -7.4750   63.6020   17.2120 C.ar      1 FMN2606     0.0000 
     17 N10        -8.8020   63.2540   17.0570 N.pl3     1 FMN2606     0.0000 
     18 C10        -9.6990   63.9650   16.2640 C.2       1 FMN2606     0.0000 
     19 C1'        -9.3360   62.2370   18.0030 C.3       1 FMN2606     0.0000 
     20 C2'        -9.3330   60.8220   17.4310 C.3       1 FMN2606     0.0000 
     21 O2'       -10.4980   60.7780   16.6000 O.3       1 FMN2606     0.0000 
     22 C3'        -9.1390   59.8990   18.6680 C.3       1 FMN2606     0.0000 
     23 O3'        -7.8650   60.1450   19.2660 O.3       1 FMN2606     0.0000 
     24 C4'        -9.2880   58.3660   18.5550 C.3       1 FMN2606     0.0000 
     25 O4'        -8.4450   57.8360   17.5480 O.3       1 FMN2606     0.0000 
     26 C5'       -10.7050   57.8030   18.3840 C.3       1 FMN2606     0.0000 
     27 O5'       -10.8450   56.9710   17.2440 O.3       1 FMN2606     0.0000 
     28 P         -10.7590   55.3620   17.2910 P.3       1 FMN2606     0.0000 
     29 O1P       -11.0870   54.7700   15.9540 O.co2     1 FMN2606     0.0000 
     30 O2P        -9.3440   54.9030   17.5100 O.co2     1 FMN2606     0.0000 
     31 O3P       -11.8290   54.8850   18.2450 O.co2     1 FMN2606     0.0000 
     32 H         -11.9733   66.0785   14.0440 H         1 FMN2606     0.0000 
     33 H          -5.3434   65.9526   16.1021 H         1 FMN2606     0.0000 
     34 H          -6.8920   62.0579   18.5269 H         1 FMN2606     0.0000 
     35 H         -10.3707   62.4953   18.2879 H         1 FMN2606     0.0000 
     36 H          -8.7400   62.2384   18.9321 H         1 FMN2606     0.0000 
     37 H          -8.4094   60.7793   16.8352 H         1 FMN2606     0.0000 
     38 H          -9.9114   60.2270   19.4320 H         1 FMN2606     0.0000 
     39 H          -8.9188   57.9510   19.5498 H         1 FMN2606     0.0000 
     40 H         -11.3984   58.6714   18.3458 H         1 FMN2606     0.0000 
     41 H         -10.9554   57.2600   19.3215 H         1 FMN2606     0.0000 
     42 H          -2.7196   64.5567   18.0430 H         1 FMN2606     0.0000 
     43 H          -2.9444   65.1217   16.5542 H         1 FMN2606     0.0000 
     44 H          -3.3886   66.0026   17.8242 H         1 FMN2606     0.0000 
     45 H          -3.6113   62.1943   18.8365 H         1 FMN2606     0.0000 
     46 H          -4.2470   63.1581   19.9560 H         1 FMN2606     0.0000 
     47 H          -4.9959   61.7941   19.5499 H         1 FMN2606     0.0000 
     48 H         -10.9090   61.6859   16.6824 H         1 FMN2606     0.0000 
     49 H          -7.2131   59.6348   18.7050 H         1 FMN2606     0.0000 
     50 H          -8.7023   56.8723   17.4760 H         1 FMN2606     0.0000 
@<TRIPOS>BOND
     1    2    1 1    
     2   18    1 2    
     3    3    2 2    
     4    4    2 am   
     5    5    4 am   
     6   32    4 1    
     7    6    5 2    
     8    7    5 1    
     9    8    7 2    
    10   18    7 1    
    11    9    8 1    
    12   10    9 ar   
    13   16    9 ar   
    14   11   10 ar   
    15   33   10 1    
    16   12   11 1    
    17   13   11 ar   
    18   42   12 1    
    19   43   12 1    
    20   44   12 1    
    21   14   13 1    
    22   15   13 ar   
    23   45   14 1    
    24   46   14 1    
    25   47   14 1    
    26   16   15 ar   
    27   34   15 1    
    28   17   16 1    
    29   18   17 1    
    30   19   17 1    
    31   20   19 1    
    32   35   19 1    
    33   36   19 1    
    34   21   20 1    
    35   22   20 1    
    36   37   20 1    
    37   48   21 1    
    38   23   22 1    
    39   24   22 1    
    40   38   22 1    
    41   49   23 1    
    42   25   24 1    
    43   26   24 1    
    44   39   24 1    
    45   50   25 1    
    46   27   26 1    
    47   40   26 1    
    48   41   26 1    
    49   28   27 1    
    50   29   28 ar   
    51   30   28 ar   
    52   31   28 ar   
@<TRIPOS>SUBSTRUCTURE
     1 FMN2606     1 GROUP   
@<TRIPOS>SET

