#    Name: 2w3a_TOP_2_INTS_M
#    Modification time : Tue Mar 25 03:33:53 2014

@<TRIPOS>MOLECULE
2w3a_TOP_2_INTS_M
   50     0     9     0     0
SMALL
NO_CHARGES


@<TRIPOS>ATOM
      1 CA         26.5750   41.3925   17.5480 C.3       3 GLC5        0.0000 
      2 CA         27.4900   42.7490   18.7270 C.3       9 GLL5        0.0000 
      3 CA         25.6600   40.0360   16.3690 C.3       6 GLP5        0.0000 
      4 N          27.5325   43.1500   16.5120 N.am      2 SEC2        0.0000 
      5 N          26.8180   43.2450   17.6700 N.am      8 SEL2        0.0000 
      6 N          28.2470   43.0550   15.3540 N.am      5 SEP2        0.0000 
      7 CA         23.8780   44.9685   17.9835 C.3       3 GLC5        0.0000 
      8 CA         25.5300   43.6780   17.7860 C.3       9 GLL5        0.0000 
      9 CA         22.2260   46.2590   18.1810 C.3       6 GLP5        0.0000 
     10 CA         23.7780   42.7140   18.4195 C.3       3 GLC5        0.0000 
     11 CA         22.0260   41.7500   19.0530 C.3       6 GLP5        0.0000 
     12 CA         25.5950   41.8570   17.0775 C.3       3 GLC5        0.0000 
     13 CA         26.4370   45.5090   17.9575 C.3       3 GLC5        0.0000 
     14 CA         27.3440   47.3400   18.1290 C.3       6 GLP5        0.0000 
     15 O          25.6165   43.9165   15.5305 O.2       1 ALC1        0.0000 
     16 O          24.8750   44.1280   16.7120 O.2       7 ALL1        0.0000 
     17 O          26.3580   43.7050   14.3490 O.2       4 ALP1        0.0000 
     18 CA         23.7720   42.4835   19.5720 C.3       3 GLC5        0.0000 
     19 CA         25.5180   43.2170   20.0910 C.3       9 GLL5        0.0000 
     20 O          23.2710   43.4790   21.1495 O.2       1 ALC1        0.0000 
     21 O          24.8680   43.2380   21.2470 O.2       7 ALL1        0.0000 
     22 O          21.6740   43.7200   21.0520 O.2       4 ALP1        0.0000 
     23 CA         28.5075   40.3120   21.1685 C.3       3 GLC5        0.0000 
     24 CA         27.6780   42.1890   21.1630 C.3       9 GLL5        0.0000 
     25 CA         29.3370   38.4350   21.1740 C.3       6 GLP5        0.0000 
     26 CA         26.7150   40.7495   21.8265 C.3       3 GLC5        0.0000 
     27 CA         25.7520   39.3100   22.4900 C.3       6 GLP5        0.0000 
     28 CA         30.3535   41.5185   20.4840 C.3       3 GLC5        0.0000 
     29 CA         29.8430   43.3550   21.2740 C.3       9 GLL5        0.0000 
     30 CA         30.8640   39.6820   19.6940 C.3       6 GLP5        0.0000 
     31 CA         31.7260   41.6515   20.0785 C.3       3 GLC5        0.0000 
     32 CA         32.5880   43.6210   20.4630 C.3       9 GLL5        0.0000 
     33 CA         32.3635   45.2830   19.7830 C.3       3 GLC5        0.0000 
     34 CA         32.1390   46.9450   19.1030 C.3       6 GLP5        0.0000 
     35 CA         31.6040   47.5075   21.9095 C.3       3 GLC5        0.0000 
     36 CA         30.7570   47.1840   23.6790 C.3       9 GLL5        0.0000 
     37 CA         32.4510   47.8310   20.1400 C.3       6 GLP5        0.0000 
     38 CA         29.2740   47.6310   22.7425 C.3       3 GLC5        0.0000 
     39 CA         27.7910   48.0780   21.8060 C.3       6 GLP5        0.0000 
     40 CA         30.6830   48.1160   24.8700 C.3       3 GLC5        0.0000 
     41 CA         30.6090   49.0480   26.0610 C.3       6 GLP5        0.0000 
     42 CA         27.2065   46.0550   24.0625 C.3       3 GLC5        0.0000 
     43 CA         27.6860   44.6680   25.7490 C.3       9 GLL5        0.0000 
     44 CA         26.7270   47.4420   22.3760 C.3       6 GLP5        0.0000 
     45 CA         26.9685   43.4155   26.8800 C.3       3 GLC5        0.0000 
     46 CA         26.2510   42.1630   28.0110 C.3       6 GLP5        0.0000 
     47 CA         28.8365   45.1900   27.2290 C.3       3 GLC5        0.0000 
     48 CA         29.9870   45.7120   28.7090 C.3       6 GLP5        0.0000 
     49 CA         25.8265   45.3660   26.0295 C.3       3 GLC5        0.0000 
     50 CA         23.9670   46.0640   26.3100 C.3       6 GLP5        0.0000 
@<TRIPOS>BOND
@<TRIPOS>SUBSTRUCTURE
     1 ALC1       15 GROUP        1 X    ALC  0     ROOT ALC X 1
     2 SEC2        4 GROUP        1 X    SEC  0     **** SEC X 2
     3 GLC5        1 GROUP        1 X    GLC  0     **** GLC X 6
     4 ALP1       17 GROUP        1 Y    ALP  0     ROOT ALP Y 8
     5 SEP2        6 GROUP        1 Y    SEP  0     **** SEP Y 9
     6 GLP5        3 GROUP        1 Y    GLP  0     **** GLP Y 13
     7 ALL1       16 GROUP        1 Z    ALL  0     ROOT ALL Z 15
     8 SEL2        5 GROUP        1 Z    SEL  0     **** SEL Z 16
     9 GLL5        2 GROUP        1 Z    GLL  0     **** GLL Z 20
@<TRIPOS>SET

