#    Name: 2w3a_TOP_2_ligand
#    Modification time : Tue Mar 25 03:33:53 2014

@<TRIPOS>MOLECULE
2w3a_TOP_2_ligand
   39    40     1     0     0
SMALL
NO_CHARGES


@<TRIPOS>ATOM
      1 C1         27.4900   42.7490   18.7270 C.ar      1 TOP1189     0.0000 
      2 N2         26.8180   43.2450   17.6700 N.ar      1 TOP1189     0.0000 
      3 C3         25.5300   43.6780   17.7860 C.ar      1 TOP1189     0.0000 
      4 N4         24.8750   44.1280   16.7120 N.pl3     1 TOP1189     0.0000 
      5 N5         24.8930   43.6650   18.9810 N.ar      1 TOP1189     0.0000 
      6 C6         25.5180   43.2170   20.0910 C.ar      1 TOP1189     0.0000 
      7 N7         24.8680   43.2380   21.2470 N.pl3     1 TOP1189     0.0000 
      8 C8         26.9110   42.7470   19.9810 C.ar      1 TOP1189     0.0000 
      9 C9         27.6780   42.1890   21.1630 C.3       1 TOP1189     0.0000 
     10 C10        28.5700   43.1790   21.8330 C.ar      1 TOP1189     0.0000 
     11 C11        29.8430   43.3550   21.2740 C.ar      1 TOP1189     0.0000 
     12 C12        30.7240   44.2450   21.8840 C.ar      1 TOP1189     0.0000 
     13 O13        31.9840   44.4920   21.4100 O.3       1 TOP1189     0.0000 
     14 C14        32.5880   43.6210   20.4630 C.3       1 TOP1189     0.0000 
     15 C15        30.3020   44.9560   23.1140 C.ar      1 TOP1189     0.0000 
     16 O16        31.1790   45.8290   23.7060 O.3       1 TOP1189     0.0000 
     17 C17        30.7570   47.1840   23.6790 C.3       1 TOP1189     0.0000 
     18 C18        28.9510   44.7210   23.6730 C.ar      1 TOP1189     0.0000 
     19 O19        28.5560   45.3440   24.8390 O.3       1 TOP1189     0.0000 
     20 C20        27.6860   44.6680   25.7490 C.3       1 TOP1189     0.0000 
     21 C21        28.1360   43.8080   23.0120 C.ar      1 TOP1189     0.0000 
     22 H          28.4480   42.3631   18.6143 H         1 TOP1189     0.0000 
     23 H          25.3710   44.0862   15.8447 H         1 TOP1189     0.0000 
     24 H          23.9476   44.4662   16.8719 H         1 TOP1189     0.0000 
     25 H          25.4337   43.3079   22.0686 H         1 TOP1189     0.0000 
     26 H          23.8710   43.1821   21.1924 H         1 TOP1189     0.0000 
     27 H          28.2780   41.3233   20.8181 H         1 TOP1189     0.0000 
     28 H          26.9518   41.7875   21.8978 H         1 TOP1189     0.0000 
     29 H          30.1145   42.8413   20.4395 H         1 TOP1189     0.0000 
     30 H          27.2012   43.5860   23.3868 H         1 TOP1189     0.0000 
     31 H          33.5060   43.9265   20.2100 H         1 TOP1189     0.0000 
     32 H          32.6763   42.6903   20.8179 H         1 TOP1189     0.0000 
     33 H          32.0552   43.5634   19.6187 H         1 TOP1189     0.0000 
     34 H          31.4199   47.7883   24.1210 H         1 TOP1189     0.0000 
     35 H          30.6352   47.5165   22.7438 H         1 TOP1189     0.0000 
     36 H          29.8846   47.3108   24.1511 H         1 TOP1189     0.0000 
     37 H          28.0875   43.8150   26.0824 H         1 TOP1189     0.0000 
     38 H          27.4799   45.2282   26.5513 H         1 TOP1189     0.0000 
     39 H          26.8122   44.4337   25.3228 H         1 TOP1189     0.0000 
@<TRIPOS>BOND
     1    2    1 ar   
     2    8    1 ar   
     3   22    1 1    
     4    3    2 ar   
     5    4    3 1    
     6    5    3 ar   
     7   23    4 1    
     8   24    4 1    
     9    6    5 ar   
    10    7    6 1    
    11    8    6 ar   
    12   25    7 1    
    13   26    7 1    
    14    9    8 1    
    15   10    9 1    
    16   27    9 1    
    17   28    9 1    
    18   11   10 ar   
    19   21   10 ar   
    20   12   11 ar   
    21   29   11 1    
    22   13   12 1    
    23   15   12 ar   
    24   14   13 1    
    25   31   14 1    
    26   32   14 1    
    27   33   14 1    
    28   16   15 1    
    29   18   15 ar   
    30   17   16 1    
    31   34   17 1    
    32   35   17 1    
    33   36   17 1    
    34   19   18 1    
    35   21   18 ar   
    36   20   19 1    
    37   37   20 1    
    38   38   20 1    
    39   39   20 1    
    40   30   21 1    
@<TRIPOS>SUBSTRUCTURE
     1 TOP1189     1 GROUP   
@<TRIPOS>SET

