#    Name: 3jsi_WTC_1_INTS_M
#    Modification time : Tue Mar 25 17:51:22 2014

@<TRIPOS>MOLECULE
3jsi_WTC_1_INTS_M
   49     0     9     0     0
SMALL
NO_CHARGES


@<TRIPOS>ATOM
      1 O          74.4065   54.0820   44.4485 O.2       1 ALC1        0.0000 
      2 O          75.3000   53.2910   43.8860 O.2       7 ALL1        0.0000 
      3 O          73.5130   54.8730   45.0110 O.2       4 ALP1        0.0000 
      4 CA         78.6285   53.4805   41.2655 C.3       3 GLC5        0.0000 
      5 CA         78.8480   51.5190   40.5150 C.3       9 GLL5        0.0000 
      6 CA         78.4090   55.4420   42.0160 C.3       6 GLP5        0.0000 
      7 CA         78.7405   48.7750   41.5400 C.3       3 GLC5        0.0000 
      8 CA         78.8160   50.0850   39.9730 C.3       9 GLL5        0.0000 
      9 CA         78.6650   47.4650   43.1070 C.3       6 GLP5        0.0000 
     10 CA         77.0830   49.6765   41.2850 C.3       3 GLC5        0.0000 
     11 CA         75.3500   49.2680   42.5970 C.3       6 GLP5        0.0000 
     12 CA         81.6830   52.4865   42.0085 C.3       3 GLC5        0.0000 
     13 CA         80.2920   52.0400   40.3260 C.3       9 GLL5        0.0000 
     14 CA         83.0740   52.9330   43.6910 C.3       6 GLP5        0.0000 
     15 CA         80.5330   53.7490   40.8285 C.3       3 GLC5        0.0000 
     16 CA         80.7740   55.4580   41.3310 C.3       6 GLP5        0.0000 
     17 CA         79.6110   53.7500   39.1280 C.3       3 GLC5        0.0000 
     18 CA         78.9300   55.4600   37.9300 C.3       6 GLP5        0.0000 
     19 N          75.1260   53.6445   46.4915 N.am      2 SEC2        0.0000 
     20 N          76.2510   52.6230   45.8100 N.am      8 SEL2        0.0000 
     21 N          74.0010   54.6660   47.1730 N.am      5 SEP2        0.0000 
     22 CA         73.8550   52.2630   41.7215 C.3       3 GLC5        0.0000 
     23 CA         74.2110   54.0610   41.8070 C.3       9 GLL5        0.0000 
     24 CA         73.4990   50.4650   41.6360 C.3       6 GLP5        0.0000 
     25 CA         75.5145   60.0675   41.1980 C.3       3 GLC5        0.0000 
     26 CA         75.3420   58.1430   41.0580 C.3       9 GLL5        0.0000 
     27 CA         75.6870   61.9920   41.3380 C.3       6 GLP5        0.0000 
     28 CA         75.9190   59.6230   42.4555 C.3       3 GLC5        0.0000 
     29 CA         75.3430   57.6470   42.3520 C.3       9 GLL5        0.0000 
     30 CA         76.4950   61.5990   42.5590 C.3       6 GLP5        0.0000 
     31 CA         77.8882   53.7880   42.5617 C.3       3 GLC5        0.0000 
     32 CA         77.3450   52.1930   42.4050 C.3       9 GLL5        0.0000 
     33 CA         78.8872   48.4885   38.7260 C.3       3 GLC5        0.0000 
     34 CA         78.3470   46.9340   37.9460 C.3       6 GLP5        0.0000 
     35 CA         73.0113   56.6725   41.3028 C.3       3 GLC5        0.0000 
     36 CA         74.6060   55.4950   41.5470 C.3       9 GLL5        0.0000 
     37 CA         71.4150   57.6010   41.7050 C.3       6 GLP5        0.0000 
     38 CA         76.6005   56.0472   41.0740 C.3       3 GLC5        0.0000 
     39 CA         74.6090   55.9930   40.2540 C.3       9 GLL5        0.0000 
     40 CA         73.6587   58.9592   39.7790 C.3       3 GLC5        0.0000 
     41 CA         74.9750   57.3120   40.0100 C.3       9 GLL5        0.0000 
     42 CA         72.1590   60.1910   39.0240 C.3       6 GLP5        0.0000 
     43 CA         73.2867   57.6642   41.1195 C.3       3 GLC5        0.0000 
     44 CA         76.8758   56.6685   41.8605 C.3       3 GLC5        0.0000 
     45 CA         75.2338   57.6470   44.3552 C.3       3 GLC5        0.0000 
     46 CA         75.3100   58.3060   46.2370 C.3       6 GLP5        0.0000 
     47 CA         73.2862   57.2945   42.0892 C.3       3 GLC5        0.0000 
     48 CA         76.5496   55.4977   42.0760 C.3       3 GLC5        0.0000 
     49 CA         74.9720   56.3290   42.5950 C.3       9 GLL5        0.0000 
@<TRIPOS>BOND
@<TRIPOS>SUBSTRUCTURE
     1 ALC1        1 GROUP        1 X    ALC  0     ROOT ALC X 1
     2 SEC2       19 GROUP        1 X    SEC  0     **** SEC X 2
     3 GLC5        4 GROUP        1 X    GLC  0     **** GLC X 6
     4 ALP1        3 GROUP        1 Y    ALP  0     ROOT ALP Y 8
     5 SEP2       21 GROUP        1 Y    SEP  0     **** SEP Y 9
     6 GLP5        6 GROUP        1 Y    GLP  0     **** GLP Y 13
     7 ALL1        2 GROUP        1 Z    ALL  0     ROOT ALL Z 15
     8 SEL2       20 GROUP        1 Z    SEL  0     **** SEL Z 16
     9 GLL5        5 GROUP        1 Z    GLL  0     **** GLL Z 20
@<TRIPOS>SET

