#    Name: 3jsi_WTC_1_ligand
#    Modification time : Tue Mar 25 17:51:22 2014

@<TRIPOS>MOLECULE
3jsi_WTC_1_ligand
   40    43     1     0     0
SMALL
NO_CHARGES


@<TRIPOS>ATOM
      1 C1         77.3900   52.0750   43.8100 C.2       1 WTC903      0.0000 
      2 C2         77.3450   52.1930   42.4050 C.2       1 WTC903      0.0000 
      3 N3         78.4660   51.5860   41.9290 N.pl3     1 WTC903      0.0000 
      4 N4         79.2070   51.1000   43.0150 N.2       1 WTC903      0.0000 
      5 C5         78.5720   51.3730   44.1230 C.2       1 WTC903      0.0000 
      6 C6         76.2860   52.6670   44.5880 C.2       1 WTC903      0.0000 
      7 N7         75.3000   53.2910   43.8860 N.am      1 WTC903      0.0000 
      8 C8         75.3350   53.3510   42.5230 C.2       1 WTC903      0.0000 
      9 N9         76.3090   52.8340   41.8200 N.2       1 WTC903      0.0000 
     10 C10        78.8480   51.5190   40.5150 C.3       1 WTC903      0.0000 
     11 C11        78.8160   50.0850   39.9730 C.3       1 WTC903      0.0000 
     12 C12        80.0390   50.0010   39.0390 C.3       1 WTC903      0.0000 
     13 C13        81.1060   50.8390   39.7870 C.3       1 WTC903      0.0000 
     14 C14        80.2920   52.0400   40.3260 C.3       1 WTC903      0.0000 
     15 O15        76.2510   52.6230   45.8100 O.2       1 WTC903      0.0000 
     16 C16        74.2110   54.0610   41.8070 C.3       1 WTC903      0.0000 
     17 C17        74.6060   55.4950   41.5470 C.ar      1 WTC903      0.0000 
     18 C18        74.6090   55.9930   40.2540 C.ar      1 WTC903      0.0000 
     19 C19        74.9750   57.3120   40.0100 C.ar      1 WTC903      0.0000 
     20 C20        75.3420   58.1430   41.0580 C.ar      1 WTC903      0.0000 
     21 C21        75.3430   57.6470   42.3520 C.ar      1 WTC903      0.0000 
     22 C22        74.9720   56.3290   42.5950 C.ar      1 WTC903      0.0000 
     23 H          78.8198   51.1570   45.0319 H         1 WTC903      0.0000 
     24 H          74.5029   53.7316   44.3981 H         1 WTC903      0.0000 
     25 H          78.2047   52.1259   39.9042 H         1 WTC903      0.0000 
     26 H          77.9297   49.9323   39.4110 H         1 WTC903      0.0000 
     27 H          78.9314   49.3960   40.7708 H         1 WTC903      0.0000 
     28 H          79.8163   50.4578   38.1165 H         1 WTC903      0.0000 
     29 H          80.3646   49.0021   38.9653 H         1 WTC903      0.0000 
     30 H          81.8303   51.1801   39.1034 H         1 WTC903      0.0000 
     31 H          81.4914   50.2820   40.5929 H         1 WTC903      0.0000 
     32 H          80.6867   52.3426   41.2663 H         1 WTC903      0.0000 
     33 H          80.2960   52.8230   39.6060 H         1 WTC903      0.0000 
     34 H          73.3152   54.0365   42.4222 H         1 WTC903      0.0000 
     35 H          74.0094   53.5624   40.8623 H         1 WTC903      0.0000 
     36 H          74.3386   55.3837   39.4667 H         1 WTC903      0.0000 
     37 H          74.9731   57.6730   39.0438 H         1 WTC903      0.0000 
     38 H          75.6103   59.1162   40.8764 H         1 WTC903      0.0000 
     39 H          75.6188   58.2542   43.1370 H         1 WTC903      0.0000 
     40 H          74.9690   55.9688   43.5623 H         1 WTC903      0.0000 
@<TRIPOS>BOND
     1    2    1 2    
     2    5    1 1    
     3    6    1 1    
     4    3    2 1    
     5    9    2 1    
     6    4    3 1    
     7   10    3 1    
     8    5    4 2    
     9   23    5 1    
    10    7    6 am   
    11   15    6 2    
    12    8    7 1    
    13   24    7 1    
    14    9    8 2    
    15   16    8 1    
    16   11   10 1    
    17   14   10 1    
    18   25   10 1    
    19   12   11 1    
    20   26   11 1    
    21   27   11 1    
    22   13   12 1    
    23   28   12 1    
    24   29   12 1    
    25   14   13 1    
    26   30   13 1    
    27   31   13 1    
    28   32   14 1    
    29   33   14 1    
    30   17   16 1    
    31   34   16 1    
    32   35   16 1    
    33   18   17 ar   
    34   22   17 ar   
    35   19   18 ar   
    36   36   18 1    
    37   20   19 ar   
    38   37   19 1    
    39   21   20 ar   
    40   38   20 1    
    41   22   21 ar   
    42   39   21 1    
    43   40   22 1    
@<TRIPOS>SUBSTRUCTURE
     1 WTC903      1 GROUP   
@<TRIPOS>SET

