#    Name: 4ivb_1J5_2_INTS_M
#    Modification time : Tue Mar 25 04:42:12 2014

@<TRIPOS>MOLECULE
4ivb_1J5_2_INTS_M
   64     0     9     0     0
SMALL
NO_CHARGES


@<TRIPOS>ATOM
      1 CA         11.9130    3.9930   -3.8500 C.3       3 GLC5        0.0000 
      2 CA         10.4160    4.6400   -2.3720 C.3       9 GLL5        0.0000 
      3 CA         13.4100    3.3460   -5.3280 C.3       6 GLP5        0.0000 
      4 CA          9.9865    2.8810   -1.3275 C.3       3 GLC5        0.0000 
      5 CA          9.5570    1.1220   -0.2830 C.3       6 GLP5        0.0000 
      6 CA          8.3795    4.6445   -2.0055 C.3       3 GLC5        0.0000 
      7 CA          6.3430    4.6490   -1.6390 C.3       6 GLP5        0.0000 
      8 CA         13.0350    5.1900   -2.8140 C.3       3 GLC5        0.0000 
      9 CA         11.4280    5.1060   -1.2970 C.3       9 GLL5        0.0000 
     10 CA         14.6420    5.2740   -4.3310 C.3       6 GLP5        0.0000 
     11 N           9.9215    3.9950    0.7155 N.am      2 SEC2        0.0000 
     12 N          10.7250    5.2920   -0.0630 N.am      8 SEL2        0.0000 
     13 N           9.1180    2.6980    1.4940 N.am      5 SEP2        0.0000 
     14 O           9.3060    5.1260    0.0390 O.2       1 ALC1        0.0000 
     15 O          10.7250    5.2920   -0.0630 O.2       7 ALL1        0.0000 
     16 O           7.8870    4.9600    0.1410 O.2       4 ALP1        0.0000 
     17 CA         11.6185    1.7065   -0.6775 C.3       3 GLC5        0.0000 
     18 CA         13.6800    2.2910   -1.0720 C.3       9 GLL5        0.0000 
     19 CA         13.9545   -0.9985   -0.8305 C.3       3 GLC5        0.0000 
     20 CA         14.1770    0.9920   -1.2280 C.3       9 GLL5        0.0000 
     21 CA         13.7320   -2.9890   -0.4330 C.3       6 GLP5        0.0000 
     22 N          15.1600   -0.8780   -0.8610 N.am      2 SEC2        0.0000 
     23 N          15.3600    0.6380   -0.7620 N.am      8 SEL2        0.0000 
     24 N          14.9600   -2.3940   -0.9600 N.am      5 SEP2        0.0000 
     25 CA         16.6115   -0.4180   -1.0950 C.3       3 GLC5        0.0000 
     26 CA         16.1240    1.5140   -0.1120 C.3       9 GLL5        0.0000 
     27 CA         17.0990   -2.3500   -2.0780 C.3       6 GLP5        0.0000 
     28 CA         15.7125    2.9080   -2.1280 C.3       3 GLC5        0.0000 
     29 CA         15.7030    2.8390    0.1020 C.3       9 GLL5        0.0000 
     30 CA         15.7220    2.9770   -4.3580 C.3       6 GLP5        0.0000 
     31 CA         17.6720    4.4855   -0.7940 C.3       3 GLC5        0.0000 
     32 CA         16.8010    3.4700    0.8500 C.3       9 GLL5        0.0000 
     33 CA         18.5430    5.5010   -2.4380 C.3       6 GLP5        0.0000 
     34 CA         18.1785    0.9430    2.5050 C.3       3 GLC5        0.0000 
     35 CA         17.7490    2.5570    1.0300 C.3       9 GLL5        0.0000 
     36 CA         18.6080   -0.6710    3.9800 C.3       6 GLP5        0.0000 
     37 O          18.0050    0.0475    0.2330 O.2       1 ALC1        0.0000 
     38 O          17.3560    1.3840    0.4600 O.2       7 ALL1        0.0000 
     39 O          18.6540   -1.2890    0.0060 O.2       4 ALP1        0.0000 
     40 CA         14.9530    5.8240   -2.3955 C.3       3 GLC5        0.0000 
     41 CA         15.2640    6.3740   -0.4600 C.3       9 GLL5        0.0000 
     42 CA         16.8020    6.7025   -1.4360 C.3       3 GLC5        0.0000 
     43 CA         18.3400    7.0310   -2.4120 C.3       6 GLP5        0.0000 
     44 CA         14.9211    2.4310   -2.6691 C.3       3 GLC5        0.0000 
     45 CA         14.4470    3.2650   -0.3930 C.3       9 GLL5        0.0000 
     46 CA         13.5201    2.0345    0.7759 C.3       3 GLC5        0.0000 
     47 CA         12.9200    2.1840    2.5320 C.3       6 GLP5        0.0000 
     48 CA         19.2415    3.4712    0.7965 C.3       3 GLC5        0.0000 
     49 CA         21.2080    3.9290    0.6530 C.3       6 GLP5        0.0000 
     50 CA         13.5128    3.9470    1.7405 C.3       3 GLC5        0.0000 
     51 CA         14.2050    5.6580    1.7210 C.3       9 GLL5        0.0000 
     52 CA         17.2855    7.6702   -0.1542 C.3       3 GLC5        0.0000 
     53 CA         15.7620    7.6600    1.5750 C.3       9 GLL5        0.0000 
     54 CA         18.9630    7.6030   -1.1300 C.3       6 GLP5        0.0000 
     55 CA         14.7020    8.3113   -1.6270 C.3       3 GLC5        0.0000 
     56 CA         15.4540    7.8150    0.0680 C.3       9 GLL5        0.0000 
     57 CA         14.0450    9.5280   -3.0580 C.3       6 GLP5        0.0000 
     58 CA         16.6119    7.8610    3.6723 C.3       3 GLC5        0.0000 
     59 CA         16.1070    8.9750    2.1570 C.3       9 GLL5        0.0000 
     60 CA         17.5970    7.5530    5.3040 C.3       6 GLP5        0.0000 
     61 CA         17.8066    2.0480   -0.9533 C.3       3 GLC5        0.0000 
     62 CA         19.0190    1.5010   -2.3740 C.3       6 GLP5        0.0000 
     63 CA         15.7996    1.8230    1.8963 C.3       3 GLC5        0.0000 
     64 CA         15.0050    1.0510    3.3250 C.3       6 GLP5        0.0000 
@<TRIPOS>BOND
@<TRIPOS>SUBSTRUCTURE
     1 ALC1       14 GROUP        1 X    ALC  0     ROOT ALC X 1
     2 SEC2       11 GROUP        1 X    SEC  0     **** SEC X 2
     3 GLC5        1 GROUP        1 X    GLC  0     **** GLC X 6
     4 ALP1       16 GROUP        1 Y    ALP  0     ROOT ALP Y 8
     5 SEP2       13 GROUP        1 Y    SEP  0     **** SEP Y 9
     6 GLP5        3 GROUP        1 Y    GLP  0     **** GLP Y 13
     7 ALL1       15 GROUP        1 Z    ALL  0     ROOT ALL Z 15
     8 SEL2       12 GROUP        1 Z    SEL  0     **** SEL Z 16
     9 GLL5        2 GROUP        1 Z    GLL  0     **** GLL Z 20
@<TRIPOS>SET

