#    Name: 4ivb_1J5_2_ligand
#    Modification time : Tue Mar 25 04:42:12 2014

@<TRIPOS>MOLECULE
4ivb_1J5_2_ligand
   42    45     1     0     0
SMALL
NO_CHARGES


@<TRIPOS>ATOM
      1 C1         10.4160    4.6400   -2.3720 C.3       1 1J51201     0.0000 
      2 C2         11.4280    5.1060   -1.2970 C.3       1 1J51201     0.0000 
      3 O4         10.7250    5.2920   -0.0630 O.3       1 1J51201     0.0000 
      4 C5         12.5360    4.1300   -1.0740 C.2       1 1J51201     0.0000 
      5 N6         13.6920    4.4250   -0.3990 N.pl3     1 1J51201     0.0000 
      6 C7         14.4470    3.2650   -0.3930 C.ar      1 1J51201     0.0000 
      7 C8         13.6800    2.2910   -1.0720 C.ar      1 1J51201     0.0000 
      8 N9         12.5380    2.8810   -1.4550 N.2       1 1J51201     0.0000 
      9 C10        14.1770    0.9920   -1.2280 C.ar      1 1J51201     0.0000 
     10 N11        15.3600    0.6380   -0.7620 N.ar      1 1J51201     0.0000 
     11 C12        16.1240    1.5140   -0.1120 C.ar      1 1J51201     0.0000 
     12 C13        15.7030    2.8390    0.1020 C.ar      1 1J51201     0.0000 
     13 C14        16.8010    3.4700    0.8500 C.2       1 1J51201     0.0000 
     14 C15        17.7490    2.5570    1.0300 C.2       1 1J51201     0.0000 
     15 N16        17.3560    1.3840    0.4600 N.pl3     1 1J51201     0.0000 
     16 C18        14.0060    5.7620    0.1770 C.3       1 1J51201     0.0000 
     17 C20        14.2050    5.6580    1.7210 C.3       1 1J51201     0.0000 
     18 C21        14.5310    7.0660    2.2730 C.3       1 1J51201     0.0000 
     19 C22        15.7620    7.6600    1.5750 C.3       1 1J51201     0.0000 
     20 C24        15.4540    7.8150    0.0680 C.3       1 1J51201     0.0000 
     21 C25        15.2640    6.3740   -0.4600 C.3       1 1J51201     0.0000 
     22 C26        16.1070    8.9750    2.1570 C.1       1 1J51201     0.0000 
     23 N27        16.2440   10.0190    2.6150 N.1       1 1J51201     0.0000 
     24 H          11.8451    6.0508   -1.6304 H         1 1J51201     0.0000 
     25 H          13.5646    0.3037   -1.7358 H         1 1J51201     0.0000 
     26 H          16.7605    4.3749    1.1190 H         1 1J51201     0.0000 
     27 H          18.5950    2.6862    1.4920 H         1 1J51201     0.0000 
     28 H          17.8822    0.5629    0.4600 H         1 1J51201     0.0000 
     29 H          13.1773    6.4415    0.0074 H         1 1J51201     0.0000 
     30 H          15.0248    4.9948    1.9236 H         1 1J51201     0.0000 
     31 H          13.2963    5.2996    2.1669 H         1 1J51201     0.0000 
     32 H          14.7230    6.9899    3.3400 H         1 1J51201     0.0000 
     33 H          13.6750    7.7152    2.1089 H         1 1J51201     0.0000 
     34 H          16.5792    6.9726    1.6786 H         1 1J51201     0.0000 
     35 H          16.2829    8.2654   -0.4197 H         1 1J51201     0.0000 
     36 H          14.5513    8.3605   -0.0560 H         1 1J51201     0.0000 
     37 H          15.1465    6.4033   -1.5323 H         1 1J51201     0.0000 
     38 H          16.1265    5.7832   -0.1926 H         1 1J51201     0.0000 
     39 H          10.8556    4.4969   -3.2587 H         1 1J51201     0.0000 
     40 H           9.9772    3.7775   -2.1199 H         1 1J51201     0.0000 
     41 H           9.6869    5.3102   -2.5110 H         1 1J51201     0.0000 
     42 H           9.7593    5.1769   -0.2955 H         1 1J51201     0.0000 
@<TRIPOS>BOND
     1    2    1 1    
     2   39    1 1    
     3   40    1 1    
     4   41    1 1    
     5    3    2 1    
     6    4    2 1    
     7   24    2 1    
     8   42    3 1    
     9    5    4 1    
    10    8    4 2    
    11    6    5 1    
    12   16    5 1    
    13    7    6 ar   
    14   12    6 ar   
    15    8    7 1    
    16    9    7 ar   
    17   10    9 ar   
    18   25    9 1    
    19   11   10 ar   
    20   12   11 ar   
    21   15   11 1    
    22   13   12 1    
    23   14   13 2    
    24   26   13 1    
    25   15   14 1    
    26   27   14 1    
    27   28   15 1    
    28   17   16 1    
    29   21   16 1    
    30   29   16 1    
    31   18   17 1    
    32   30   17 1    
    33   31   17 1    
    34   19   18 1    
    35   32   18 1    
    36   33   18 1    
    37   20   19 1    
    38   22   19 1    
    39   34   19 1    
    40   21   20 1    
    41   35   20 1    
    42   36   20 1    
    43   37   21 1    
    44   38   21 1    
    45   23   22 3    
@<TRIPOS>SUBSTRUCTURE
     1 1J51201     1 GROUP   
@<TRIPOS>SET

