#    Name: 3flk_NAD_3_INTS_M
#    Modification time : Tue Mar 25 05:45:19 2014

@<TRIPOS>MOLECULE
3flk_NAD_3_INTS_M
   91     0     9     0     0
SMALL
NO_CHARGES


@<TRIPOS>ATOM
      1 N          -6.8460   77.3645  100.0745 N.am      2 SEC2        0.0000 
      2 N          -7.5870   78.5420  100.0830 N.am      8 SEL2        0.0000 
      3 N          -6.1050   76.1870  100.0660 N.am      5 SEP2        0.0000 
      4 N          -8.4625   76.7690  103.2485 N.am      2 SEC2        0.0000 
      5 N          -7.8770   77.7420  102.3690 N.am      8 SEL2        0.0000 
      6 N          -9.0480   75.7960  104.1280 N.am      5 SEP2        0.0000 
      7 CA         -9.2735   82.2690  100.0750 C.3       3 GLC5        0.0000 
      8 CA         -9.6750   80.8190  100.9440 C.3       9 GLL5        0.0000 
      9 CA         -8.8720   83.7190   99.2060 C.3       6 GLP5        0.0000 
     10 CA        -10.1625   81.9000   99.2970 C.3       3 GLC5        0.0000 
     11 CA        -11.1640   80.9310  100.6310 C.3       9 GLL5        0.0000 
     12 CA         -9.1610   82.8690   97.9630 C.3       6 GLP5        0.0000 
     13 N         -12.4085   82.7140  102.0175 N.am      2 SEC2        0.0000 
     14 N         -13.1150   81.4080  101.9100 N.am      8 SEL2        0.0000 
     15 N         -11.7020   84.0200  102.1250 N.am      5 SEP2        0.0000 
     16 O         -13.6110   81.1300  103.2075 O.2       1 ALC1        0.0000 
     17 O         -13.1150   81.4080  101.9100 O.2       7 ALL1        0.0000 
     18 O         -14.1070   80.8520  104.5050 O.2       4 ALP1        0.0000 
     19 O         -13.5075   78.8360  103.3930 O.2       1 ALC1        0.0000 
     20 O         -13.7500   78.8180  101.9850 O.2       7 ALL1        0.0000 
     21 O         -13.2650   78.8540  104.8010 O.2       4 ALP1        0.0000 
     22 O         -13.9285   79.8350  103.2450 O.2       1 ALC1        0.0000 
     23 CA        -10.0840   75.8125   98.0815 C.3       3 GLC5        0.0000 
     24 CA        -12.2280   75.7510   98.5470 C.3       9 GLL5        0.0000 
     25 CA         -7.9400   75.8740   97.6160 C.3       6 GLP5        0.0000 
     26 CA        -12.5395   75.0235   95.9645 C.3       3 GLC5        0.0000 
     27 CA        -12.8700   74.6710   97.9490 C.3       9 GLL5        0.0000 
     28 CA        -12.2090   75.3760   93.9800 C.3       6 GLP5        0.0000 
     29 CA        -14.3755   73.4180   98.7350 C.3       3 GLC5        0.0000 
     30 CA        -15.8810   72.1650   99.5210 C.3       6 GLP5        0.0000 
     31 CA        -13.9455   73.8305   96.4095 C.3       3 GLC5        0.0000 
     32 CA        -15.0210   72.9900   94.8700 C.3       6 GLP5        0.0000 
     33 O         -10.6770   73.0105   97.4540 O.2       1 ALC1        0.0000 
     34 O         -12.1770   73.6000   97.5700 O.2       7 ALL1        0.0000 
     35 O          -9.1770   72.4210   97.3380 O.2       4 ALP1        0.0000 
     36 O         -12.5580   72.3805   96.7505 O.2       1 ALC1        0.0000 
     37 O         -12.9390   71.1610   95.9310 O.2       4 ALP1        0.0000 
     38 N         -14.7970   73.4950   97.4370 N.am      2 SEC2        0.0000 
     39 N         -14.2270   74.7440   97.7100 N.am      8 SEL2        0.0000 
     40 N         -15.3670   72.2460   97.1640 N.am      5 SEP2        0.0000 
     41 CA        -14.9865   75.5595   99.9240 C.3       3 GLC5        0.0000 
     42 CA        -14.9460   75.8730   98.0570 C.3       9 GLL5        0.0000 
     43 CA        -15.0270   75.2460  101.7910 C.3       6 GLP5        0.0000 
     44 CA        -15.4135   74.0190   98.7890 C.3       3 GLC5        0.0000 
     45 CA        -14.9835   74.4315   96.4635 C.3       3 GLC5        0.0000 
     46 CA        -16.2105   76.7675   96.7240 C.3       3 GLC5        0.0000 
     47 CA        -17.4750   77.6620   95.3910 C.3       6 GLP5        0.0000 
     48 CA         -5.9835   75.8805  105.6020 C.3       3 GLC5        0.0000 
     49 CA         -5.3090   78.0090  105.6140 C.3       9 GLL5        0.0000 
     50 CA         -6.6580   73.7520  105.5900 C.3       6 GLP5        0.0000 
     51 N          -5.6850   76.0890  103.9790 N.am      2 SEC2        0.0000 
     52 N          -4.7930   77.2640  104.5300 N.am      8 SEL2        0.0000 
     53 N          -6.5770   74.9140  103.4280 N.am      5 SEP2        0.0000 
     54 O          -2.9785   78.7240  108.2770 O.2       1 ALC1        0.0000 
     55 O          -3.7330   78.1200  107.3700 O.2       7 ALL1        0.0000 
     56 O          -2.2240   79.3280  109.1840 O.2       4 ALP1        0.0000 
     57 O          -3.0695   79.6820  107.7520 O.2       1 ALC1        0.0000 
     58 O          -2.4060   81.2440  108.1340 O.2       4 ALP1        0.0000 
     59 CA         -3.1495   80.8565  104.7945 C.3       3 GLC5        0.0000 
     60 CA         -3.0670   78.7320  105.1300 C.3       9 GLL5        0.0000 
     61 CA         -3.2320   82.9810  104.4590 C.3       6 GLP5        0.0000 
     62 N          -1.0005   79.6785  104.6855 N.am      2 SEC2        0.0000 
     63 N          -1.7690   78.7670  105.6820 N.am      8 SEL2        0.0000 
     64 N          -0.2320   80.5900  103.6890 N.am      5 SEP2        0.0000 
     65 CA         -3.1625   76.1355  106.2840 C.3       3 GLC5        0.0000 
     66 CA         -3.3840   77.4040  104.4490 C.3       9 GLL5        0.0000 
     67 CA         -2.9410   74.8670  108.1190 C.3       6 GLP5        0.0000 
     68 CA         -4.5085   76.5775  102.9115 C.3       3 GLC5        0.0000 
     69 CA         -5.6330   75.7510  101.3740 C.3       6 GLP5        0.0000 
     70 N          -2.0220   72.7600  103.0015 N.am      2 SEC2        0.0000 
     71 N          -1.5350   73.4790  101.7830 N.am      8 SEL2        0.0000 
     72 N          -2.5090   72.0410  104.2200 N.am      5 SEP2        0.0000 
     73 O          -0.6880   73.1030   98.9760 O.2       1 ALC1        0.0000 
     74 O          -0.8630   74.4550   99.7110 O.2       7 ALL1        0.0000 
     75 O          -0.5130   71.7510   98.2410 O.2       4 ALP1        0.0000 
     76 CA        -11.8485   77.6155  101.8895 C.3       3 GLC5        0.0000 
     77 CA        -12.4720   79.1160  101.4820 C.3       9 GLL5        0.0000 
     78 CA        -11.2360   76.1220  103.0570 C.3       6 GLP5        0.0000 
     79 CA        -11.8400   74.1510   99.5865 C.3       3 GLC5        0.0000 
     80 CA        -11.1310   73.0910  100.9250 C.3       6 GLP5        0.0000 
     81 CA        -13.8912   75.6457  100.1803 C.3       3 GLC5        0.0000 
     82 CA        -12.9620   76.8800   98.8910 C.3       9 GLL5        0.0000 
     83 CA         -7.6165   77.9665  106.1047 C.3       3 GLC5        0.0000 
     84 CA         -6.4210   78.9370  105.1370 C.3       9 GLL5        0.0000 
     85 CA         -9.3680   77.4600  106.8340 C.3       6 GLP5        0.0000 
     86 CA         -0.0597   75.9983  102.6813 C.3       3 GLC5        0.0000 
     87 CA         -2.3320   76.1220  102.6640 C.3       9 GLL5        0.0000 
     88 CA          2.0110   75.9710  103.3580 C.3       6 GLP5        0.0000 
     89 CA         -3.8818   75.8882  101.6893 C.3       3 GLC5        0.0000 
     90 CA         -4.2525   76.8175  101.3654 C.3       3 GLC5        0.0000 
     91 CA         -2.1860   76.9260  100.4020 C.3       9 GLL5        0.0000 
@<TRIPOS>BOND
@<TRIPOS>SUBSTRUCTURE
     1 ALC1       16 GROUP        1 X    ALC  0     ROOT ALC X 1
     2 SEC2        1 GROUP        1 X    SEC  0     **** SEC X 2
     3 GLC5        7 GROUP        1 X    GLC  0     **** GLC X 6
     4 ALP1       18 GROUP        1 Y    ALP  0     ROOT ALP Y 8
     5 SEP2        3 GROUP        1 Y    SEP  0     **** SEP Y 9
     6 GLP5        9 GROUP        1 Y    GLP  0     **** GLP Y 13
     7 ALL1       17 GROUP        1 Z    ALL  0     ROOT ALL Z 15
     8 SEL2        2 GROUP        1 Z    SEL  0     **** SEL Z 16
     9 GLL5        8 GROUP        1 Z    GLL  0     **** GLL Z 20
@<TRIPOS>SET

