#    Name: 3flk_NAD_3_ligand
#    Modification time : Tue Mar 25 05:45:19 2014

@<TRIPOS>MOLECULE
3flk_NAD_3_ligand
   70    74     1     0     0
SMALL
NO_CHARGES


@<TRIPOS>ATOM
      1 PA         -7.9200   78.9130  101.4680 P.3       1 NAD402      0.0000 
      2 O1A        -7.5870   78.5420  100.0830 O.co2     1 NAD402      0.0000 
      3 O2A        -7.8770   77.7420  102.3690 O.co2     1 NAD402      0.0000 
      4 O5B        -9.3890   79.5610  101.5150 O.3       1 NAD402      0.0000 
      5 C5B        -9.6750   80.8190  100.9440 C.3       1 NAD402      0.0000 
      6 C4B       -11.1640   80.9310  100.6310 C.3       1 NAD402      0.0000 
      7 O4B       -11.4930   80.0640   99.5600 O.3       1 NAD402      0.0000 
      8 C3B       -12.0200   80.5270  101.8200 C.3       1 NAD402      0.0000 
      9 O3B       -13.1150   81.4080  101.9100 O.3       1 NAD402      0.0000 
     10 C2B       -12.4720   79.1160  101.4820 C.3       1 NAD402      0.0000 
     11 O2B       -13.7500   78.8180  101.9850 O.3       1 NAD402      0.0000 
     12 C1B       -12.4500   79.1020   99.9620 C.3       1 NAD402      0.0000 
     13 N9A       -12.0890   77.7690   99.4550 N.pl3     1 NAD402      0.0000 
     14 C8A       -10.8430   77.1940   99.4500 C.2       1 NAD402      0.0000 
     15 N7A       -10.9440   75.9670   98.8980 N.2       1 NAD402      0.0000 
     16 C5A       -12.2280   75.7510   98.5470 C.ar      1 NAD402      0.0000 
     17 C6A       -12.8700   74.6710   97.9490 C.ar      1 NAD402      0.0000 
     18 N6A       -12.1770   73.6000   97.5700 N.pl3     1 NAD402      0.0000 
     19 N1A       -14.2270   74.7440   97.7100 N.ar      1 NAD402      0.0000 
     20 C2A       -14.9460   75.8730   98.0570 C.ar      1 NAD402      0.0000 
     21 N3A       -14.2990   76.9400   98.6530 N.ar      1 NAD402      0.0000 
     22 C4A       -12.9620   76.8800   98.8910 C.ar      1 NAD402      0.0000 
     23 O3         -6.8990   80.0810  101.9190 O.3       1 NAD402      0.0000 
     24 PN         -6.8380   80.8360  103.3440 P.3       1 NAD402      0.0000 
     25 O1N        -8.1820   80.9000  103.9610 O.co2     1 NAD402      0.0000 
     26 O2N        -6.0840   82.0840  103.0960 O.co2     1 NAD402      0.0000 
     27 O5D        -5.8920   79.8670  104.2100 O.3       1 NAD402      0.0000 
     28 C5D        -6.4210   78.9370  105.1370 C.3       1 NAD402      0.0000 
     29 C4D        -5.3090   78.0090  105.6140 C.3       1 NAD402      0.0000 
     30 O4D        -4.7930   77.2640  104.5300 O.3       1 NAD402      0.0000 
     31 C3D        -4.1430   78.7870  106.2010 C.3       1 NAD402      0.0000 
     32 O3D        -3.7330   78.1200  107.3700 O.3       1 NAD402      0.0000 
     33 C2D        -3.0670   78.7320  105.1300 C.3       1 NAD402      0.0000 
     34 O2D        -1.7690   78.7670  105.6820 O.3       1 NAD402      0.0000 
     35 C1D        -3.3840   77.4040  104.4490 C.3       1 NAD402      0.0000 
     36 N1N        -2.9670   77.2770  103.0400 N.pl3     1 NAD402      0.0000 
     37 C2N        -2.3320   76.1220  102.6640 C.ar      1 NAD402      0.0000 
     38 C3N        -1.9290   75.9290  101.3450 C.ar      1 NAD402      0.0000 
     39 C7N        -1.4190   74.5830  100.9130 C.2       1 NAD402      0.0000 
     40 O7N        -1.5350   73.4790  101.7830 O.2       1 NAD402      0.0000 
     41 N7N        -0.8630   74.4550   99.7110 N.am      1 NAD402      0.0000 
     42 C4N        -2.1860   76.9260  100.4020 C.ar      1 NAD402      0.0000 
     43 C5N        -2.8400   78.0940  100.7910 C.ar      1 NAD402      0.0000 
     44 C6N        -3.2310   78.2580  102.1170 C.ar      1 NAD402      0.0000 
     45 H          -9.1265   80.9812  100.0035 H         1 NAD402      0.0000 
     46 H          -9.4159   81.6488  101.6193 H         1 NAD402      0.0000 
     47 H         -11.3896   81.9546  100.3838 H         1 NAD402      0.0000 
     48 H         -11.4096   80.4985  102.6767 H         1 NAD402      0.0000 
     49 H         -11.7052   78.4419  101.8172 H         1 NAD402      0.0000 
     50 H         -13.4358   79.3753   99.6198 H         1 NAD402      0.0000 
     51 H         -10.0428   77.6063   99.7858 H         1 NAD402      0.0000 
     52 H         -12.7022   72.8655   97.1403 H         1 NAD402      0.0000 
     53 H         -11.1935   73.6263   97.7491 H         1 NAD402      0.0000 
     54 H         -15.9568   75.9190   97.8728 H         1 NAD402      0.0000 
     55 H          -7.2066   78.3140  104.6929 H         1 NAD402      0.0000 
     56 H          -6.8440   79.4306  106.0201 H         1 NAD402      0.0000 
     57 H          -5.6993   77.3614  106.3804 H         1 NAD402      0.0000 
     58 H          -4.4431   79.7812  106.3489 H         1 NAD402      0.0000 
     59 H          -3.2716   79.5095  104.4287 H         1 NAD402      0.0000 
     60 H          -2.9187   76.6138  105.0462 H         1 NAD402      0.0000 
     61 H          -2.1453   75.3786  103.3614 H         1 NAD402      0.0000 
     62 H          -0.5640   73.5343   99.4603 H         1 NAD402      0.0000 
     63 H          -0.7943   75.2911   99.1667 H         1 NAD402      0.0000 
     64 H          -1.8945   76.7987   99.4276 H         1 NAD402      0.0000 
     65 H          -3.0320   78.8294  100.1022 H         1 NAD402      0.0000 
     66 H          -3.7200   79.1224  102.3980 H         1 NAD402      0.0000 
     67 H         -13.4859   81.2668  102.8279 H         1 NAD402      0.0000 
     68 H         -13.6617   78.8955  102.9781 H         1 NAD402      0.0000 
     69 H          -3.6410   78.8387  108.0592 H         1 NAD402      0.0000 
     70 H          -1.5625   77.8174  105.9178 H         1 NAD402      0.0000 
@<TRIPOS>BOND
     1    2    1 ar   
     2    3    1 ar   
     3    4    1 1    
     4   23    1 1    
     5    5    4 1    
     6    6    5 1    
     7   45    5 1    
     8   46    5 1    
     9    7    6 1    
    10    8    6 1    
    11   47    6 1    
    12   12    7 1    
    13    9    8 1    
    14   10    8 1    
    15   48    8 1    
    16   67    9 1    
    17   11   10 1    
    18   12   10 1    
    19   49   10 1    
    20   68   11 1    
    21   13   12 1    
    22   50   12 1    
    23   14   13 1    
    24   22   13 1    
    25   15   14 2    
    26   51   14 1    
    27   16   15 1    
    28   17   16 ar   
    29   22   16 ar   
    30   18   17 1    
    31   19   17 ar   
    32   52   18 1    
    33   53   18 1    
    34   20   19 ar   
    35   21   20 ar   
    36   54   20 1    
    37   22   21 ar   
    38   24   23 1    
    39   25   24 ar   
    40   26   24 ar   
    41   27   24 1    
    42   28   27 1    
    43   29   28 1    
    44   55   28 1    
    45   56   28 1    
    46   30   29 1    
    47   31   29 1    
    48   57   29 1    
    49   35   30 1    
    50   32   31 1    
    51   33   31 1    
    52   58   31 1    
    53   69   32 1    
    54   34   33 1    
    55   35   33 1    
    56   59   33 1    
    57   70   34 1    
    58   36   35 1    
    59   60   35 1    
    60   37   36 ar   
    61   44   36 ar   
    62   38   37 ar   
    63   61   37 1    
    64   39   38 1    
    65   42   38 ar   
    66   40   39 2    
    67   41   39 am   
    68   62   41 1    
    69   63   41 1    
    70   43   42 ar   
    71   64   42 1    
    72   44   43 ar   
    73   65   43 1    
    74   66   44 1    
@<TRIPOS>SUBSTRUCTURE
     1 NAD402      1 GROUP   
@<TRIPOS>SET

