#    Name: 2vj9_VG7_1_INTS_M
#    Modification time : Tue Mar 25 01:54:44 2014

@<TRIPOS>MOLECULE
2vj9_VG7_1_INTS_M
   88     0    12     0     0
SMALL
NO_CHARGES


@<TRIPOS>ATOM
      1 CA         32.7860    2.0920   36.2440 C.3       4 GLC5        0.0000 
      2 CA         31.5850    0.4630   36.4240 C.3      12 GLL5        0.0000 
      3 CA         33.9870    3.7210   36.0640 C.3       8 GLP5        0.0000 
      4 CA         29.2700   -0.6760   37.0420 C.3       4 GLC5        0.0000 
      5 CA         31.0750   -1.9470   36.8630 C.3      12 GLL5        0.0000 
      6 CA         27.4650    0.5950   37.2210 C.3       8 GLP5        0.0000 
      7 O          28.5010    0.8310   34.0750 O.2       1 ALC1        0.0000 
      8 O          29.6270    1.6330   33.6520 O.2       9 ALL1        0.0000 
      9 O          27.3750    0.0290   34.4980 O.2       5 ALP1        0.0000 
     10 N          33.2490    2.0115   33.9055 N.am      2 SEC2        0.0000 
     11 N          31.7920    2.2360   34.0140 N.am     10 SEL2        0.0000 
     12 N          34.7060    1.7870   33.7970 N.am      6 SEP2        0.0000 
     13 CA         26.8985    1.4615   32.8110 C.3       4 GLC5        0.0000 
     14 CA         28.5830    1.9580   31.4630 C.3      12 GLL5        0.0000 
     15 CA         25.2140    0.9650   34.1590 C.3       8 GLP5        0.0000 
     16 CA         26.8690    2.4120   33.7005 C.3       4 GLC5        0.0000 
     17 CA         28.5240    3.8590   33.2420 C.3      12 GLL5        0.0000 
     18 O          27.1870    4.4500   31.4795 O.2       1 ALC1        0.0000 
     19 O          28.2410    4.8090   32.2340 O.2       9 ALL1        0.0000 
     20 O          26.1330    4.0910   30.7250 O.2       5 ALP1        0.0000 
     21 CA         31.7015    2.1705   30.9460 C.3       4 GLC5        0.0000 
     22 CA         30.6270    0.4960   30.7930 C.3      12 GLL5        0.0000 
     23 CA         32.7760    3.8450   31.0990 C.3       8 GLP5        0.0000 
     24 O          29.1625   -3.7685   36.5195 O.2       1 ALC1        0.0000 
     25 O          29.8780   -3.3040   35.2640 O.2       9 ALL1        0.0000 
     26 O          28.4470   -4.2330   37.7750 O.2       5 ALP1        0.0000 
     27 CA         29.8900   -4.8855   32.5785 C.3       4 GLC5        0.0000 
     28 CA         29.3400   -3.6850   33.9500 C.3      12 GLL5        0.0000 
     29 CA         30.4400   -6.0860   31.2070 C.3       8 GLP5        0.0000 
     30 CA         26.1480   -4.3130   33.4370 C.3       4 GLC5        0.0000 
     31 CA         27.8110   -3.5610   33.9370 C.3      12 GLL5        0.0000 
     32 CA         24.4850   -5.0650   32.9370 C.3       8 GLP5        0.0000 
     33 CA         31.3020   -1.1085   42.0105 C.3       4 GLC5        0.0000 
     34 CA         32.8260   -0.7430   40.8260 C.3      12 GLL5        0.0000 
     35 CA         29.7780   -1.4740   43.1950 C.3       8 GLP5        0.0000 
     36 CA         34.2520    1.7255   37.9755 C.3       4 GLC5        0.0000 
     37 CA         33.6510    0.0210   38.6630 C.3      12 GLL5        0.0000 
     38 CA         34.8530    3.4300   37.2880 C.3       8 GLP5        0.0000 
     39 N          29.4900   -1.6150   40.6050 N.am      2 SEC2        0.0000 
     40 N          30.7390   -1.5660   39.9160 N.am     10 SEL2        0.0000 
     41 N          28.2410   -1.6640   41.2940 N.am      6 SEP2        0.0000 
     42 OD1        26.8890    4.9040   35.2195 O.co2     3 ASC3        0.0000 
     43 OD1        28.6010    5.7460   34.8660 O.co2    11 ASL3        0.0000 
     44 OD1        25.1770    4.0620   35.5730 O.co2     7 ASP3        0.0000 
     45 OD1        27.7680    5.2855   35.7555 O.co2     3 ASC3        0.0000 
     46 OD1        26.9350    4.8250   36.6450 O.co2     7 ASP3        0.0000 
     47 CA         29.7165   10.7265   37.7080 C.3       4 GLC5        0.0000 
     48 CA         29.8260    9.1080   36.4330 C.3      12 GLL5        0.0000 
     49 CA         29.6070   12.3450   38.9830 C.3       8 GLP5        0.0000 
     50 CA         26.9000    7.4405   34.8155 C.3       4 GLC5        0.0000 
     51 CA         28.8330    8.0940   35.7380 C.3      12 GLL5        0.0000 
     52 CA         24.9670    6.7870   33.8930 C.3       8 GLP5        0.0000 
     53 CA         32.3405   -1.0480   34.5277 C.3       4 GLC5        0.0000 
     54 CA         30.3500   -0.9060   34.7600 C.3      12 GLL5        0.0000 
     55 CA         34.2980   -0.6090   33.8720 C.3       8 GLP5        0.0000 
     56 CA         29.5547   -2.8988   37.6865 C.3       4 GLC5        0.0000 
     57 CA         30.4160   -2.0680   35.6070 C.3      12 GLL5        0.0000 
     58 CA         28.3640   -3.7900   39.1380 C.3       8 GLP5        0.0000 
     59 CA         29.0600    0.0147   36.1961 C.3       4 GLC5        0.0000 
     60 CA         30.9270    0.3560   35.1590 C.3      12 GLL5        0.0000 
     61 CA         30.2190    0.6060   38.0510 C.3       4 GLC5        0.0000 
     62 CA         28.8110    1.3240   39.2420 C.3       8 GLP5        0.0000 
     63 CA         32.8803   -0.3739   35.2079 C.3       4 GLC5        0.0000 
     64 CA         31.6690   -0.6870   37.2960 C.3      12 GLL5        0.0000 
     65 CA         29.7361    3.9261   31.2792 C.3       4 GLC5        0.0000 
     66 CA         29.3300    2.6770   32.6430 C.3      12 GLL5        0.0000 
     67 CA         30.7320    4.7640   29.9110 C.3       8 GLP5        0.0000 
     68 CA         27.1295   -2.0377   30.4810 C.3       4 GLC5        0.0000 
     69 CA         28.4020   -0.5810   31.0510 C.3      12 GLL5        0.0000 
     70 CA         25.5670   -2.8560   30.0800 C.3       8 GLP5        0.0000 
     71 CA         27.7954    1.1182   29.6730 C.3       4 GLC5        0.0000 
     72 CA         26.9400    1.8840   28.1810 C.3       8 GLP5        0.0000 
     73 CA         30.0615   -3.9970   30.8863 C.3       4 GLC5        0.0000 
     74 CA         28.9820   -1.8580   30.7130 C.3      12 GLL5        0.0000 
     75 CA         27.9678   -5.5500   33.7013 C.3       4 GLC5        0.0000 
     76 CA         27.3600   -7.4770   33.4590 C.3       8 GLP5        0.0000 
     77 CA         32.5639    1.2815   40.4644 C.3       4 GLC5        0.0000 
     78 CA         31.5710    2.8270   41.3750 C.3       8 GLP5        0.0000 
     79 CA         29.8573    6.4795   39.1437 C.3       4 GLC5        0.0000 
     80 CA         30.0620    6.1540   36.8580 C.3      12 GLL5        0.0000 
     81 CA         29.1560    6.2950   41.0740 C.3       8 GLP5        0.0000 
     82 CA         32.3415    8.2888   38.6395 C.3       4 GLC5        0.0000 
     83 CA         31.0550    7.1740   37.5690 C.3      12 GLL5        0.0000 
     84 CA         33.5250    8.7400   40.1330 C.3       8 GLP5        0.0000 
     85 CA         28.6037    9.8425   35.2843 C.3       4 GLC5        0.0000 
     86 CA         27.8780   11.0840   34.4830 C.3       8 GLP5        0.0000 
     87 CA         27.9087    8.5590   37.2267 C.3       4 GLC5        0.0000 
     88 CA         26.4880    8.5170   38.3680 C.3       8 GLP5        0.0000 
@<TRIPOS>BOND
@<TRIPOS>SUBSTRUCTURE
     1 ALC1        7 GROUP        1 X    ALC  0     ROOT ALC X 1
     2 SEC2       10 GROUP        1 X    SEC  0     **** SEC X 2
     3 ASC3       42 GROUP        1 X    ASC  0     **** ASC X 3
     4 GLC5        1 GROUP        1 X    GLC  0     **** GLC X 6
     5 ALP1        9 GROUP        1 Y    ALP  0     ROOT ALP Y 8
     6 SEP2       12 GROUP        1 Y    SEP  0     **** SEP Y 9
     7 ASP3       44 GROUP        1 Y    ASP  0     **** ASP Y 10
     8 GLP5        3 GROUP        1 Y    GLP  0     **** GLP Y 13
     9 ALL1        8 GROUP        1 Z    ALL  0     ROOT ALL Z 15
    10 SEL2       11 GROUP        1 Z    SEL  0     **** SEL Z 16
    11 ASL3       43 GROUP        1 Z    ASL  0     **** ASL Z 17
    12 GLL5        2 GROUP        1 Z    GLL  0     **** GLL Z 20
@<TRIPOS>SET

