#    Name: 2vj9_VG7_1_ligand
#    Modification time : Tue Mar 25 01:54:44 2014

@<TRIPOS>MOLECULE
2vj9_VG7_1_ligand
   75    78     1     0     0
SMALL
NO_CHARGES


@<TRIPOS>ATOM
      1 C1         30.4160   -2.0680   35.6070 C.ar      1 VG71452     0.0000 
      2 C2         30.3500   -0.9060   34.7600 C.ar      1 VG71452     0.0000 
      3 C3         30.9270    0.3560   35.1590 C.ar      1 VG71452     0.0000 
      4 C4         31.5850    0.4630   36.4240 C.ar      1 VG71452     0.0000 
      5 C5         31.6690   -0.6870   37.2960 C.ar      1 VG71452     0.0000 
      6 C6         31.0750   -1.9470   36.8630 C.ar      1 VG71452     0.0000 
      7 C7         30.8390    1.4850   34.2560 C.2       1 VG71452     0.0000 
      8 N8         29.6270    1.6330   33.6520 N.am      1 VG71452     0.0000 
      9 O9         31.7920    2.2360   34.0140 O.2       1 VG71452     0.0000 
     10 C10        29.3300    2.6770   32.6430 C.3       1 VG71452     0.0000 
     11 C11        28.5830    1.9580   31.4630 C.3       1 VG71452     0.0000 
     12 C12        28.5240    3.8590   33.2420 C.3       1 VG71452     0.0000 
     13 O13        28.2410    4.8090   32.2340 O.3       1 VG71452     0.0000 
     14 C14        29.2160    0.6140   31.0950 C.ar      1 VG71452     0.0000 
     15 C15        29.3280    4.6090   34.2810 C.3       1 VG71452     0.0000 
     16 C17        28.4020   -0.5810   31.0510 C.ar      1 VG71452     0.0000 
     17 C18        28.9820   -1.8580   30.7130 C.ar      1 VG71452     0.0000 
     18 C19        30.3840   -1.9580   30.4180 C.ar      1 VG71452     0.0000 
     19 C20        31.2030   -0.7790   30.4580 C.ar      1 VG71452     0.0000 
     20 C21        30.6270    0.4960   30.7930 C.ar      1 VG71452     0.0000 
     21 N38        29.8780   -3.3040   35.2640 N.pl3     1 VG71452     0.0000 
     22 C39        29.3400   -3.6850   33.9500 C.3       1 VG71452     0.0000 
     23 C41        27.8110   -3.5610   33.9370 C.3       1 VG71452     0.0000 
     24 N47        32.3160   -0.5860   38.5220 N.am      1 VG71452     0.0000 
     25 C48        31.8190   -1.0230   39.7150 C.2       1 VG71452     0.0000 
     26 C49        32.8260   -0.7430   40.8260 C.3       1 VG71452     0.0000 
     27 C50        34.0990   -0.3550   40.0630 C.3       1 VG71452     0.0000 
     28 C51        33.6510    0.0210   38.6630 C.3       1 VG71452     0.0000 
     29 O58        30.7390   -1.5660   39.9160 O.2       1 VG71452     0.0000 
     30 N16        28.6010    5.7460   34.8660 N.4       1 VG71452     0.0000 
     31 C59        29.5290    6.7230   35.4960 C.3       1 VG71452     0.0000 
     32 C61        30.0620    6.1540   36.8580 C.3       1 VG71452     0.0000 
     33 C62        31.0550    7.1740   37.5690 C.3       1 VG71452     0.0000 
     34 C63        31.2610    8.5010   36.7230 C.3       1 VG71452     0.0000 
     35 C64        29.8260    9.1080   36.4330 C.3       1 VG71452     0.0000 
     36 C65        28.8330    8.0940   35.7380 C.3       1 VG71452     0.0000 
     37 H          29.8829   -0.9741   33.8521 H         1 VG71452     0.0000 
     38 H          31.9948    1.3422   36.7157 H         1 VG71452     0.0000 
     39 H          31.1415   -2.7545   37.4877 H         1 VG71452     0.0000 
     40 H          28.8279    0.9967   33.8808 H         1 VG71452     0.0000 
     41 H          30.2626    3.0567   32.2377 H         1 VG71452     0.0000 
     42 H          28.5996    2.6221   30.5963 H         1 VG71452     0.0000 
     43 H          27.5439    1.8057   31.7621 H         1 VG71452     0.0000 
     44 H          27.6373    3.4827   33.6930 H         1 VG71452     0.0000 
     45 H          30.2671    4.9592   33.8112 H         1 VG71452     0.0000 
     46 H          29.6238    3.8973   35.0755 H         1 VG71452     0.0000 
     47 H          27.4098   -0.5185   31.2610 H         1 VG71452     0.0000 
     48 H          28.3966   -2.6843   30.6844 H         1 VG71452     0.0000 
     49 H          30.7915   -2.8521   30.1838 H         1 VG71452     0.0000 
     50 H          32.1945   -0.8445   30.2488 H         1 VG71452     0.0000 
     51 H          31.2136    1.3252   30.8190 H         1 VG71452     0.0000 
     52 H          29.8386   -4.0663   36.0019 H         1 VG71452     0.0000 
     53 H          29.6010   -4.7194   33.7091 H         1 VG71452     0.0000 
     54 H          29.7419   -3.0391   33.1642 H         1 VG71452     0.0000 
     55 H          33.0014   -1.6239   41.3858 H         1 VG71452     0.0000 
     56 H          32.4995    0.0753   41.4125 H         1 VG71452     0.0000 
     57 H          34.7585   -1.1962   40.0231 H         1 VG71452     0.0000 
     58 H          34.5555    0.4866   40.5400 H         1 VG71452     0.0000 
     59 H          33.5972    1.0882   38.5855 H         1 VG71452     0.0000 
     60 H          34.3371   -0.3918   37.9512 H         1 VG71452     0.0000 
     61 H          30.3858    6.8899   34.8610 H         1 VG71452     0.0000 
     62 H          30.5954    5.2325   36.6740 H         1 VG71452     0.0000 
     63 H          29.2268    5.9753   37.5198 H         1 VG71452     0.0000 
     64 H          32.0141    6.6899   37.6947 H         1 VG71452     0.0000 
     65 H          30.6446    7.4379   38.5343 H         1 VG71452     0.0000 
     66 H          31.7263    8.2541   35.8009 H         1 VG71452     0.0000 
     67 H          31.8213    9.1948   37.2995 H         1 VG71452     0.0000 
     68 H          29.9435    9.9782   35.7873 H         1 VG71452     0.0000 
     69 H          29.3899    9.4296   37.3787 H         1 VG71452     0.0000 
     70 H          27.9795    7.9543   36.3835 H         1 VG71452     0.0000 
     71 H          28.5242    8.5117   34.7921 H         1 VG71452     0.0000 
     72 H          27.5127   -2.6251   34.1244 H         1 VG71452     0.0000 
     73 H          27.4249   -3.8200   33.0516 H         1 VG71452     0.0000 
     74 H          27.3849   -4.1478   34.6255 H         1 VG71452     0.0000 
     75 H          27.4730    4.4230   31.7230 H         1 VG71452     0.0000 
@<TRIPOS>BOND
     1    2    1 ar   
     2    6    1 ar   
     3   21    1 1    
     4    3    2 ar   
     5   37    2 1    
     6    4    3 ar   
     7    7    3 1    
     8    5    4 ar   
     9   38    4 1    
    10    6    5 ar   
    11   24    5 1    
    12   39    6 1    
    13    8    7 am   
    14    9    7 2    
    15   10    8 1    
    16   40    8 1    
    17   11   10 1    
    18   12   10 1    
    19   41   10 1    
    20   14   11 1    
    21   42   11 1    
    22   43   11 1    
    23   13   12 1    
    24   15   12 1    
    25   44   12 1    
    26   75   13 1    
    27   16   14 ar   
    28   20   14 ar   
    29   30   15 1    
    30   45   15 1    
    31   46   15 1    
    32   17   16 ar   
    33   47   16 1    
    34   18   17 ar   
    35   48   17 1    
    36   19   18 ar   
    37   49   18 1    
    38   20   19 ar   
    39   50   19 1    
    40   51   20 1    
    41   22   21 1    
    42   52   21 1    
    43   23   22 1    
    44   53   22 1    
    45   54   22 1    
    46   72   23 1    
    47   73   23 1    
    48   74   23 1    
    49   25   24 am   
    50   28   24 1    
    51   26   25 1    
    52   29   25 2    
    53   27   26 1    
    54   55   26 1    
    55   56   26 1    
    56   28   27 1    
    57   57   27 1    
    58   58   27 1    
    59   59   28 1    
    60   60   28 1    
    61   31   30 1    
    62   32   31 1    
    63   36   31 1    
    64   61   31 1    
    65   33   32 1    
    66   62   32 1    
    67   63   32 1    
    68   34   33 1    
    69   64   33 1    
    70   65   33 1    
    71   35   34 1    
    72   66   34 1    
    73   67   34 1    
    74   36   35 1    
    75   68   35 1    
    76   69   35 1    
    77   70   36 1    
    78   71   36 1    
@<TRIPOS>SUBSTRUCTURE
     1 VG71452     1 GROUP   
@<TRIPOS>SET

