#    Name: 4few_PP2_2_INTS_M
#    Modification time : Mon Mar 24 19:29:40 2014

@<TRIPOS>MOLECULE
4few_PP2_2_INTS_M
   44     0     6     0     0
SMALL
NO_CHARGES


@<TRIPOS>ATOM
      1 CA        -18.8560    1.5405    0.3570 C.3       2 GLC5        0.0000 
      2 CA        -19.9720    2.9660    0.2730 C.3       6 GLL5        0.0000 
      3 CA        -17.7400    0.1150    0.4410 C.3       4 GLP5        0.0000 
      4 CA        -21.2165    2.7260    1.8650 C.3       2 GLC5        0.0000 
      5 CA        -22.4610    2.4860    3.4570 C.3       4 GLP5        0.0000 
      6 CA        -18.1020    3.3105    0.1405 C.3       2 GLC5        0.0000 
      7 CA        -16.2320    3.6550    0.0080 C.3       4 GLP5        0.0000 
      8 N         -20.0815    3.4540    2.7610 N.am      1 SEC2        0.0000 
      9 N         -19.9140    3.8220    1.2810 N.am      5 SEL2        0.0000 
     10 N         -20.2490    3.0860    4.2410 N.am      3 SEP2        0.0000 
     11 CA        -21.1535    3.8160    2.2670 C.3       2 GLC5        0.0000 
     12 CA        -19.8460    5.1460    1.0770 C.3       6 GLL5        0.0000 
     13 CA        -18.8460    4.2970    2.8920 C.3       2 GLC5        0.0000 
     14 CA        -17.8460    3.4480    4.7070 C.3       4 GLP5        0.0000 
     15 CA        -18.0390    4.4005    0.5425 C.3       2 GLC5        0.0000 
     16 CA        -18.1455    5.4760   -2.7275 C.3       2 GLC5        0.0000 
     17 CA        -19.9230    4.7360   -3.7760 C.3       6 GLL5        0.0000 
     18 CA        -16.3680    6.2160   -1.6790 C.3       4 GLP5        0.0000 
     19 CA        -19.3895    3.1585   -5.9255 C.3       2 GLC5        0.0000 
     20 CA        -18.6820    3.8450   -3.9730 C.3       6 GLL5        0.0000 
     21 CA        -20.0970    2.4720   -7.8780 C.3       4 GLP5        0.0000 
     22 CA        -17.1750    3.8005   -2.6850 C.3       2 GLC5        0.0000 
     23 CA        -15.6680    3.7560   -1.3970 C.3       4 GLP5        0.0000 
     24 CA        -22.7095    4.8150   -4.9300 C.3       2 GLC5        0.0000 
     25 CA        -21.2140    3.9150   -3.8810 C.3       6 GLL5        0.0000 
     26 CA        -24.2050    5.7150   -5.9790 C.3       4 GLP5        0.0000 
     27 CA        -22.7630    3.3900   -2.9240 C.3       2 GLC5        0.0000 
     28 CA        -24.3120    2.8650   -1.9670 C.3       4 GLP5        0.0000 
     29 CA        -20.6555    3.1935   -5.8795 C.3       2 GLC5        0.0000 
     30 CA        -20.8810    6.0725   -6.3770 C.3       2 GLC5        0.0000 
     31 CA        -19.9090    5.8610   -4.8210 C.3       6 GLL5        0.0000 
     32 CA        -21.8530    6.2840   -7.9330 C.3       4 GLP5        0.0000 
     33 CA        -17.6220   11.9905    0.7740 C.3       2 GLC5        0.0000 
     34 CA        -19.4620   12.4630    1.0510 C.3       6 GLL5        0.0000 
     35 CA        -15.7820   11.5180    0.4970 C.3       4 GLP5        0.0000 
     36 CA        -18.1177    5.6880   -1.2128 C.3       2 GLC5        0.0000 
     37 CA        -19.8360    5.6310   -0.2350 C.3       6 GLL5        0.0000 
     38 CA        -17.7088    8.5787    1.6552 C.3       2 GLC5        0.0000 
     39 CA        -19.6770    8.4750    0.9540 C.3       6 GLL5        0.0000 
     40 CA        -15.7750    8.0260    2.1330 C.3       4 GLP5        0.0000 
     41 CA        -17.6797   10.9709    0.2665 C.3       2 GLC5        0.0000 
     42 CA        -19.6080    9.7880    1.4010 C.3       6 GLL5        0.0000 
     43 CA        -18.0296    7.2911   -1.3301 C.3       2 GLC5        0.0000 
     44 CA        -19.6460    9.2200   -1.3070 C.3       6 GLL5        0.0000 
@<TRIPOS>BOND
@<TRIPOS>SUBSTRUCTURE
     1 SEC2        8 GROUP        1 X    SEC  0     ROOT SEC X 2
     2 GLC5        1 GROUP        1 X    GLC  0     **** GLC X 6
     3 SEP2       10 GROUP        1 Y    SEP  0     ROOT SEP Y 9
     4 GLP5        3 GROUP        1 Y    GLP  0     **** GLP Y 13
     5 SEL2        9 GROUP        1 Z    SEL  0     ROOT SEL Z 16
     6 GLL5        2 GROUP        1 Z    GLL  0     **** GLL Z 20
@<TRIPOS>SET

