#    Name: 4few_PP2_2_ligand
#    Modification time : Mon Mar 24 19:29:40 2014

@<TRIPOS>MOLECULE
4few_PP2_2_ligand
   38    40     1     0     0
SMALL
NO_CHARGES


@<TRIPOS>ATOM
      1 C1        -19.8990    4.6890   -1.2580 C.ar      1 PP2302      0.0000 
      2 N2        -19.9660    3.3810   -0.9780 N.ar      1 PP2302      0.0000 
      3 C3        -19.9720    2.9660    0.2730 C.ar      1 PP2302      0.0000 
      4 N4        -19.9140    3.8220    1.2810 N.ar      1 PP2302      0.0000 
      5 C5        -19.8460    5.1460    1.0770 C.ar      1 PP2302      0.0000 
      6 C6        -19.8360    5.6310   -0.2350 C.ar      1 PP2302      0.0000 
      7 C8        -19.7750    6.8590   -0.9120 C.2       1 PP2302      0.0000 
      8 N9        -19.8030    6.5760   -2.2190 N.pl3     1 PP2302      0.0000 
      9 N10       -19.8760    5.3600   -2.4080 N.pl3     1 PP2302      0.0000 
     10 C11       -19.6980    8.1660   -0.3990 C.ar      1 PP2302      0.0000 
     11 C12       -19.6770    8.4750    0.9540 C.ar      1 PP2302      0.0000 
     12 C13       -19.6080    9.7880    1.4010 C.ar      1 PP2302      0.0000 
     13 C14       -19.5540   10.8270    0.4870 C.ar      1 PP2302      0.0000 
     14 C15       -19.5740   10.5400   -0.8720 C.ar      1 PP2302      0.0000 
     15 C16       -19.6460    9.2200   -1.3070 C.ar      1 PP2302      0.0000 
     16 C22       -19.9230    4.7360   -3.7760 C.3       1 PP2302      0.0000 
     17 C23       -18.6820    3.8450   -3.9730 C.3       1 PP2302      0.0000 
     18 C24       -21.2140    3.9150   -3.8810 C.3       1 PP2302      0.0000 
     19 C25       -19.9090    5.8610   -4.8210 C.3       1 PP2302      0.0000 
     20 N25       -19.7860    5.9180    2.1510 N.pl3     1 PP2302      0.0000 
     21 CL        -19.4620   12.4630    1.0510 Cl        1 PP2302      0.0000 
     22 H         -20.0242    1.9275    0.4784 H         1 PP2302      0.0000 
     23 H         -19.7663    7.3056   -2.9141 H         1 PP2302      0.0000 
     24 H         -19.7139    7.7034    1.6514 H         1 PP2302      0.0000 
     25 H         -19.5971    9.9869    2.4105 H         1 PP2302      0.0000 
     26 H         -19.5355   11.3048   -1.5600 H         1 PP2302      0.0000 
     27 H         -19.6611    9.0184   -2.3225 H         1 PP2302      0.0000 
     28 H         -19.0045    5.7691    2.7569 H         1 PP2302      0.0000 
     29 H         -20.5276    6.5800    2.2590 H         1 PP2302      0.0000 
     30 H         -17.8332    4.3681   -3.8961 H         1 PP2302      0.0000 
     31 H         -18.6381    3.1136   -3.2925 H         1 PP2302      0.0000 
     32 H         -18.6770    3.4088   -4.8729 H         1 PP2302      0.0000 
     33 H         -21.2997    3.4701   -4.7724 H         1 PP2302      0.0000 
     34 H         -21.2532    3.1944   -3.1888 H         1 PP2302      0.0000 
     35 H         -22.0271    4.4841   -3.7581 H         1 PP2302      0.0000 
     36 H         -19.0868    6.4255   -4.7480 H         1 PP2302      0.0000 
     37 H         -19.9361    5.5017   -5.7538 H         1 PP2302      0.0000 
     38 H         -20.6940    6.4721   -4.7194 H         1 PP2302      0.0000 
@<TRIPOS>BOND
     1    2    1 ar   
     2    6    1 ar   
     3    9    1 1    
     4    3    2 ar   
     5    4    3 ar   
     6   22    3 1    
     7    5    4 ar   
     8    6    5 ar   
     9   20    5 1    
    10    7    6 1    
    11    8    7 2    
    12   10    7 1    
    13    9    8 1    
    14   23    8 1    
    15   16    9 1    
    16   11   10 ar   
    17   15   10 ar   
    18   12   11 ar   
    19   24   11 1    
    20   13   12 ar   
    21   25   12 1    
    22   14   13 ar   
    23   21   13 1    
    24   15   14 ar   
    25   26   14 1    
    26   27   15 1    
    27   17   16 1    
    28   18   16 1    
    29   19   16 1    
    30   30   17 1    
    31   31   17 1    
    32   32   17 1    
    33   33   18 1    
    34   34   18 1    
    35   35   18 1    
    36   36   19 1    
    37   37   19 1    
    38   38   19 1    
    39   28   20 1    
    40   29   20 1    
@<TRIPOS>SUBSTRUCTURE
     1 PP2302      1 GROUP   
@<TRIPOS>SET

