#    Name: 4BUP_2_CAVITY_N1_6.mol2
#    Modification time : Tue Mar 11 20:30:58 2014

@<TRIPOS>MOLECULE
4BUP_2_CAVITY_N1_6.mol2
  128     0     6     0     0
SMALL
NO_CHARGES


@<TRIPOS>ATOM
      1 CA         30.6653   24.4608   65.2160 C.3       5 GLY6        0.0000 
      2 N          31.6112   24.5497   64.0552 N.2       2 ALA2        0.0000 
      3 NZ         32.5570   24.6385   62.8943 N.2       3 LYS4        0.0000 
      4 CA         31.1941   23.1791   63.6104 C.3       5 GLY6        0.0000 
      5 CZ         31.8870   26.6122   62.4996 C.ar      4 PHE5        0.0000 
      6 O          32.8328   26.7011   61.3388 O.2       2 ALA2        0.0000 
      7 CA         31.0824   25.8313   65.6607 C.3       5 GLY6        0.0000 
      8 N          25.9298   27.4630   65.4640 N.2       2 ALA2        0.0000 
      9 CZ         26.8756   27.5519   64.3032 C.ar      4 PHE5        0.0000 
     10 CZ         30.6589   27.9074   59.6599 C.ar      4 PHE5        0.0000 
     11 CZ         31.6047   27.9963   58.4990 C.ar      4 PHE5        0.0000 
     12 DU         25.5128   26.0925   65.0193 H         6 CUB7        0.0000 
     13 CZ         26.4586   26.1814   63.8585 C.ar      4 PHE5        0.0000 
     14 CZ         27.4044   26.2702   62.6976 C.ar      4 PHE5        0.0000 
     15 CZ         28.3502   26.3591   61.5368 C.ar      4 PHE5        0.0000 
     16 CZ         29.2960   26.4480   60.3760 C.ar      4 PHE5        0.0000 
     17 CZ         30.2418   26.5369   59.2151 C.ar      4 PHE5        0.0000 
     18 DU         25.0957   24.7220   64.5746 H         6 CUB7        0.0000 
     19 DU         26.0416   24.8109   63.4138 H         6 CUB7        0.0000 
     20 OG         26.9874   24.8997   62.2529 O.2       1 SER1        0.0000 
     21 OG         28.8790   25.0775   59.9312 O.2       1 SER1        0.0000 
     22 CA         29.8248   25.1664   58.7704 C.3       5 GLY6        0.0000 
     23 CA         24.6787   23.3515   64.1299 C.3       5 GLY6        0.0000 
     24 OG         25.6245   23.4403   62.9690 O.2       1 SER1        0.0000 
     25 OG         26.1533   22.1587   61.3635 O.2       1 SER1        0.0000 
     26 CZ         24.8428   28.0662   64.6246 C.ar      4 PHE5        0.0000 
     27 CZ         28.6261   28.4217   59.9812 C.ar      4 PHE5        0.0000 
     28 CZ         29.5719   28.5105   58.8204 C.ar      4 PHE5        0.0000 
     29 N          23.4800   26.6068   65.3407 N.2       2 ALA2        0.0000 
     30 N          24.4258   26.6956   64.1799 N.2       2 ALA2        0.0000 
     31 CZ         25.3716   26.7845   63.0190 C.ar      4 PHE5        0.0000 
     32 CZ         26.3174   26.8734   61.8582 C.ar      4 PHE5        0.0000 
     33 CZ         27.2632   26.9623   60.6973 C.ar      4 PHE5        0.0000 
     34 CZ         28.2091   27.0512   59.5365 C.ar      4 PHE5        0.0000 
     35 CZ         29.1549   27.1400   58.3757 C.ar      4 PHE5        0.0000 
     36 CZ         30.1007   27.2289   57.2148 C.ar      4 PHE5        0.0000 
     37 NZ         24.0088   25.3251   63.7351 N.2       3 LYS4        0.0000 
     38 CA         24.9546   25.4140   62.5743 C.3       5 GLY6        0.0000 
     39 OG         25.9004   25.5029   61.4135 O.2       1 SER1        0.0000 
     40 OG         26.8462   25.5918   60.2526 O.2       1 SER1        0.0000 
     41 OG         27.7920   25.6806   59.0918 O.2       1 SER1        0.0000 
     42 CA         28.7378   25.7695   57.9310 C.3       5 GLY6        0.0000 
     43 NZ         23.5917   23.9546   63.2904 N.2       3 LYS4        0.0000 
     44 DU         24.5375   24.0435   62.1296 H         6 CUB7        0.0000 
     45 OG         25.4834   24.1324   60.9687 O.2       1 SER1        0.0000 
     46 OG         26.4292   24.2212   59.8079 O.2       1 SER1        0.0000 
     47 OG         27.3750   24.3101   58.6471 O.2       1 SER1        0.0000 
     48 N          24.1205   22.6730   61.6849 N.2       2 ALA2        0.0000 
     49 N          25.0663   22.7619   60.5240 N.2       2 ALA2        0.0000 
     50 N          24.6493   21.3913   60.0793 N.2       2 ALA2        0.0000 
     51 N          24.2323   20.0208   59.6346 N.2       2 ALA2        0.0000 
     52 N          23.8611   29.4638   56.1787 N.2       2 ALA2        0.0000 
     53 N          24.3899   28.1821   54.5731 N.2       2 ALA2        0.0000 
     54 CA         21.3589   21.2407   53.5104 C.3       5 GLY6        0.0000 
     55 CZ         26.5933   28.9359   60.3026 C.ar      4 PHE5        0.0000 
     56 CZ         27.5391   29.0248   59.1418 C.ar      4 PHE5        0.0000 
     57 OG         28.4849   29.1137   57.9809 O.2       1 SER1        0.0000 
     58 CA         24.2846   27.3877   62.1796 C.3       5 GLY6        0.0000 
     59 N          25.2305   27.4765   61.0187 N.2       2 ALA2        0.0000 
     60 N          26.1763   27.5654   59.8579 N.2       2 ALA2        0.0000 
     61 DU         27.1221   27.6543   58.6971 H         6 CUB7        0.0000 
     62 N          28.0679   27.7432   57.5362 N.2       2 ALA2        0.0000 
     63 CA         24.8134   26.1060   60.5740 C.3       5 GLY6        0.0000 
     64 CA         25.7592   26.1949   59.4132 C.3       5 GLY6        0.0000 
     65 NZ         26.7050   26.2838   58.2523 N.2       3 LYS4        0.0000 
     66 NZ         27.6509   26.3727   57.0915 N.2       3 LYS4        0.0000 
     67 CA         23.4506   24.6466   61.2901 C.3       5 GLY6        0.0000 
     68 CA         24.3964   24.7355   60.1293 C.3       5 GLY6        0.0000 
     69 CA         25.3422   24.8244   58.9685 C.3       5 GLY6        0.0000 
     70 NZ         26.2880   24.9133   57.8076 N.2       3 LYS4        0.0000 
     71 N          23.0335   23.2761   60.8454 N.2       2 ALA2        0.0000 
     72 CA         23.9793   23.3650   59.6846 C.3       5 GLY6        0.0000 
     73 N          24.9252   23.4539   58.5237 N.2       2 ALA2        0.0000 
     74 N          22.6165   21.9056   60.4007 N.2       2 ALA2        0.0000 
     75 N          23.5623   21.9945   59.2399 N.2       2 ALA2        0.0000 
     76 N          24.5081   22.0834   58.0790 N.2       2 ALA2        0.0000 
     77 N          24.0911   20.7129   57.6343 N.2       2 ALA2        0.0000 
     78 OG         26.4521   29.6280   58.3023 O.2       1 SER1        0.0000 
     79 N          26.0351   28.2575   57.8576 N.2       2 ALA2        0.0000 
     80 N          26.9809   28.3463   56.6968 N.2       2 ALA2        0.0000 
     81 NZ         25.6181   26.8869   57.4129 N.2       3 LYS4        0.0000 
     82 NZ         26.5639   26.9758   56.2520 N.2       3 LYS4        0.0000 
     83 N          27.5097   27.0647   55.0912 N.2       2 ALA2        0.0000 
     84 NZ         25.2010   25.5164   56.9682 N.2       3 LYS4        0.0000 
     85 CA         23.8382   24.0570   57.6843 C.3       5 GLY6        0.0000 
     86 CZ         22.4753   22.5977   58.4004 C.ar      4 PHE5        0.0000 
     87 CZ         23.4211   22.6865   57.2396 C.ar      4 PHE5        0.0000 
     88 NZ         24.3670   22.7754   56.0787 N.2       3 LYS4        0.0000 
     89 DU         23.0041   21.3160   56.7948 H         6 CUB7        0.0000 
     90 CA         23.9499   21.4049   55.6340 C.3       5 GLY6        0.0000 
     91 N          24.9481   28.8606   57.0181 N.2       2 ALA2        0.0000 
     92 N          25.8939   28.9495   55.8573 N.2       2 ALA2        0.0000 
     93 CA         24.5311   27.4901   56.5734 C.3       5 GLY6        0.0000 
     94 NZ         25.4769   27.5790   55.4126 N.2       3 LYS4        0.0000 
     95 N          26.4227   27.6679   54.2518 N.2       2 ALA2        0.0000 
     96 NZ         24.1141   26.1196   56.1287 N.2       3 LYS4        0.0000 
     97 NZ         25.0599   26.2085   54.9679 N.2       3 LYS4        0.0000 
     98 NZ         26.0057   26.2973   53.8070 N.2       3 LYS4        0.0000 
     99 NZ         23.6970   24.7491   55.6840 N.2       3 LYS4        0.0000 
    100 CZ         22.3342   23.2897   56.4001 C.ar      4 PHE5        0.0000 
    101 CA         23.2800   23.3786   55.2393 C.3       5 GLY6        0.0000 
    102 NZ         24.2258   23.4674   54.0784 N.2       3 LYS4        0.0000 
    103 CA         21.9171   21.9192   55.9554 C.3       5 GLY6        0.0000 
    104 CA         22.8629   22.0080   54.7946 C.3       5 GLY6        0.0000 
    105 N          23.8088   22.0969   53.6337 N.2       2 ALA2        0.0000 
    106 N          22.4459   20.6375   54.3498 N.2       2 ALA2        0.0000 
    107 N          23.3917   20.7264   53.1890 N.2       2 ALA2        0.0000 
    108 CZ         29.5784   25.0639   64.3765 C.ar      4 PHE5        0.0000 
    109 CZ         30.5242   25.1528   63.2157 C.ar      4 PHE5        0.0000 
    110 CZ         31.4700   25.2417   62.0549 C.ar      4 PHE5        0.0000 
    111 NZ         32.4158   25.3306   60.8940 N.2       3 LYS4        0.0000 
    112 DU         28.2155   23.6045   65.0927 H         6 CUB7        0.0000 
    113 OG         29.1613   23.6934   63.9318 O.2       1 SER1        0.0000 
    114 OG         30.1071   23.7823   62.7710 O.2       1 SER1        0.0000 
    115 OG         31.0530   23.8712   61.6102 O.2       1 SER1        0.0000 
    116 CZ         27.9626   26.9487   65.1427 C.ar      4 PHE5        0.0000 
    117 CZ         31.7459   27.3042   60.4993 C.ar      4 PHE5        0.0000 
    118 DU         26.5998   25.4893   65.8588 H         6 CUB7        0.0000 
    119 CZ         27.5456   25.5782   64.6979 C.ar      4 PHE5        0.0000 
    120 CZ         28.4914   25.6671   63.5371 C.ar      4 PHE5        0.0000 
    121 CZ         29.4372   25.7560   62.3763 C.ar      4 PHE5        0.0000 
    122 CZ         30.3830   25.8448   61.2154 C.ar      4 PHE5        0.0000 
    123 CZ         31.3288   25.9337   60.0546 C.ar      4 PHE5        0.0000 
    124 DU         26.1827   24.1188   65.4140 H         6 CUB7        0.0000 
    125 OG         27.1285   24.2077   64.2532 O.2       1 SER1        0.0000 
    126 OG         28.0743   24.2966   63.0924 O.2       1 SER1        0.0000 
    127 OG         26.7115   22.8372   63.8085 O.2       1 SER1        0.0000 
    128 N          32.6981   23.9465   64.8946 N.2       2 ALA2        0.0000 
@<TRIPOS>BOND
@<TRIPOS>SUBSTRUCTURE
     1 SER1       20 GROUP   
     2 ALA2        2 GROUP   
     3 LYS4        3 GROUP   
     4 PHE5        5 GROUP   
     5 GLY6        1 GROUP   
     6 CUB7       12 GROUP   
@<TRIPOS>SET

