#    Name: 4bup_SAM_2_INTS_M
#    Modification time : Tue Mar 25 08:24:46 2014

@<TRIPOS>MOLECULE
4bup_SAM_2_INTS_M
   71     0    12     0     0
SMALL
NO_CHARGES


@<TRIPOS>ATOM
      1 OD1        27.0545   25.6420   54.5030 O.co2     3 ASC3        0.0000 
      2 OD1        27.4520   27.0590   53.7860 O.co2    11 ASL3        0.0000 
      3 OD1        26.6570   24.2250   55.2200 O.co2     7 ASP3        0.0000 
      4 OD1        28.0665   25.7985   54.0950 O.co2     3 ASC3        0.0000 
      5 OD1        28.6810   24.5380   54.4040 O.co2     7 ASP3        0.0000 
      6 O          27.0545   25.6420   54.5030 O.2       1 ALC1        0.0000 
      7 O          27.4520   27.0590   53.7860 O.2       9 ALL1        0.0000 
      8 O          26.6570   24.2250   55.2200 O.2       5 ALP1        0.0000 
      9 O          28.0665   25.7985   54.0950 O.2       1 ALC1        0.0000 
     10 O          28.6810   24.5380   54.4040 O.2       5 ALP1        0.0000 
     11 O          27.8335   27.4440   52.4150 O.2       1 ALC1        0.0000 
     12 O          28.2150   27.8290   51.0440 O.2       5 ALP1        0.0000 
     13 O          28.2795   28.1570   54.1595 O.2       1 ALC1        0.0000 
     14 O          29.1070   29.2550   54.5330 O.2       5 ALP1        0.0000 
     15 N          26.3750   25.6355   51.4280 N.am      2 SEC2        0.0000 
     16 N          25.4580   25.8820   52.4040 N.am     10 SEL2        0.0000 
     17 N          27.2920   25.3890   50.4520 N.am      6 SEP2        0.0000 
     18 N          22.8375   26.3730   53.8915 N.am      2 SEC2        0.0000 
     19 N          24.0340   25.9680   53.9680 N.am     10 SEL2        0.0000 
     20 N          21.6410   26.7780   53.8150 N.am      6 SEP2        0.0000 
     21 CA         27.6580   30.8055   55.2570 C.3       4 GLC5        0.0000 
     22 CA         25.8140   29.5220   55.3500 C.3      12 GLL5        0.0000 
     23 CA         29.5020   32.0890   55.1640 C.3       8 GLP5        0.0000 
     24 CA         22.7450   28.1190   57.0380 C.3       4 GLC5        0.0000 
     25 CA         24.6340   29.0520   56.6480 C.3      12 GLL5        0.0000 
     26 CA         20.8560   27.1860   57.4280 C.3       8 GLP5        0.0000 
     27 CA         22.1800   30.6645   57.7460 C.3       4 GLC5        0.0000 
     28 CA         23.9540   30.6690   57.1310 C.3      12 GLL5        0.0000 
     29 CA         20.4060   30.6600   58.3610 C.3       8 GLP5        0.0000 
     30 CA         22.7820   31.6445   55.5470 C.3       4 GLC5        0.0000 
     31 CA         21.6100   32.6200   53.9630 C.3       8 GLP5        0.0000 
     32 CA         25.5945   31.6305   57.8605 C.3       4 GLC5        0.0000 
     33 CA         27.2350   32.5920   58.5900 C.3       8 GLP5        0.0000 
     34 CA         26.4870   30.3505   58.9030 C.3       4 GLC5        0.0000 
     35 CA         25.7800   28.8150   58.0380 C.3      12 GLL5        0.0000 
     36 CA         27.1940   31.8860   59.7680 C.3       8 GLP5        0.0000 
     37 O          28.0150   23.8110   59.8680 O.2       1 ALC1        0.0000 
     38 O          27.4860   24.8620   58.8900 O.2       9 ALL1        0.0000 
     39 O          28.5440   22.7600   60.8460 O.2       5 ALP1        0.0000 
     40 CA         30.1095   26.4495   56.6870 C.3       4 GLC5        0.0000 
     41 CA         28.5700   26.6800   57.8680 C.3      12 GLL5        0.0000 
     42 CA         31.6490   26.2190   55.5060 C.3       8 GLP5        0.0000 
     43 N          30.5585   31.1595   57.7115 N.am      2 SEC2        0.0000 
     44 N          30.6430   29.6560   58.1290 N.am     10 SEL2        0.0000 
     45 N          30.4740   32.6630   57.2940 N.am      6 SEP2        0.0000 
     46 CA         33.6350   30.1360   61.2575 C.3       4 GLC5        0.0000 
     47 CA         32.3600   29.0960   59.8730 C.3      12 GLL5        0.0000 
     48 CA         34.9100   31.1760   62.6420 C.3       8 GLP5        0.0000 
     49 O          33.1240   31.4565   58.9215 O.2       1 ALC1        0.0000 
     50 O          33.0300   30.2520   59.8500 O.2       9 ALL1        0.0000 
     51 O          33.2180   32.6610   57.9930 O.2       5 ALP1        0.0000 
     52 N          34.1515   27.9850   61.3520 N.am      2 SEC2        0.0000 
     53 N          32.7630   28.0910   60.7300 N.am     10 SEL2        0.0000 
     54 N          35.5400   27.8790   61.9740 N.am      6 SEP2        0.0000 
     55 CA         31.9300   25.5835   58.9210 C.3       4 GLC5        0.0000 
     56 CA         32.0890   26.8870   60.7470 C.3      12 GLL5        0.0000 
     57 CA         31.7710   24.2800   57.0950 C.3       8 GLP5        0.0000 
     58 CA         34.0015   26.4505   60.5840 C.3       4 GLC5        0.0000 
     59 CA         35.9140   26.0140   60.4210 C.3       8 GLP5        0.0000 
     60 CA         31.1795   25.9700   58.0890 C.3       4 GLC5        0.0000 
     61 CA         30.5880   27.6600   59.0830 C.3      12 GLL5        0.0000 
     62 CA         24.9925   30.1043   53.1865 C.3       4 GLC5        0.0000 
     63 CA         24.2680   31.1270   51.6430 C.3       8 GLP5        0.0000 
     64 CA         24.2800   27.1385   58.5652 C.3       4 GLC5        0.0000 
     65 CA         22.4780   26.1630   59.0560 C.3       8 GLP5        0.0000 
     66 CA         28.6562   27.5793   60.8750 C.3       4 GLC5        0.0000 
     67 CA         26.9710   27.1170   59.4830 C.3      12 GLL5        0.0000 
     68 CA         29.8030   28.5420   62.4270 C.3       8 GLP5        0.0000 
     69 CA         31.2020   30.9950   59.5772 C.3       4 GLC5        0.0000 
     70 CA         31.2560   28.8760   59.0460 C.3      12 GLL5        0.0000 
     71 CA         30.5960   33.0040   59.6950 C.3       8 GLP5        0.0000 
@<TRIPOS>BOND
@<TRIPOS>SUBSTRUCTURE
     1 ALC1        6 GROUP        1 X    ALC  0     ROOT ALC X 1
     2 SEC2       15 GROUP        1 X    SEC  0     **** SEC X 2
     3 ASC3        1 GROUP        1 X    ASC  0     **** ASC X 3
     4 GLC5       21 GROUP        1 X    GLC  0     **** GLC X 6
     5 ALP1        8 GROUP        1 Y    ALP  0     ROOT ALP Y 8
     6 SEP2       17 GROUP        1 Y    SEP  0     **** SEP Y 9
     7 ASP3        3 GROUP        1 Y    ASP  0     **** ASP Y 10
     8 GLP5       23 GROUP        1 Y    GLP  0     **** GLP Y 13
     9 ALL1        7 GROUP        1 Z    ALL  0     ROOT ALL Z 15
    10 SEL2       16 GROUP        1 Z    SEL  0     **** SEL Z 16
    11 ASL3        2 GROUP        1 Z    ASL  0     **** ASL Z 17
    12 GLL5       22 GROUP        1 Z    GLL  0     **** GLL Z 20
@<TRIPOS>SET

