#    Name: 4bup_SAM_2_ligand
#    Modification time : Tue Mar 25 08:24:46 2014

@<TRIPOS>MOLECULE
4bup_SAM_2_ligand
   50    52     1     0     0
SMALL
NO_CHARGES


@<TRIPOS>ATOM
      1 N          27.4520   27.0590   53.7860 N.4       1 SAM500      0.0000 
      2 CA         26.0880   27.2050   54.2790 C.3       1 SAM500      0.0000 
      3 C          25.1370   26.2980   53.5130 C.2       1 SAM500      0.0000 
      4 O          25.4580   25.8820   52.4040 O.co2     1 SAM500      0.0000 
      5 OXT        24.0340   25.9680   53.9680 O.co2     1 SAM500      0.0000 
      6 CB         25.6200   28.6410   54.1100 C.3       1 SAM500      0.0000 
      7 CG         25.8140   29.5220   55.3500 C.3       1 SAM500      0.0000 
      8 SD         24.6340   29.0520   56.6480 S.3       1 SAM500      0.0000 
      9 CE         23.9540   30.6690   57.1310 C.3       1 SAM500      0.0000 
     10 C5'        25.7800   28.8150   58.0380 C.3       1 SAM500      0.0000 
     11 C4'        26.3840   27.4130   58.1110 C.3       1 SAM500      0.0000 
     12 O4'        27.4700   27.2920   57.2130 O.3       1 SAM500      0.0000 
     13 C3'        26.9710   27.1170   59.4830 C.3       1 SAM500      0.0000 
     14 O3'        26.0390   26.5640   60.3570 O.3       1 SAM500      0.0000 
     15 C2'        28.0480   26.1160   59.1630 C.3       1 SAM500      0.0000 
     16 O2'        27.4860   24.8620   58.8900 O.3       1 SAM500      0.0000 
     17 C1'        28.5700   26.6800   57.8680 C.3       1 SAM500      0.0000 
     18 N9         29.5640   27.7260   58.1730 N.pl3     1 SAM500      0.0000 
     19 C8         29.6060   28.9740   57.6020 C.2       1 SAM500      0.0000 
     20 N7         30.6430   29.6560   58.1290 N.2       1 SAM500      0.0000 
     21 C5         31.2560   28.8760   59.0460 C.ar      1 SAM500      0.0000 
     22 C6         32.3600   29.0960   59.8730 C.ar      1 SAM500      0.0000 
     23 N6         33.0300   30.2520   59.8500 N.pl3     1 SAM500      0.0000 
     24 N1         32.7630   28.0910   60.7300 N.ar      1 SAM500      0.0000 
     25 C2         32.0890   26.8870   60.7470 C.ar      1 SAM500      0.0000 
     26 N3         30.9950   26.6930   59.9330 N.ar      1 SAM500      0.0000 
     27 C4         30.5880   27.6600   59.0830 C.ar      1 SAM500      0.0000 
     28 H          26.0283   26.9523   55.3250 H         1 SAM500      0.0000 
     29 H          24.5486   28.6434   53.8402 H         1 SAM500      0.0000 
     30 H          26.1604   29.1008   53.2631 H         1 SAM500      0.0000 
     31 H          25.5790   30.5441   55.1861 H         1 SAM500      0.0000 
     32 H          26.7503   29.3805   55.8296 H         1 SAM500      0.0000 
     33 H          25.1626   29.0607   58.8868 H         1 SAM500      0.0000 
     34 H          26.5109   29.5884   57.8652 H         1 SAM500      0.0000 
     35 H          25.6260   26.6857   57.9060 H         1 SAM500      0.0000 
     36 H          27.4427   28.0034   59.8360 H         1 SAM500      0.0000 
     37 H          28.7876   26.1445   59.8764 H         1 SAM500      0.0000 
     38 H          28.9990   25.9079   57.2947 H         1 SAM500      0.0000 
     39 H          28.9895   29.2959   56.9356 H         1 SAM500      0.0000 
     40 H          33.4250   30.5490   60.7194 H         1 SAM500      0.0000 
     41 H          33.0762   30.7163   58.9655 H         1 SAM500      0.0000 
     42 H          32.4072   26.1285   61.3734 H         1 SAM500      0.0000 
     43 H          28.0899   27.6523   54.2771 H         1 SAM500      0.0000 
     44 H          27.7855   26.1218   53.8882 H         1 SAM500      0.0000 
     45 H          27.5232   27.2913   52.8160 H         1 SAM500      0.0000 
     46 H          24.6762   31.3366   57.3118 H         1 SAM500      0.0000 
     47 H          23.3704   31.0549   56.4165 H         1 SAM500      0.0000 
     48 H          23.3990   30.6057   57.9604 H         1 SAM500      0.0000 
     49 H          26.2316   25.5827   60.3535 H         1 SAM500      0.0000 
     50 H          28.1953   24.2015   59.1363 H         1 SAM500      0.0000 
@<TRIPOS>BOND
     1    2    1 1    
     2   43    1 1    
     3   44    1 1    
     4   45    1 1    
     5    3    2 1    
     6    6    2 1    
     7   28    2 1    
     8    4    3 ar   
     9    5    3 ar   
    10    7    6 1    
    11   29    6 1    
    12   30    6 1    
    13    8    7 1    
    14   31    7 1    
    15   32    7 1    
    16    9    8 1    
    17   10    8 1    
    18   46    9 1    
    19   47    9 1    
    20   48    9 1    
    21   11   10 1    
    22   33   10 1    
    23   34   10 1    
    24   12   11 1    
    25   13   11 1    
    26   35   11 1    
    27   17   12 1    
    28   14   13 1    
    29   15   13 1    
    30   36   13 1    
    31   49   14 1    
    32   16   15 1    
    33   17   15 1    
    34   37   15 1    
    35   50   16 1    
    36   18   17 1    
    37   38   17 1    
    38   19   18 1    
    39   27   18 1    
    40   20   19 2    
    41   39   19 1    
    42   21   20 1    
    43   22   21 ar   
    44   27   21 ar   
    45   23   22 1    
    46   24   22 ar   
    47   40   23 1    
    48   41   23 1    
    49   25   24 ar   
    50   26   25 ar   
    51   42   25 1    
    52   27   26 ar   
@<TRIPOS>SUBSTRUCTURE
     1 SAM500      1 GROUP   
@<TRIPOS>SET

