#    Name: 4nwz_FAD_3_INTS_M
#    Modification time : Tue Mar 25 13:22:03 2014

@<TRIPOS>MOLECULE
4nwz_FAD_3_INTS_M
  110     0     9     0     0
SMALL
NO_CHARGES


@<TRIPOS>ATOM
      1 N          46.8000   -5.4425   60.9595 N.am      2 SEC2        0.0000 
      2 N          47.1930   -5.6930   59.4480 N.am      8 SEL2        0.0000 
      3 N          46.4070   -5.1920   62.4710 N.am      5 SEP2        0.0000 
      4 CA         49.2770   -2.4620   55.3045 C.3       3 GLC5        0.0000 
      5 CA         49.2950   -3.3610   57.3560 C.3       9 GLL5        0.0000 
      6 CA         49.2590   -1.5630   53.2530 C.3       6 GLP5        0.0000 
      7 CA         47.6445   -3.0485   56.1010 C.3       3 GLC5        0.0000 
      8 CA         45.9940   -2.7360   54.8460 C.3       6 GLP5        0.0000 
      9 CA         52.0590   -2.8370   56.3500 C.3       3 GLC5        0.0000 
     10 CA         50.5920   -2.6460   57.7830 C.3       9 GLL5        0.0000 
     11 CA         53.5260   -3.0280   54.9170 C.3       6 GLP5        0.0000 
     12 CA         50.8265   -4.1420   58.9525 C.3       3 GLC5        0.0000 
     13 CA         50.5620   -1.9290   59.1400 C.3       9 GLL5        0.0000 
     14 CA         51.0910   -6.3550   58.7650 C.3       6 GLP5        0.0000 
     15 O          53.0240   -1.9090   59.1825 O.2       1 ALC1        0.0000 
     16 O          51.7560   -2.2530   59.8390 O.2       7 ALL1        0.0000 
     17 O          54.2920   -1.5650   58.5260 O.2       4 ALP1        0.0000 
     18 CA         52.4810   -1.7495   56.2415 C.3       3 GLC5        0.0000 
     19 CA         51.4360   -0.4710   57.5660 C.3       9 GLL5        0.0000 
     20 CA         53.0500    5.4075   55.0550 C.3       3 GLC5        0.0000 
     21 CA         52.2700    3.4650   54.7660 C.3       9 GLL5        0.0000 
     22 CA         53.8300    7.3500   55.3440 C.3       6 GLP5        0.0000 
     23 CA         53.2455    3.6435   52.9410 C.3       3 GLC5        0.0000 
     24 CA         54.2210    3.8220   51.1160 C.3       6 GLP5        0.0000 
     25 O          52.3115    5.4805   52.9755 O.2       1 ALC1        0.0000 
     26 O          51.7130    4.5250   54.1600 O.2       7 ALL1        0.0000 
     27 O          52.9100    6.4360   51.7910 O.2       4 ALP1        0.0000 
     28 N          54.3775    4.1550   53.8465 N.am      2 SEC2        0.0000 
     29 N          53.5950    3.2200   54.6800 N.am      8 SEL2        0.0000 
     30 N          55.1600    5.0900   53.0130 N.am      5 SEP2        0.0000 
     31 CA         55.4515    0.9480   56.3670 C.3       3 GLC5        0.0000 
     32 CA         54.1410    2.1300   55.2660 C.3       9 GLL5        0.0000 
     33 CA         56.7620   -0.2340   57.4680 C.3       6 GLP5        0.0000 
     34 CA         54.3375    2.9860   57.0085 C.3       3 GLC5        0.0000 
     35 CA         54.5340    3.8420   58.7510 C.3       6 GLP5        0.0000 
     36 CA         55.0460    4.0575   55.2070 C.3       3 GLC5        0.0000 
     37 CA         55.9510    5.9850   55.1480 C.3       6 GLP5        0.0000 
     38 CA         54.6435    2.3835   53.3035 C.3       3 GLC5        0.0000 
     39 CA         55.1460    2.6370   51.3410 C.3       6 GLP5        0.0000 
     40 CA         52.9540    1.1565   53.9895 C.3       3 GLC5        0.0000 
     41 CA         51.7670    0.1830   52.7130 C.3       6 GLP5        0.0000 
     42 N          54.6160    1.5020   57.2000 N.am      2 SEC2        0.0000 
     43 N          53.4210    1.2400   55.9880 N.am      8 SEL2        0.0000 
     44 N          55.8110    1.7640   58.4120 N.am      5 SEP2        0.0000 
     45 N          41.1230  -10.7030   60.0200 N.am      2 SEC2        0.0000 
     46 N          40.1340  -10.4220   61.2670 N.am      8 SEL2        0.0000 
     47 N          42.1120  -10.9840   58.7730 N.am      5 SEP2        0.0000 
     48 N          41.1400  -11.7895   59.7275 N.am      2 SEC2        0.0000 
     49 N          40.1680  -12.5950   60.6820 N.am      8 SEL2        0.0000 
     50 N          41.4350  -13.1220   59.7400 N.am      2 SEC2        0.0000 
     51 N          42.7020  -13.6490   58.7980 N.am      5 SEP2        0.0000 
     52 N          38.7025  -11.9860   66.5645 N.am      2 SEC2        0.0000 
     53 N          39.0280  -11.5500   64.9570 N.am      8 SEL2        0.0000 
     54 N          38.3770  -12.4220   68.1720 N.am      5 SEP2        0.0000 
     55 N          39.1310  -10.7260   66.2455 N.am      2 SEC2        0.0000 
     56 N          39.2340   -9.9020   67.5340 N.am      5 SEP2        0.0000 
     57 CA         38.9890   -4.2370   68.2100 C.3       3 GLC5        0.0000 
     58 CA         39.3420   -4.4750   66.2790 C.3       9 GLL5        0.0000 
     59 CA         38.6360   -3.9990   70.1410 C.3       6 GLP5        0.0000 
     60 CA         39.9285   -2.5275   66.6735 C.3       3 GLC5        0.0000 
     61 CA         40.5150   -0.5800   67.0680 C.3       6 GLP5        0.0000 
     62 CA         38.1010   -3.1600   64.3535 C.3       3 GLC5        0.0000 
     63 CA         40.1520   -3.4290   63.5820 C.3       9 GLL5        0.0000 
     64 CA         36.0500   -2.8910   65.1250 C.3       6 GLP5        0.0000 
     65 CA         41.4340   -8.5105   63.4465 C.3       3 GLC5        0.0000 
     66 CA         39.9820   -7.1380   62.9130 C.3       9 GLL5        0.0000 
     67 CA         42.8860   -9.8830   63.9800 C.3       6 GLP5        0.0000 
     68 CA         40.3620   -9.1265   58.9260 C.3       3 GLC5        0.0000 
     69 CA         40.5420   -7.6970   60.4780 C.3       9 GLL5        0.0000 
     70 CA         40.1820  -10.5560   57.3740 C.3       6 GLP5        0.0000 
     71 CA         42.4730   -8.7750   62.1490 C.3       3 GLC5        0.0000 
     72 CA         42.0600   -7.6670   60.3180 C.3       9 GLL5        0.0000 
     73 CA         42.9115   -9.4670   60.4365 C.3       3 GLC5        0.0000 
     74 CA         43.7630  -11.2670   60.5550 C.3       6 GLP5        0.0000 
     75 CA         41.3445   -8.9040   58.1500 C.3       3 GLC5        0.0000 
     76 CA         42.5070   -7.2520   58.9260 C.3       9 GLL5        0.0000 
     77 O          41.8680   -7.4465   56.6725 O.2       1 ALC1        0.0000 
     78 O          41.8270   -8.0590   57.9680 O.2       7 ALL1        0.0000 
     79 O          41.9090   -6.8340   55.3770 O.2       4 ALP1        0.0000 
     80 CA         43.5915   -6.1325   55.7645 C.3       3 GLC5        0.0000 
     81 CA         44.5100   -7.3620   57.3690 C.3       9 GLL5        0.0000 
     82 CA         42.6730   -4.9030   54.1600 C.3       6 GLP5        0.0000 
     83 CA         45.0495   -9.1345   56.5195 C.3       3 GLC5        0.0000 
     84 CA         45.5890  -10.9070   55.6700 C.3       6 GLP5        0.0000 
     85 N          48.9690   -8.2630   56.4280 N.am      2 SEC2        0.0000 
     86 N          48.2790   -6.8170   56.6800 N.am      8 SEL2        0.0000 
     87 N          49.6590   -9.7090   56.1760 N.am      5 SEP2        0.0000 
     88 N          45.1060   -6.5985   54.2470 N.am      2 SEC2        0.0000 
     89 N          46.1120   -6.5410   55.2420 N.am      8 SEL2        0.0000 
     90 N          44.1000   -6.6560   53.2520 N.am      5 SEP2        0.0000 
     91 CA         50.5172   -4.6793   58.1673 C.3       3 GLC5        0.0000 
     92 CA         49.7133   -1.1763   60.7785 C.3       3 GLC5        0.0000 
     93 CA         48.7960   -1.1620   62.5530 C.3       6 GLP5        0.0000 
     94 CA         51.8541    3.4999   57.1649 C.3       3 GLC5        0.0000 
     95 CA         51.4610    2.5620   55.5910 C.3       9 GLL5        0.0000 
     96 CA         51.7160    4.7880   58.6520 C.3       6 GLP5        0.0000 
     97 CA         51.8796    1.1974   54.1954 C.3       3 GLC5        0.0000 
     98 CA         41.1191   -7.2378   65.3930 C.3       3 GLC5        0.0000 
     99 CA         39.5820   -7.6170   64.2490 C.3       9 GLL5        0.0000 
    100 CA         42.7160   -8.1850   65.8390 C.3       6 GLP5        0.0000 
    101 CA         37.7515   -3.9145   65.4125 C.3       3 GLC5        0.0000 
    102 CA         39.5640   -5.4010   65.1210 C.3       9 GLL5        0.0000 
    103 CA         42.1124   -4.7462   63.0367 C.3       3 GLC5        0.0000 
    104 CA         39.9570   -4.8990   63.7900 C.3       9 GLL5        0.0000 
    105 CA         44.1170   -4.5220   62.8600 C.3       6 GLP5        0.0000 
    106 CA         45.6305   -8.1615   59.4035 C.3       3 GLC5        0.0000 
    107 CA         44.0120   -7.4560   58.7990 C.3       9 GLL5        0.0000 
    108 CA         47.0000   -8.9140   60.7230 C.3       6 GLP5        0.0000 
    109 CA         43.6844   -9.3700   58.5914 C.3       3 GLC5        0.0000 
    110 CA         43.4840  -11.3820   59.0670 C.3       6 GLP5        0.0000 
@<TRIPOS>BOND
@<TRIPOS>SUBSTRUCTURE
     1 ALC1       15 GROUP        1 X    ALC  0     ROOT ALC X 1
     2 SEC2        1 GROUP        1 X    SEC  0     **** SEC X 2
     3 GLC5        4 GROUP        1 X    GLC  0     **** GLC X 6
     4 ALP1       17 GROUP        1 Y    ALP  0     ROOT ALP Y 8
     5 SEP2        3 GROUP        1 Y    SEP  0     **** SEP Y 9
     6 GLP5        6 GROUP        1 Y    GLP  0     **** GLP Y 13
     7 ALL1       16 GROUP        1 Z    ALL  0     ROOT ALL Z 15
     8 SEL2        2 GROUP        1 Z    SEL  0     **** SEL Z 16
     9 GLL5        5 GROUP        1 Z    GLL  0     **** GLL Z 20
@<TRIPOS>SET

