#    Name: 4nwz_FAD_3_ligand
#    Modification time : Tue Mar 25 13:22:03 2014

@<TRIPOS>MOLECULE
4nwz_FAD_3_ligand
   84    89     1     0     0
SMALL
NO_CHARGES


@<TRIPOS>ATOM
      1 PA         47.1400   -4.4750   58.5820 P.3       1 FAD601      0.0000 
      2 O1A        47.1930   -5.6930   59.4480 O.co2     1 FAD601      0.0000 
      3 O2A        46.2630   -3.3760   59.0620 O.co2     1 FAD601      0.0000 
      4 O5B        48.5960   -3.8150   58.5070 O.3       1 FAD601      0.0000 
      5 C5B        49.2950   -3.3610   57.3560 C.3       1 FAD601      0.0000 
      6 C4B        50.5920   -2.6460   57.7830 C.3       1 FAD601      0.0000 
      7 O4B        50.9680   -1.6250   56.8530 O.3       1 FAD601      0.0000 
      8 C3B        50.5620   -1.9290   59.1400 C.3       1 FAD601      0.0000 
      9 O3B        51.7560   -2.2530   59.8390 O.3       1 FAD601      0.0000 
     10 C2B        50.6990   -0.4520   58.8680 C.3       1 FAD601      0.0000 
     11 O2B        51.4990    0.2260   59.8420 O.3       1 FAD601      0.0000 
     12 C1B        51.4360   -0.4710   57.5660 C.3       1 FAD601      0.0000 
     13 N9A        51.1940    0.7610   56.8430 N.pl3     1 FAD601      0.0000 
     14 C8A        50.0090    1.3750   56.6980 C.2       1 FAD601      0.0000 
     15 N7A        50.1840    2.4710   55.9380 N.2       1 FAD601      0.0000 
     16 C5A        51.4610    2.5620   55.5910 C.ar      1 FAD601      0.0000 
     17 C6A        52.2700    3.4650   54.7660 C.ar      1 FAD601      0.0000 
     18 N6A        51.7130    4.5250   54.1600 N.pl3     1 FAD601      0.0000 
     19 N1A        53.5950    3.2200   54.6800 N.ar      1 FAD601      0.0000 
     20 C2A        54.1410    2.1300   55.2660 C.ar      1 FAD601      0.0000 
     21 N3A        53.4210    1.2400   55.9880 N.ar      1 FAD601      0.0000 
     22 C4A        52.1190    1.4100   56.1770 C.ar      1 FAD601      0.0000 
     23 N1         40.1340  -10.4220   61.2670 N.2       1 FAD601      0.0000 
     24 C2         39.9660  -11.7290   61.5800 C.2       1 FAD601      0.0000 
     25 O2         40.1680  -12.5950   60.6820 O.2       1 FAD601      0.0000 
     26 N3         39.6070  -12.1160   62.8230 N.am      1 FAD601      0.0000 
     27 C4         39.4170  -11.2340   63.8120 C.2       1 FAD601      0.0000 
     28 O4         39.0280  -11.5500   64.9570 O.2       1 FAD601      0.0000 
     29 C4X        39.5870   -9.8160   63.5210 C.2       1 FAD601      0.0000 
     30 N5         39.4060   -8.9200   64.4850 N.2       1 FAD601      0.0000 
     31 C5X        39.5820   -7.6170   64.2490 C.ar      1 FAD601      0.0000 
     32 C6         39.3790   -6.7430   65.2970 C.ar      1 FAD601      0.0000 
     33 C7         39.5640   -5.4010   65.1210 C.ar      1 FAD601      0.0000 
     34 C7M        39.3420   -4.4750   66.2790 C.3       1 FAD601      0.0000 
     35 C8         39.9570   -4.8990   63.7900 C.ar      1 FAD601      0.0000 
     36 C8M        40.1520   -3.4290   63.5820 C.3       1 FAD601      0.0000 
     37 C9         40.1610   -5.7770   62.7410 C.ar      1 FAD601      0.0000 
     38 C9A        39.9820   -7.1380   62.9130 C.ar      1 FAD601      0.0000 
     39 N10        40.1560   -8.0820   61.8590 N.pl3     1 FAD601      0.0000 
     40 C10        39.9560   -9.4370   62.1640 C.2       1 FAD601      0.0000 
     41 C1'        40.5420   -7.6970   60.4780 C.3       1 FAD601      0.0000 
     42 C2'        42.0600   -7.6670   60.3180 C.3       1 FAD601      0.0000 
     43 O2'        42.6330   -6.7670   61.2630 O.3       1 FAD601      0.0000 
     44 C3'        42.5070   -7.2520   58.9260 C.3       1 FAD601      0.0000 
     45 O3'        41.8270   -8.0590   57.9680 O.3       1 FAD601      0.0000 
     46 C4'        44.0120   -7.4560   58.7990 C.3       1 FAD601      0.0000 
     47 O4'        44.7510   -6.5020   59.6040 O.3       1 FAD601      0.0000 
     48 C5'        44.5100   -7.3620   57.3690 C.3       1 FAD601      0.0000 
     49 O5'        45.9250   -7.3570   57.4900 O.3       1 FAD601      0.0000 
     50 P          46.8200   -6.4540   56.5580 P.3       1 FAD601      0.0000 
     51 O1P        48.2790   -6.8170   56.6800 O.co2     1 FAD601      0.0000 
     52 O2P        46.1120   -6.5410   55.2420 O.co2     1 FAD601      0.0000 
     53 O3P        46.6960   -4.9340   57.1100 O.3       1 FAD601      0.0000 
     54 H          48.7063   -2.6463   56.7701 H         1 FAD601      0.0000 
     55 H          49.5803   -4.1859   56.6936 H         1 FAD601      0.0000 
     56 H          51.3999   -3.3882   57.8344 H         1 FAD601      0.0000 
     57 H          49.7013   -2.1314   59.6510 H         1 FAD601      0.0000 
     58 H          49.7506   -0.0348   58.7134 H         1 FAD601      0.0000 
     59 H          52.4911   -0.5779   57.7919 H         1 FAD601      0.0000 
     60 H          49.1675    1.0794   57.0768 H         1 FAD601      0.0000 
     61 H          52.1538    4.8314   53.3162 H         1 FAD601      0.0000 
     62 H          50.9070    4.9137   54.6063 H         1 FAD601      0.0000 
     63 H          55.1842    1.9644   55.1545 H         1 FAD601      0.0000 
     64 H          39.4734  -13.1465   63.0155 H         1 FAD601      0.0000 
     65 H          39.0849   -7.1122   66.2196 H         1 FAD601      0.0000 
     66 H          40.4511   -5.4116   61.8161 H         1 FAD601      0.0000 
     67 H          40.1464   -6.7047   60.2367 H         1 FAD601      0.0000 
     68 H          40.1295   -8.4103   59.7565 H         1 FAD601      0.0000 
     69 H          42.4357   -8.6792   60.4985 H         1 FAD601      0.0000 
     70 H          42.2896   -6.2115   58.7950 H         1 FAD601      0.0000 
     71 H          44.2441   -8.4735   59.1565 H         1 FAD601      0.0000 
     72 H          44.1328   -6.4506   56.9377 H         1 FAD601      0.0000 
     73 H          44.1485   -8.2190   56.8269 H         1 FAD601      0.0000 
     74 H          39.9457   -4.6892   67.0469 H         1 FAD601      0.0000 
     75 H          39.5117   -3.5215   66.0299 H         1 FAD601      0.0000 
     76 H          38.4036   -4.5261   66.6208 H         1 FAD601      0.0000 
     77 H          40.8671   -3.0614   64.1765 H         1 FAD601      0.0000 
     78 H          40.4167   -3.2190   62.6408 H         1 FAD601      0.0000 
     79 H          39.3173   -2.9128   63.7739 H         1 FAD601      0.0000 
     80 H          52.4826   -2.1850   59.1552 H         1 FAD601      0.0000 
     81 H          51.8027   -0.4897   60.4709 H         1 FAD601      0.0000 
     82 H          43.6215   -6.8676   61.1495 H         1 FAD601      0.0000 
     83 H          41.8722   -7.5404   57.1142 H         1 FAD601      0.0000 
     84 H          45.6694   -6.4864   59.2086 H         1 FAD601      0.0000 
@<TRIPOS>BOND
     1    2    1 ar   
     2    3    1 ar   
     3    4    1 1    
     4   53    1 1    
     5    5    4 1    
     6    6    5 1    
     7   54    5 1    
     8   55    5 1    
     9    7    6 1    
    10    8    6 1    
    11   56    6 1    
    12   12    7 1    
    13    9    8 1    
    14   10    8 1    
    15   57    8 1    
    16   80    9 1    
    17   11   10 1    
    18   12   10 1    
    19   58   10 1    
    20   81   11 1    
    21   13   12 1    
    22   59   12 1    
    23   14   13 1    
    24   22   13 1    
    25   15   14 2    
    26   60   14 1    
    27   16   15 1    
    28   17   16 ar   
    29   22   16 ar   
    30   18   17 1    
    31   19   17 ar   
    32   61   18 1    
    33   62   18 1    
    34   20   19 ar   
    35   21   20 ar   
    36   63   20 1    
    37   22   21 ar   
    38   24   23 1    
    39   40   23 2    
    40   25   24 2    
    41   26   24 am   
    42   27   26 am   
    43   64   26 1    
    44   28   27 2    
    45   29   27 1    
    46   30   29 2    
    47   40   29 1    
    48   31   30 1    
    49   32   31 ar   
    50   38   31 ar   
    51   33   32 ar   
    52   65   32 1    
    53   34   33 1    
    54   35   33 ar   
    55   74   34 1    
    56   75   34 1    
    57   76   34 1    
    58   36   35 1    
    59   37   35 ar   
    60   77   36 1    
    61   78   36 1    
    62   79   36 1    
    63   38   37 ar   
    64   66   37 1    
    65   39   38 1    
    66   40   39 1    
    67   41   39 1    
    68   42   41 1    
    69   67   41 1    
    70   68   41 1    
    71   43   42 1    
    72   44   42 1    
    73   69   42 1    
    74   82   43 1    
    75   45   44 1    
    76   46   44 1    
    77   70   44 1    
    78   83   45 1    
    79   47   46 1    
    80   48   46 1    
    81   71   46 1    
    82   84   47 1    
    83   49   48 1    
    84   72   48 1    
    85   73   48 1    
    86   50   49 1    
    87   51   50 ar   
    88   52   50 ar   
    89   53   50 1    
@<TRIPOS>SUBSTRUCTURE
     1 FAD601      1 GROUP   
@<TRIPOS>SET

