#    Name: 1cl0_FAD_1_INTS_M
#    Modification time : Mon Mar 24 20:46:37 2014

@<TRIPOS>MOLECULE
1cl0_FAD_1_INTS_M
  109     0     9     0     0
SMALL
NO_CHARGES


@<TRIPOS>ATOM
      1 N          27.7215   31.0150  -12.7700 N.am      2 SEC2        0.0000 
      2 N          26.4490   31.2500  -13.4830 N.am      8 SEL2        0.0000 
      3 N          28.9940   30.7800  -12.0570 N.am      5 SEP2        0.0000 
      4 N          25.0190   28.9175  -12.7570 N.am      2 SEC2        0.0000 
      5 N          24.5280   30.1970  -12.1620 N.am      8 SEL2        0.0000 
      6 N          25.5100   27.6380  -13.3520 N.am      5 SEP2        0.0000 
      7 CA         25.6375   33.6630  -14.5060 C.3       3 GLC5        0.0000 
      8 CA         24.1320   32.4820  -15.1550 C.3       9 GLL5        0.0000 
      9 CA         27.1430   34.8440  -13.8570 C.3       6 GLP5        0.0000 
     10 CA         21.5935   33.5060  -16.3550 C.3       3 GLC5        0.0000 
     11 CA         22.9740   32.3840  -16.1000 C.3       9 GLL5        0.0000 
     12 CA         20.2130   34.6280  -16.6100 C.3       6 GLP5        0.0000 
     13 N          20.5630   31.5450  -16.5070 N.am      2 SEC2        0.0000 
     14 N          21.6550   30.6780  -17.0340 N.am      8 SEL2        0.0000 
     15 N          19.4710   32.4120  -15.9800 N.am      5 SEP2        0.0000 
     16 O          20.8490   31.0760  -18.1400 O.2       1 ALC1        0.0000 
     17 O          21.6550   30.6780  -17.0340 O.2       7 ALL1        0.0000 
     18 O          20.0430   31.4740  -19.2460 O.2       4 ALP1        0.0000 
     19 N          23.3000   29.4695  -20.1725 N.am      2 SEC2        0.0000 
     20 N          23.2460   30.8050  -19.3500 N.am      8 SEL2        0.0000 
     21 N          23.3540   28.1340  -20.9950 N.am      5 SEP2        0.0000 
     22 O          21.6445   31.1395  -19.2980 O.2       1 ALC1        0.0000 
     23 O          23.2460   30.8050  -19.3500 O.2       7 ALL1        0.0000 
     24 CA         21.6110   33.8145  -17.4705 C.3       3 GLC5        0.0000 
     25 CA         23.0090   33.0010  -18.3310 C.3       9 GLL5        0.0000 
     26 CA         23.8410   34.7420  -17.2925 C.3       3 GLC5        0.0000 
     27 CA         24.6730   36.4830  -16.2540 C.3       6 GLP5        0.0000 
     28 CA         23.9135   34.5680  -22.8550 C.3       3 GLC5        0.0000 
     29 CA         24.1780   35.3930  -20.8120 C.3       9 GLL5        0.0000 
     30 CA         23.6490   33.7430  -24.8980 C.3       6 GLP5        0.0000 
     31 CA         24.2560   35.3905  -23.5720 C.3       3 GLC5        0.0000 
     32 CA         23.8140   36.2750  -21.8580 C.3       9 GLL5        0.0000 
     33 CA         24.6980   34.5060  -25.2860 C.3       6 GLP5        0.0000 
     34 O          24.5670   37.4975  -23.9675 O.2       1 ALC1        0.0000 
     35 O          24.7080   37.0080  -22.5530 O.2       7 ALL1        0.0000 
     36 O          24.4260   37.9870  -25.3820 O.2       4 ALP1        0.0000 
     37 N          22.1250   36.6200  -23.5940 N.am      2 SEC2        0.0000 
     38 N          22.4880   36.3780  -22.1110 N.am      8 SEL2        0.0000 
     39 N          21.7620   36.8620  -25.0770 N.am      5 SEP2        0.0000 
     40 CA         20.8765   37.5855  -20.6890 C.3       3 GLC5        0.0000 
     41 CA         21.5930   35.6910  -21.3990 C.3       9 GLL5        0.0000 
     42 CA         20.1600   39.4800  -19.9790 C.3       6 GLP5        0.0000 
     43 CA         19.6380   35.6165  -22.1740 C.3       3 GLC5        0.0000 
     44 CA         17.6830   35.5420  -22.9490 C.3       6 GLP5        0.0000 
     45 CA         21.3575   33.8885  -21.5450 C.3       3 GLC5        0.0000 
     46 CA         21.1220   32.0860  -21.6910 C.3       6 GLP5        0.0000 
     47 CA         21.4135   35.0925  -23.3125 C.3       3 GLC5        0.0000 
     48 CA         21.2340   34.4940  -25.2260 C.3       6 GLP5        0.0000 
     49 CA         22.1370   33.4165  -20.9240 C.3       3 GLC5        0.0000 
     50 CA         23.1520   34.7470  -20.1570 C.3       9 GLL5        0.0000 
     51 N          25.6020   29.1015   -3.4435 N.am      2 SEC2        0.0000 
     52 N          26.0360   27.8250   -2.9250 N.am      8 SEL2        0.0000 
     53 N          25.1680   30.3780   -3.9620 N.am      5 SEP2        0.0000 
     54 O          26.1210   25.3840   -1.9440 O.2       1 ALC1        0.0000 
     55 O          26.5240   25.6180   -3.2440 O.2       7 ALL1        0.0000 
     56 O          25.7180   25.1500   -0.6440 O.2       4 ALP1        0.0000 
     57 N          27.2740   22.8570   -2.2645 N.am      2 SEC2        0.0000 
     58 N          27.1210   23.4490   -3.4450 N.am      8 SEL2        0.0000 
     59 N          27.4270   22.2650   -1.0840 N.am      5 SEP2        0.0000 
     60 CA         30.3575   24.1770   -5.4940 C.3       3 GLC5        0.0000 
     61 CA         30.0240   23.5520   -7.6010 C.3       9 GLL5        0.0000 
     62 CA         30.6910   24.8020   -3.3870 C.3       6 GLP5        0.0000 
     63 CA         33.9850   22.1030   -8.4965 C.3       3 GLC5        0.0000 
     64 CA         32.1770   23.1830   -8.8560 C.3       9 GLL5        0.0000 
     65 CA         35.7930   21.0230   -8.1370 C.3       6 GLP5        0.0000 
     66 CA         33.8980   24.2380   -9.4435 C.3       3 GLC5        0.0000 
     67 CA         35.6190   25.2930  -10.0310 C.3       6 GLP5        0.0000 
     68 CA         33.8715   25.7200   -9.8070 C.3       3 GLC5        0.0000 
     69 CA         32.1240   26.1470   -9.5830 C.3       9 GLL5        0.0000 
     70 CA         27.4065   27.5870   -9.9255 C.3       3 GLC5        0.0000 
     71 CA         27.2720   27.6110   -7.8580 C.3       9 GLL5        0.0000 
     72 CA         27.5410   27.5630  -11.9930 C.3       6 GLP5        0.0000 
     73 CA         25.8475   26.4170   -7.5965 C.3       3 GLC5        0.0000 
     74 CA         24.4230   25.2230   -7.3350 C.3       6 GLP5        0.0000 
     75 CA         27.5635   28.8525  -10.2290 C.3       3 GLC5        0.0000 
     76 CA         27.5860   30.1420   -8.4650 C.3       9 GLL5        0.0000 
     77 O          28.6685   31.9045   -8.9675 O.2       1 ALC1        0.0000 
     78 O          28.2850   31.2250   -7.8340 O.2       7 ALL1        0.0000 
     79 O          29.0520   32.5840  -10.1010 O.2       4 ALP1        0.0000 
     80 CA         27.2790   33.3490   -9.7955 C.3       3 GLC5        0.0000 
     81 CA         25.9050   31.8250   -9.1990 C.3       9 GLL5        0.0000 
     82 CA         28.6530   34.8730  -10.3920 C.3       6 GLP5        0.0000 
     83 CA         24.7495   32.9155   -7.8430 C.3       3 GLC5        0.0000 
     84 CA         23.5940   34.0060   -6.4870 C.3       6 GLP5        0.0000 
     85 N          21.5595   33.4660   -9.9270 N.am      2 SEC2        0.0000 
     86 N          22.7540   33.2130  -10.7870 N.am      8 SEL2        0.0000 
     87 N          20.3650   33.7190   -9.0670 N.am      5 SEP2        0.0000 
     88 N          25.8530   35.3365   -9.8350 N.am      2 SEC2        0.0000 
     89 N          24.8290   34.5040  -10.3610 N.am      8 SEL2        0.0000 
     90 N          26.8770   36.1690   -9.3090 N.am      5 SEP2        0.0000 
     91 CA         24.1130   34.4580  -15.9407 C.3       3 GLC5        0.0000 
     92 CA         23.4113   30.0300  -15.4316 C.3       3 GLC5        0.0000 
     93 CA         23.5390   28.2850  -14.5870 C.3       6 GLP5        0.0000 
     94 CA         22.2200   32.1987  -19.9853 C.3       3 GLC5        0.0000 
     95 CA         23.6270   31.6220  -18.2280 C.3       9 GLL5        0.0000 
     96 CA         23.8635   36.6262  -19.4800 C.3       3 GLC5        0.0000 
     97 CA         24.1530   37.9620  -18.2140 C.3       6 GLP5        0.0000 
     98 CA         28.4703   22.6095   -8.1460 C.3       3 GLC5        0.0000 
     99 CA         28.9690   24.3700   -7.1510 C.3       9 GLL5        0.0000 
    100 CA         27.4440   21.2580   -8.9160 C.3       6 GLP5        0.0000 
    101 CA         32.0300   26.3107   -7.0971 C.3       3 GLC5        0.0000 
    102 CA         31.0080   25.4690   -8.8120 C.3       9 GLL5        0.0000 
    103 CA         33.3100   26.5900   -5.4140 C.3       6 GLP5        0.0000 
    104 CA         29.8017   26.0530   -5.8891 C.3       3 GLC5        0.0000 
    105 CA         29.9340   26.2550   -8.3630 C.3       9 GLL5        0.0000 
    106 CA         30.1660   26.4520   -3.9250 C.3       6 GLP5        0.0000 
    107 CA         23.9228   30.7740   -9.2532 C.3       3 GLC5        0.0000 
    108 CA         26.0740   30.4350   -8.6020 C.3       9 GLL5        0.0000 
    109 CA         21.8560   30.4180   -9.6060 C.3       6 GLP5        0.0000 
@<TRIPOS>BOND
@<TRIPOS>SUBSTRUCTURE
     1 ALC1       16 GROUP        1 X    ALC  0     ROOT ALC X 1
     2 SEC2        1 GROUP        1 X    SEC  0     **** SEC X 2
     3 GLC5        7 GROUP        1 X    GLC  0     **** GLC X 6
     4 ALP1       18 GROUP        1 Y    ALP  0     ROOT ALP Y 8
     5 SEP2        3 GROUP        1 Y    SEP  0     **** SEP Y 9
     6 GLP5        9 GROUP        1 Y    GLP  0     **** GLP Y 13
     7 ALL1       17 GROUP        1 Z    ALL  0     ROOT ALL Z 15
     8 SEL2        2 GROUP        1 Z    SEL  0     **** SEL Z 16
     9 GLL5        8 GROUP        1 Z    GLL  0     **** GLL Z 20
@<TRIPOS>SET

