#    Name: 1cl0_FAD_1_ligand
#    Modification time : Mon Mar 24 20:46:37 2014

@<TRIPOS>MOLECULE
1cl0_FAD_1_ligand
   84    89     1     0     0
SMALL
NO_CHARGES


@<TRIPOS>ATOM
      1 PA         25.0730   31.3530  -12.9070 P.3       1 FAD500      0.0000 
      2 O1A        26.4490   31.2500  -13.4830 O.co2     1 FAD500      0.0000 
      3 O2A        24.5280   30.1970  -12.1620 O.co2     1 FAD500      0.0000 
      4 O5B        24.0060   31.5350  -14.1100 O.3       1 FAD500      0.0000 
      5 C5B        24.1320   32.4820  -15.1550 C.3       1 FAD500      0.0000 
      6 C4B        22.9740   32.3840  -16.1000 C.3       1 FAD500      0.0000 
      7 O4B        22.9350   33.5030  -16.9980 O.3       1 FAD500      0.0000 
      8 C3B        23.0140   31.1170  -16.9250 C.3       1 FAD500      0.0000 
      9 O3B        21.6550   30.6780  -17.0340 O.3       1 FAD500      0.0000 
     10 C2B        23.6270   31.6220  -18.2280 C.3       1 FAD500      0.0000 
     11 O2B        23.2460   30.8050  -19.3500 O.3       1 FAD500      0.0000 
     12 C1B        23.0090   33.0010  -18.3310 C.3       1 FAD500      0.0000 
     13 N9A        23.7500   33.9250  -19.2180 N.pl3     1 FAD500      0.0000 
     14 C8A        25.1100   34.1250  -19.3640 C.2       1 FAD500      0.0000 
     15 N7A        25.4240   34.9950  -20.3080 N.2       1 FAD500      0.0000 
     16 C5A        24.1780   35.3930  -20.8120 C.ar      1 FAD500      0.0000 
     17 C6A        23.8140   36.2750  -21.8580 C.ar      1 FAD500      0.0000 
     18 N6A        24.7080   37.0080  -22.5530 N.pl3     1 FAD500      0.0000 
     19 N1A        22.4880   36.3780  -22.1110 N.ar      1 FAD500      0.0000 
     20 C2A        21.5930   35.6910  -21.3990 C.ar      1 FAD500      0.0000 
     21 N3A        21.8090   34.8550  -20.4060 N.ar      1 FAD500      0.0000 
     22 C4A        23.1520   34.7470  -20.1570 C.ar      1 FAD500      0.0000 
     23 N1         26.8720   27.2060   -4.9150 N.2       1 FAD500      0.0000 
     24 C2         26.4420   26.9190   -3.6670 C.2       1 FAD500      0.0000 
     25 O2         26.0360   27.8250   -2.9250 O.2       1 FAD500      0.0000 
     26 N3         26.5240   25.6180   -3.2440 N.am      1 FAD500      0.0000 
     27 C4         27.0230   24.5610   -3.9820 C.2       1 FAD500      0.0000 
     28 O4         27.1210   23.4490   -3.4450 O.2       1 FAD500      0.0000 
     29 C4X        27.4620   24.9200   -5.2960 C.2       1 FAD500      0.0000 
     30 N5         27.9940   23.9080   -6.1750 N.2       1 FAD500      0.0000 
     31 C5X        28.9690   24.3700   -7.1510 C.ar      1 FAD500      0.0000 
     32 C6         30.0240   23.5520   -7.6010 C.ar      1 FAD500      0.0000 
     33 C7         31.0410   24.0910   -8.4230 C.ar      1 FAD500      0.0000 
     34 C7M        32.1770   23.1830   -8.8560 C.3       1 FAD500      0.0000 
     35 C8         31.0080   25.4690   -8.8120 C.ar      1 FAD500      0.0000 
     36 C8M        32.1240   26.1470   -9.5830 C.3       1 FAD500      0.0000 
     37 C9         29.9340   26.2550   -8.3630 C.ar      1 FAD500      0.0000 
     38 C9A        28.9130   25.7360   -7.5360 C.ar      1 FAD500      0.0000 
     39 N10        27.9060   26.6120   -6.9790 N.pl3     1 FAD500      0.0000 
     40 C10        27.3850   26.2300   -5.7430 C.2       1 FAD500      0.0000 
     41 C1'        27.2720   27.6110   -7.8580 C.3       1 FAD500      0.0000 
     42 C2'        27.9840   28.9150   -7.6620 C.3       1 FAD500      0.0000 
     43 O2'        28.0710   29.1790   -6.2600 O.3       1 FAD500      0.0000 
     44 C3'        27.5860   30.1420   -8.4650 C.3       1 FAD500      0.0000 
     45 O3'        28.2850   31.2250   -7.8340 O.3       1 FAD500      0.0000 
     46 C4'        26.0740   30.4350   -8.6020 C.3       1 FAD500      0.0000 
     47 O4'        25.4380   29.5220   -9.4990 O.3       1 FAD500      0.0000 
     48 C5'        25.9050   31.8250   -9.1990 C.3       1 FAD500      0.0000 
     49 O5'        24.5650   32.1890   -9.4890 O.3       1 FAD500      0.0000 
     50 P          24.2170   33.1990  -10.6730 P.3       1 FAD500      0.0000 
     51 O1P        22.7540   33.2130  -10.7870 O.co2     1 FAD500      0.0000 
     52 O2P        24.8290   34.5040  -10.3610 O.co2     1 FAD500      0.0000 
     53 O3P        24.9680   32.7060  -12.0220 O.3       1 FAD500      0.0000 
     54 H          25.0612   32.3269  -15.7315 H         1 FAD500      0.0000 
     55 H          24.1706   33.5139  -14.7632 H         1 FAD500      0.0000 
     56 H          22.0474   32.3585  -15.5119 H         1 FAD500      0.0000 
     57 H          23.6584   30.4444  -16.4610 H         1 FAD500      0.0000 
     58 H          24.6631   31.7250  -18.0943 H         1 FAD500      0.0000 
     59 H          21.9900   32.8653  -18.7172 H         1 FAD500      0.0000 
     60 H          25.7714   33.6398  -18.7914 H         1 FAD500      0.0000 
     61 H          24.4425   37.2589  -23.4839 H         1 FAD500      0.0000 
     62 H          25.5567   37.2353  -22.0755 H         1 FAD500      0.0000 
     63 H          20.5357   35.8490  -21.6852 H         1 FAD500      0.0000 
     64 H          26.1717   25.3960   -2.2555 H         1 FAD500      0.0000 
     65 H          30.0569   22.5654   -7.3340 H         1 FAD500      0.0000 
     66 H          29.8857   27.2528   -8.6470 H         1 FAD500      0.0000 
     67 H          26.2237   27.7304   -7.6007 H         1 FAD500      0.0000 
     68 H          27.3551   27.3075   -8.8974 H         1 FAD500      0.0000 
     69 H          29.0860   28.6941   -7.9818 H         1 FAD500      0.0000 
     70 H          28.0029   30.0116   -9.4797 H         1 FAD500      0.0000 
     71 H          25.6316   30.4285   -7.6351 H         1 FAD500      0.0000 
     72 H          26.5451   31.8704  -10.1162 H         1 FAD500      0.0000 
     73 H          26.3772   32.5493   -8.4880 H         1 FAD500      0.0000 
     74 H          32.8373   23.6636   -9.4331 H         1 FAD500      0.0000 
     75 H          32.6818   22.8203   -8.0726 H         1 FAD500      0.0000 
     76 H          31.8461   22.3984   -9.3802 H         1 FAD500      0.0000 
     77 H          32.9898   26.1208   -9.0833 H         1 FAD500      0.0000 
     78 H          32.2830   25.7095  -10.4680 H         1 FAD500      0.0000 
     79 H          31.9191   27.1089   -9.7642 H         1 FAD500      0.0000 
     80 H          21.3577   30.9793  -17.9400 H         1 FAD500      0.0000 
     81 H          22.3052   31.0730  -19.5575 H         1 FAD500      0.0000 
     82 H          27.4355   28.5342   -5.8354 H         1 FAD500      0.0000 
     83 H          28.6128   31.7951   -8.5873 H         1 FAD500      0.0000 
     84 H          25.2510   30.0569  -10.3230 H         1 FAD500      0.0000 
@<TRIPOS>BOND
     1    2    1 ar   
     2    3    1 ar   
     3    4    1 1    
     4   53    1 1    
     5    5    4 1    
     6    6    5 1    
     7   54    5 1    
     8   55    5 1    
     9    7    6 1    
    10    8    6 1    
    11   56    6 1    
    12   12    7 1    
    13    9    8 1    
    14   10    8 1    
    15   57    8 1    
    16   80    9 1    
    17   11   10 1    
    18   12   10 1    
    19   58   10 1    
    20   81   11 1    
    21   13   12 1    
    22   59   12 1    
    23   14   13 1    
    24   22   13 1    
    25   15   14 2    
    26   60   14 1    
    27   16   15 1    
    28   17   16 ar   
    29   22   16 ar   
    30   18   17 1    
    31   19   17 ar   
    32   61   18 1    
    33   62   18 1    
    34   20   19 ar   
    35   21   20 ar   
    36   63   20 1    
    37   22   21 ar   
    38   24   23 1    
    39   40   23 2    
    40   25   24 2    
    41   26   24 am   
    42   27   26 am   
    43   64   26 1    
    44   28   27 2    
    45   29   27 1    
    46   30   29 2    
    47   40   29 1    
    48   31   30 1    
    49   32   31 ar   
    50   38   31 ar   
    51   33   32 ar   
    52   65   32 1    
    53   34   33 1    
    54   35   33 ar   
    55   74   34 1    
    56   75   34 1    
    57   76   34 1    
    58   36   35 1    
    59   37   35 ar   
    60   77   36 1    
    61   78   36 1    
    62   79   36 1    
    63   38   37 ar   
    64   66   37 1    
    65   39   38 1    
    66   40   39 1    
    67   41   39 1    
    68   42   41 1    
    69   67   41 1    
    70   68   41 1    
    71   43   42 1    
    72   44   42 1    
    73   69   42 1    
    74   82   43 1    
    75   45   44 1    
    76   46   44 1    
    77   70   44 1    
    78   83   45 1    
    79   47   46 1    
    80   48   46 1    
    81   71   46 1    
    82   84   47 1    
    83   49   48 1    
    84   72   48 1    
    85   73   48 1    
    86   50   49 1    
    87   51   50 ar   
    88   52   50 ar   
    89   53   50 1    
@<TRIPOS>SUBSTRUCTURE
     1 FAD500      1 GROUP   
@<TRIPOS>SET

