#    Name: 3she_I85_1_INTS_M
#    Modification time : Tue Mar 25 12:38:04 2014

@<TRIPOS>MOLECULE
3she_I85_1_INTS_M
   78     0     9     0     0
SMALL
NO_CHARGES


@<TRIPOS>ATOM
      1 CA         18.7925    6.2030   16.1375 C.3       3 GLC5        0.0000 
      2 CA         18.9230    7.5450   14.7020 C.3       9 GLL5        0.0000 
      3 CA         18.6620    4.8610   17.5730 C.3       6 GLP5        0.0000 
      4 CA         14.3860   12.9340   13.9695 C.3       3 GLC5        0.0000 
      5 CA         12.8840   11.4760   14.0070 C.3       9 GLL5        0.0000 
      6 CA         15.8880   14.3920   13.9320 C.3       6 GLP5        0.0000 
      7 N           9.5315   12.6490   14.7520 N.am      2 SEC2        0.0000 
      8 N          10.6810   12.2860   13.8850 N.am      8 SEL2        0.0000 
      9 N           8.3820   13.0120   15.6190 N.am      5 SEP2        0.0000 
     10 O          16.8130    5.4775   10.2805 O.2       1 ALC1        0.0000 
     11 O          16.6540    6.9750   10.2900 O.2       7 ALL1        0.0000 
     12 O          16.9720    3.9800   10.2710 O.2       4 ALP1        0.0000 
     13 CA         20.2675    9.3000   12.0215 C.3       3 GLC5        0.0000 
     14 CA         19.1630    8.6670   13.7010 C.3       9 GLL5        0.0000 
     15 CA         21.3720    9.9330   10.3420 C.3       6 GLP5        0.0000 
     16 N          15.1580    6.5735    8.0245 N.am      2 SEC2        0.0000 
     17 N          14.6400    6.7460    9.3490 N.am      8 SEL2        0.0000 
     18 N          15.6760    6.4010    6.7000 N.am      5 SEP2        0.0000 
     19 CA         12.4410    9.7190    9.7800 C.3       3 GLC5        0.0000 
     20 CA         13.6060    8.9380   11.2620 C.3       9 GLL5        0.0000 
     21 CA         11.2760   10.5000    8.2980 C.3       6 GLP5        0.0000 
     22 CA         12.4510    7.2510   11.6815 C.3       3 GLC5        0.0000 
     23 CA         11.2960    5.5640   12.1010 C.3       6 GLP5        0.0000 
     24 CA         10.6840    9.9975   10.5920 C.3       3 GLC5        0.0000 
     25 CA         11.3510   10.6440   12.3470 C.3       9 GLL5        0.0000 
     26 CA         10.0170    9.3510    8.8370 C.3       6 GLP5        0.0000 
     27 CA         10.7850    8.6220   12.2385 C.3       3 GLC5        0.0000 
     28 CA         10.2190    6.6000   12.1300 C.3       6 GLP5        0.0000 
     29 CA          9.0070   13.0465   13.4175 C.3       3 GLC5        0.0000 
     30 CA         10.4080   11.4940   12.8630 C.3       9 GLL5        0.0000 
     31 CA          7.6060   14.5990   13.9720 C.3       6 GLP5        0.0000 
     32 CA          9.2790   10.7965   14.1900 C.3       3 GLC5        0.0000 
     33 CA          8.1500   10.0990   15.5170 C.3       6 GLP5        0.0000 
     34 CA         13.3225   13.8860   14.2080 C.3       3 GLC5        0.0000 
     35 CA         11.8650   12.3150   14.4790 C.3       9 GLL5        0.0000 
     36 CA         14.7800   15.4570   13.9370 C.3       6 GLP5        0.0000 
     37 CA         11.2885   13.2635   12.6825 C.3       3 GLC5        0.0000 
     38 CA         10.7120   14.2120   10.8860 C.3       6 GLP5        0.0000 
     39 CA         10.3820   11.5800   15.5485 C.3       3 GLC5        0.0000 
     40 CA          8.8990   10.8450   16.6180 C.3       6 GLP5        0.0000 
     41 CA         11.9075   10.2610   15.1530 C.3       3 GLC5        0.0000 
     42 CA         11.9500    8.2070   15.8270 C.3       6 GLP5        0.0000 
     43 CA         18.4620    7.4180    9.9180 C.3       3 GLC5        0.0000 
     44 CA         17.5730    7.6560   11.1990 C.3       9 GLL5        0.0000 
     45 CA         19.3510    7.1800    8.6370 C.3       6 GLP5        0.0000 
     46 CA         10.6115   16.4215   18.8600 C.3       3 GLC5        0.0000 
     47 CA         12.3020   16.5850   18.2360 C.3       9 GLL5        0.0000 
     48 CA          8.9210   16.2580   19.4840 C.3       6 GLP5        0.0000 
     49 CA         13.0745   12.5615   20.1780 C.3       3 GLC5        0.0000 
     50 CA         13.5280   14.1420   18.7360 C.3       9 GLL5        0.0000 
     51 CA         12.6210   10.9810   21.6200 C.3       6 GLP5        0.0000 
     52 CA         11.2080   13.1410   22.1190 C.3       3 GLC5        0.0000 
     53 CA         13.2310   13.9100   21.7800 C.3       9 GLL5        0.0000 
     54 CA          9.1850   12.3720   22.4580 C.3       6 GLP5        0.0000 
     55 CA         19.0987   10.5205   13.2185 C.3       3 GLC5        0.0000 
     56 CA         17.8080    9.1730   13.1930 C.3       9 GLL5        0.0000 
     57 CA         19.7120   12.1210   12.9900 C.3       6 GLP5        0.0000 
     58 CA         15.0139   10.2390   10.7122 C.3       3 GLC5        0.0000 
     59 CA         14.8170    8.2440   11.1780 C.3       9 GLL5        0.0000 
     60 CA         16.0890   11.3290    9.6190 C.3       6 GLP5        0.0000 
     61 CA         13.3081   11.9876   11.6825 C.3       3 GLC5        0.0000 
     62 CA         14.5630   13.1290   10.4600 C.3       6 GLP5        0.0000 
     63 CA         10.7957   12.6405   11.7455 C.3       3 GLC5        0.0000 
     64 CA         12.1154    9.3589   14.2320 C.3       3 GLC5        0.0000 
     65 CA         16.5059    9.6645   10.7109 C.3       3 GLC5        0.0000 
     66 CA         15.5810    8.6180   12.2790 C.3       9 GLL5        0.0000 
     67 CA         10.8555   16.2957   16.3798 C.3       3 GLC5        0.0000 
     68 CA         12.3680   15.6340   17.2350 C.3       9 GLL5        0.0000 
     69 CA          9.3760   16.4820   15.0240 C.3       6 GLP5        0.0000 
     70 CA         13.7631   16.1759   16.3831 C.3       3 GLC5        0.0000 
     71 CA         15.0390   16.5520   14.9720 C.3       6 GLP5        0.0000 
     72 CA         13.5511   12.6378   21.4034 C.3       3 GLC5        0.0000 
     73 CA         14.0560   14.8080   21.0990 C.3       9 GLL5        0.0000 
     74 CA         12.8234   14.9930   23.2674 C.3       3 GLC5        0.0000 
     75 CA         11.7320   14.8240   24.8740 C.3       6 GLP5        0.0000 
     76 CA         11.2701   14.9693   19.1753 C.3       3 GLC5        0.0000 
     77 CA         12.8440   16.3230   19.4830 C.3       9 GLL5        0.0000 
     78 CA          9.4140   14.7930   19.5230 C.3       6 GLP5        0.0000 
@<TRIPOS>BOND
@<TRIPOS>SUBSTRUCTURE
     1 ALC1       10 GROUP        1 X    ALC  0     ROOT ALC X 1
     2 SEC2        7 GROUP        1 X    SEC  0     **** SEC X 2
     3 GLC5        1 GROUP        1 X    GLC  0     **** GLC X 6
     4 ALP1       12 GROUP        1 Y    ALP  0     ROOT ALP Y 8
     5 SEP2        9 GROUP        1 Y    SEP  0     **** SEP Y 9
     6 GLP5        3 GROUP        1 Y    GLP  0     **** GLP Y 13
     7 ALL1       11 GROUP        1 Z    ALL  0     ROOT ALL Z 15
     8 SEL2        8 GROUP        1 Z    SEL  0     **** SEL Z 16
     9 GLL5        2 GROUP        1 Z    GLL  0     **** GLL Z 20
@<TRIPOS>SET

