#    Name: 3she_I85_1_ligand
#    Modification time : Tue Mar 25 12:38:04 2014

@<TRIPOS>MOLECULE
3she_I85_1_ligand
   55    59     1     0     0
SMALL
NO_CHARGES


@<TRIPOS>ATOM
      1 N1         11.9760   13.2150   15.5550 N.am      1 I85350      0.0000 
      2 N2         18.1610    6.5050   14.0060 N.4       1 I85350      0.0000 
      3 C3         18.9230    7.5450   14.7020 C.3       1 I85350      0.0000 
      4 C4         12.8840   11.4760   14.0070 C.ar      1 I85350      0.0000 
      5 N5         10.6810   12.2860   13.8850 N.ar      1 I85350      0.0000 
      6 N6         14.8800    9.4920   12.9890 N.pl3     1 I85350      0.0000 
      7 C7         16.9640    8.0700   12.5340 C.3       1 I85350      0.0000 
      8 N8         16.6540    6.9750   10.2900 N.am      1 I85350      0.0000 
      9 C9         15.3360    7.2660   10.2030 C.2       1 I85350      0.0000 
     10 C10        17.8080    9.1730   13.1930 C.3       1 I85350      0.0000 
     11 C11        19.1630    8.6670   13.7010 C.3       1 I85350      0.0000 
     12 C12        16.8500    6.8420   13.4350 C.3       1 I85350      0.0000 
     13 O13        14.6400    6.7460    9.3490 O.2       1 I85350      0.0000 
     14 C14        15.5810    8.6180   12.2790 C.2       1 I85350      0.0000 
     15 C15        14.8170    8.2440   11.1780 C.2       1 I85350      0.0000 
     16 C16        13.6060    8.9380   11.2620 C.2       1 I85350      0.0000 
     17 C17        13.6660    9.7070   12.3910 C.2       1 I85350      0.0000 
     18 C18        12.6270   10.6210   12.9190 C.ar      1 I85350      0.0000 
     19 C19        11.3510   10.6440   12.3470 C.ar      1 I85350      0.0000 
     20 C20        10.4080   11.4940   12.8630 C.ar      1 I85350      0.0000 
     21 C21        11.8650   12.3150   14.4790 C.ar      1 I85350      0.0000 
     22 C22        17.5730    7.6560   11.1990 C.3       1 I85350      0.0000 
     23 C23        13.0460   13.3840   16.3760 C.2       1 I85350      0.0000 
     24 C24        12.9770   14.3950   17.4700 C.ar      1 I85350      0.0000 
     25 C25        12.3680   15.6340   17.2350 C.ar      1 I85350      0.0000 
     26 C26        12.3020   16.5850   18.2360 C.ar      1 I85350      0.0000 
     27 C27        12.8440   16.3230   19.4830 C.ar      1 I85350      0.0000 
     28 C28        13.4600   15.1030   19.7390 C.ar      1 I85350      0.0000 
     29 C29        13.5280   14.1420   18.7360 C.ar      1 I85350      0.0000 
     30 O30        14.0700   12.7480   16.2310 O.2       1 I85350      0.0000 
     31 C31        14.0560   14.8080   21.0990 C.3       1 I85350      0.0000 
     32 F32        13.2310   13.9100   21.7800 F         1 I85350      0.0000 
     33 F33        15.3190   14.2300   20.9340 F         1 I85350      0.0000 
     34 F34        14.1860   15.9650   21.8820 F         1 I85350      0.0000 
     35 H          11.1056   13.8314   15.7336 H         1 I85350      0.0000 
     36 H          19.8791    7.1680   15.0367 H         1 I85350      0.0000 
     37 H          18.3657    7.9403   15.5395 H         1 I85350      0.0000 
     38 H          13.8040   11.4832   14.4463 H         1 I85350      0.0000 
     39 H          15.1630    9.9286   13.8134 H         1 I85350      0.0000 
     40 H          17.0822    6.2272    9.6912 H         1 I85350      0.0000 
     41 H          17.2455    9.5959   14.0339 H         1 I85350      0.0000 
     42 H          17.9755    9.9750   12.4643 H         1 I85350      0.0000 
     43 H          19.7388    8.2932   12.8671 H         1 I85350      0.0000 
     44 H          19.6879    9.4784   14.1834 H         1 I85350      0.0000 
     45 H          16.1281    7.0609   14.2265 H         1 I85350      0.0000 
     46 H          16.4629    6.0115   12.8385 H         1 I85350      0.0000 
     47 H          12.8940    8.8750   10.6470 H         1 I85350      0.0000 
     48 H          11.1377   10.0310   11.5562 H         1 I85350      0.0000 
     49 H           9.4525   11.5002   12.4210 H         1 I85350      0.0000 
     50 H          18.4548    7.0095   11.4129 H         1 I85350      0.0000 
     51 H          17.9878    8.5703   10.7159 H         1 I85350      0.0000 
     52 H          11.9678   15.8309   16.3047 H         1 I85350      0.0000 
     53 H          11.8475   17.4937   18.0544 H         1 I85350      0.0000 
     54 H          12.7918   17.0351   20.2278 H         1 I85350      0.0000 
     55 H          13.9842   13.2374   18.9175 H         1 I85350      0.0000 
@<TRIPOS>BOND
     1   21    1 1    
     2   23    1 am   
     3   35    1 1    
     4    3    2 1    
     5   12    2 1    
     6   11    3 1    
     7   36    3 1    
     8   37    3 1    
     9   18    4 ar   
    10   21    4 ar   
    11   38    4 1    
    12   20    5 ar   
    13   21    5 ar   
    14   14    6 1    
    15   17    6 1    
    16   39    6 1    
    17   10    7 1    
    18   12    7 1    
    19   14    7 1    
    20   22    7 1    
    21    9    8 am   
    22   22    8 1    
    23   40    8 1    
    24   13    9 2    
    25   15    9 1    
    26   11   10 1    
    27   41   10 1    
    28   42   10 1    
    29   43   11 1    
    30   44   11 1    
    31   45   12 1    
    32   46   12 1    
    33   15   14 2    
    34   16   15 1    
    35   17   16 2    
    36   47   16 1    
    37   18   17 1    
    38   19   18 ar   
    39   20   19 ar   
    40   48   19 1    
    41   49   20 1    
    42   50   22 1    
    43   51   22 1    
    44   24   23 1    
    45   30   23 2    
    46   25   24 ar   
    47   29   24 ar   
    48   26   25 ar   
    49   52   25 1    
    50   27   26 ar   
    51   53   26 1    
    52   28   27 ar   
    53   54   27 1    
    54   29   28 ar   
    55   31   28 1    
    56   55   29 1    
    57   32   31 1    
    58   33   31 1    
    59   34   31 1    
@<TRIPOS>SUBSTRUCTURE
     1 I85350      1 GROUP   
@<TRIPOS>SET

