#    Name: 1jdt_MTA_2_INTS_M
#    Modification time : Tue Mar 25 08:46:26 2014

@<TRIPOS>MOLECULE
1jdt_MTA_2_INTS_M
   47     0     9     0     0
SMALL
NO_CHARGES


@<TRIPOS>ATOM
      1 CA         70.6935  111.2050   37.5590 C.3       3 GLC5        0.0000 
      2 CA         69.5950  110.0620   36.3380 C.3       9 GLL5        0.0000 
      3 CA         71.7920  112.3480   38.7800 C.3       6 GLP5        0.0000 
      4 CA         68.3515  112.0130   35.0275 C.3       3 GLC5        0.0000 
      5 CA         69.2510  110.9400   33.7220 C.3       9 GLL5        0.0000 
      6 CA         67.4520  113.0860   36.3330 C.3       6 GLP5        0.0000 
      7 CA         64.8195  109.9365   31.3770 C.3       3 GLC5        0.0000 
      8 CA         66.9650  110.0630   31.4280 C.3       9 GLL5        0.0000 
      9 CA         62.6740  109.8100   31.3260 C.3       6 GLP5        0.0000 
     10 CA         66.2380  111.4540   30.3590 C.3       3 GLC5        0.0000 
     11 CA         65.5110  112.8450   29.2900 C.3       6 GLP5        0.0000 
     12 N          65.2420  110.2510   29.8655 N.am      2 SEC2        0.0000 
     13 N          66.5340  109.5180   30.1700 N.am      8 SEL2        0.0000 
     14 N          63.9500  110.9840   29.5610 N.am      5 SEP2        0.0000 
     15 CA         67.6275  112.5275   31.2985 C.3       3 GLC5        0.0000 
     16 CA         68.4200  110.7220   31.3410 C.3       9 GLL5        0.0000 
     17 CA         66.8350  114.3330   31.2560 C.3       6 GLP5        0.0000 
     18 O          68.4900  110.7525   28.4855 O.2       1 ALC1        0.0000 
     19 O          69.1410  110.4010   30.0680 O.2       7 ALL1        0.0000 
     20 O          67.8390  111.1040   26.9030 O.2       4 ALP1        0.0000 
     21 O          68.1200  109.8295   28.9450 O.2       1 ALC1        0.0000 
     22 O          67.0990  109.2580   27.8220 O.2       4 ALP1        0.0000 
     23 CA         64.4645  108.0290   35.1560 C.3       3 GLC5        0.0000 
     24 CA         65.1140  110.0670   35.7160 C.3       9 GLL5        0.0000 
     25 CA         63.8150  105.9910   34.5960 C.3       6 GLP5        0.0000 
     26 CA         62.4340  111.0040   36.0825 C.3       3 GLC5        0.0000 
     27 CA         64.2970  111.0750   36.3600 C.3       9 GLL5        0.0000 
     28 CA         60.5710  110.9330   35.8050 C.3       6 GLP5        0.0000 
     29 O          64.0965  110.0590   38.9000 O.2       1 ALC1        0.0000 
     30 O          63.8990  110.9520   37.6270 O.2       7 ALL1        0.0000 
     31 O          64.2940  109.1660   40.1730 O.2       4 ALP1        0.0000 
     32 N          63.3870  113.3950   36.3340 N.am      2 SEC2        0.0000 
     33 N          63.9290  112.2120   35.6020 N.am      8 SEL2        0.0000 
     34 N          62.8450  114.5780   37.0660 N.am      5 SEP2        0.0000 
     35 CA         62.3780  112.3635   34.0420 C.3       3 GLC5        0.0000 
     36 CA         64.3340  112.3490   34.3020 C.3       9 GLL5        0.0000 
     37 CA         60.4220  112.3780   33.7820 C.3       6 GLP5        0.0000 
     38 CA         63.5040  111.0795   32.8140 C.3       3 GLC5        0.0000 
     39 CA         64.8485  112.8900   32.4940 C.3       3 GLC5        0.0000 
     40 CA         65.3630  113.4310   30.6860 C.3       6 GLP5        0.0000 
     41 CA         64.0685  110.0750   32.8460 C.3       3 GLC5        0.0000 
     42 CA         65.4630  110.3400   34.3660 C.3       9 GLL5        0.0000 
     43 CA         68.7535  111.6075   35.9450 C.3       3 GLC5        0.0000 
     44 CA         71.5525  111.5840   34.2760 C.3       3 GLC5        0.0000 
     45 CA         73.2220  112.6000   34.3030 C.3       6 GLP5        0.0000 
     46 CA         63.4117  109.0265   36.8345 C.3       3 GLC5        0.0000 
     47 CA         62.1180  107.4820   37.6310 C.3       6 GLP5        0.0000 
@<TRIPOS>BOND
@<TRIPOS>SUBSTRUCTURE
     1 ALC1       18 GROUP        1 X    ALC  0     ROOT ALC X 1
     2 SEC2       12 GROUP        1 X    SEC  0     **** SEC X 2
     3 GLC5        1 GROUP        1 X    GLC  0     **** GLC X 6
     4 ALP1       20 GROUP        1 Y    ALP  0     ROOT ALP Y 8
     5 SEP2       14 GROUP        1 Y    SEP  0     **** SEP Y 9
     6 GLP5        3 GROUP        1 Y    GLP  0     **** GLP Y 13
     7 ALL1       19 GROUP        1 Z    ALL  0     ROOT ALL Z 15
     8 SEL2       13 GROUP        1 Z    SEL  0     **** SEL Z 16
     9 GLL5        2 GROUP        1 Z    GLL  0     **** GLL Z 20
@<TRIPOS>SET

