#    Name: 1jdt_MTA_2_ligand
#    Modification time : Tue Mar 25 08:46:26 2014

@<TRIPOS>MOLECULE
1jdt_MTA_2_ligand
   35    37     1     0     0
SMALL
NO_CHARGES


@<TRIPOS>ATOM
      1 CS         69.5950  110.0620   36.3380 C.3       1 MTA2260     0.0000 
      2 S5'        70.5150  110.1960   34.7760 S.3       1 MTA2260     0.0000 
      3 C5'        69.2510  110.9400   33.7220 C.3       1 MTA2260     0.0000 
      4 C4'        69.1370  110.0510   32.4790 C.3       1 MTA2260     0.0000 
      5 O4'        68.3850  108.8320   32.8160 O.3       1 MTA2260     0.0000 
      6 C2'        66.9650  110.0630   31.4280 C.3       1 MTA2260     0.0000 
      7 O2'        66.5340  109.5180   30.1700 O.3       1 MTA2260     0.0000 
      8 C3'        68.4200  110.7220   31.3410 C.3       1 MTA2260     0.0000 
      9 O3'        69.1410  110.4010   30.0680 O.3       1 MTA2260     0.0000 
     10 C1'        66.9750  108.9440   32.5370 C.3       1 MTA2260     0.0000 
     11 N9         66.2440  109.2690   33.9440 N.pl3     1 MTA2260     0.0000 
     12 C8         66.3030  108.4280   35.0620 C.2       1 MTA2260     0.0000 
     13 N7         65.6480  108.8670   36.1270 N.2       1 MTA2260     0.0000 
     14 C5         65.1140  110.0670   35.7160 C.ar      1 MTA2260     0.0000 
     15 C6         64.2970  111.0750   36.3600 C.ar      1 MTA2260     0.0000 
     16 N6         63.8990  110.9520   37.6270 N.pl3     1 MTA2260     0.0000 
     17 N1         63.9290  112.2120   35.6020 N.ar      1 MTA2260     0.0000 
     18 C2         64.3340  112.3490   34.3020 C.ar      1 MTA2260     0.0000 
     19 N3         65.1050  111.4600   33.6070 N.ar      1 MTA2260     0.0000 
     20 C4         65.4630  110.3400   34.3660 C.ar      1 MTA2260     0.0000 
     21 H          69.6444  111.8900   33.5245 H         1 MTA2260     0.0000 
     22 H          68.4003  110.9204   34.3321 H         1 MTA2260     0.0000 
     23 H          70.1307  109.7759   32.1574 H         1 MTA2260     0.0000 
     24 H          66.2968  110.8428   31.7815 H         1 MTA2260     0.0000 
     25 H          68.3290  111.7394   31.5269 H         1 MTA2260     0.0000 
     26 H          66.6019  108.0492   32.1404 H         1 MTA2260     0.0000 
     27 H          66.8135  107.5645   35.0216 H         1 MTA2260     0.0000 
     28 H          63.3568  111.7082   37.9933 H         1 MTA2260     0.0000 
     29 H          64.1786  110.1146   38.0967 H         1 MTA2260     0.0000 
     30 H          64.0167  113.2360   33.7812 H         1 MTA2260     0.0000 
     31 H          70.1948  109.8288   37.1034 H         1 MTA2260     0.0000 
     32 H          69.1379  110.9194   36.5745 H         1 MTA2260     0.0000 
     33 H          68.8885  109.3557   36.2935 H         1 MTA2260     0.0000 
     34 H          66.3861  108.5449   30.3467 H         1 MTA2260     0.0000 
     35 H          68.4379  110.0370   29.4572 H         1 MTA2260     0.0000 
@<TRIPOS>BOND
     1    2    1 1    
     2   31    1 1    
     3   32    1 1    
     4   33    1 1    
     5    3    2 1    
     6    4    3 1    
     7   21    3 1    
     8   22    3 1    
     9    5    4 1    
    10    8    4 1    
    11   23    4 1    
    12   10    5 1    
    13    7    6 1    
    14    8    6 1    
    15   10    6 1    
    16   24    6 1    
    17   34    7 1    
    18    9    8 1    
    19   25    8 1    
    20   35    9 1    
    21   11   10 1    
    22   26   10 1    
    23   12   11 1    
    24   20   11 1    
    25   13   12 2    
    26   27   12 1    
    27   14   13 1    
    28   15   14 ar   
    29   20   14 ar   
    30   16   15 1    
    31   17   15 ar   
    32   28   16 1    
    33   29   16 1    
    34   18   17 ar   
    35   19   18 ar   
    36   30   18 1    
    37   20   19 ar   
@<TRIPOS>SUBSTRUCTURE
     1 MTA2260     1 GROUP   
@<TRIPOS>SET

