#    Name: 3w2m_ZRO_1_INTS_M
#    Modification time : Tue Mar 25 02:05:06 2014

@<TRIPOS>MOLECULE
3w2m_ZRO_1_INTS_M
   53     0    12     0     0
SMALL
NO_CHARGES


@<TRIPOS>ATOM
      1 NZ          8.3780   18.5800   15.1570 N.4       3 LYC4        0.0000 
      2 NZ          7.0780   18.2600   14.4030 N.4      11 LYL4        0.0000 
      3 NZ          9.6780   18.9000   15.9110 N.4       7 LYP4        0.0000 
      4 N           6.7855   19.4950   13.7845 N.am      2 SEC2        0.0000 
      5 N           7.0780   18.2600   14.4030 N.am     10 SEL2        0.0000 
      6 N           6.4930   20.7300   13.1660 N.am      6 SEP2        0.0000 
      7 N           8.3780   18.5800   15.1570 N.am      2 SEC2        0.0000 
      8 N           9.6780   18.9000   15.9110 N.am      6 SEP2        0.0000 
      9 N           4.5410   18.7365   14.4120 N.am      2 SEC2        0.0000 
     10 N           5.1020   17.3360   14.5350 N.am     10 SEL2        0.0000 
     11 N           3.9800   20.1370   14.2890 N.am      6 SEP2        0.0000 
     12 CA          7.9060   15.6620   16.2680 C.3       4 GLC5        0.0000 
     13 CA          6.8730   15.8820   14.4850 C.3      12 GLL5        0.0000 
     14 CA          8.9390   15.4420   18.0510 C.3       8 GLP5        0.0000 
     15 O           5.3795   15.4265   16.5210 O.2       1 ALC1        0.0000 
     16 O           6.4090   15.0550   15.4930 O.2       9 ALL1        0.0000 
     17 O           4.3500   15.7980   17.5490 O.2       5 ALP1        0.0000 
     18 N           5.4725   13.4545   17.5935 N.am      2 SEC2        0.0000 
     19 N           6.2500   12.9620   16.4520 N.am     10 SEL2        0.0000 
     20 N           4.6950   13.9470   18.7350 N.am      6 SEP2        0.0000 
     21 N           5.7060   11.7085   16.2220 N.am      2 SEC2        0.0000 
     22 N           5.1620   10.4550   15.9920 N.am      6 SEP2        0.0000 
     23 O           7.9510   11.8635   14.6185 O.2       1 ALC1        0.0000 
     24 O           7.6240   13.2240   14.6660 O.2       9 ALL1        0.0000 
     25 O           8.2780   10.5030   14.5710 O.2       5 ALP1        0.0000 
     26 N          10.0855   13.7125   11.9470 N.am      2 SEC2        0.0000 
     27 N           8.9450   13.5090   12.8250 N.am     10 SEL2        0.0000 
     28 N          11.2260   13.9160   11.0690 N.am      6 SEP2        0.0000 
     29 N           9.3405   12.0785   12.9045 N.am      2 SEC2        0.0000 
     30 N           9.7360   10.6480   12.9840 N.am      6 SEP2        0.0000 
     31 CA          7.5275   14.5105    9.1825 C.3       4 GLC5        0.0000 
     32 CA          7.5790   15.7200   11.0660 C.3      12 GLL5        0.0000 
     33 CA          7.4760   13.3010    7.2990 C.3       8 GLP5        0.0000 
     34 CA          7.3820   18.4390   10.0145 C.3       4 GLC5        0.0000 
     35 CA          5.8210   17.3540   10.6060 C.3      12 GLL5        0.0000 
     36 CA          8.9430   19.5240    9.4230 C.3       8 GLP5        0.0000 
     37 CA          1.4940   17.6090   14.5645 C.3       4 GLC5        0.0000 
     38 CA          1.8660   17.8400   12.7740 C.3      12 GLL5        0.0000 
     39 CA          1.1220   17.3780   16.3550 C.3       8 GLP5        0.0000 
     40 CA          8.9855   17.5023   11.7220 C.3       4 GLC5        0.0000 
     41 CA         10.0800   19.0760   11.6730 C.3       8 GLP5        0.0000 
     42 CA          4.0213   19.1120   11.9563 C.3       4 GLC5        0.0000 
     43 CA          4.4600   17.7470   10.5980 C.3      12 GLL5        0.0000 
     44 CA          4.0850   20.8870   13.0250 C.3       8 GLP5        0.0000 
     45 CA          4.8254   16.4419    9.1133 C.3       4 GLC5        0.0000 
     46 CA          3.4550   16.9270   11.1770 C.3      12 GLL5        0.0000 
     47 CA          5.3530   15.6450    7.3370 C.3       8 GLP5        0.0000 
     48 CA          2.9800   19.3818   12.4599 C.3       4 GLC5        0.0000 
     49 CA          2.0410   17.3470   11.3320 C.3      12 GLL5        0.0000 
     50 CA         -0.2279   16.9656   12.0282 C.3       4 GLC5        0.0000 
     51 CA         -2.1930   16.5910   12.0870 C.3       8 GLP5        0.0000 
     52 CA          5.7109   15.6096    9.3055 C.3       4 GLC5        0.0000 
     53 CA          5.2300   15.2400   11.5110 C.3      12 GLL5        0.0000 
@<TRIPOS>BOND
@<TRIPOS>SUBSTRUCTURE
     1 ALC1       15 GROUP        1 X    ALC  0     ROOT ALC X 1
     2 SEC2        4 GROUP        1 X    SEC  0     **** SEC X 2
     3 LYC4        1 GROUP        1 X    LYC  0     **** LYC X 4
     4 GLC5       12 GROUP        1 X    GLC  0     **** GLC X 6
     5 ALP1       17 GROUP        1 Y    ALP  0     ROOT ALP Y 8
     6 SEP2        6 GROUP        1 Y    SEP  0     **** SEP Y 9
     7 LYP4        3 GROUP        1 Y    LYP  0     **** LYP Y 11
     8 GLP5       14 GROUP        1 Y    GLP  0     **** GLP Y 13
     9 ALL1       16 GROUP        1 Z    ALL  0     ROOT ALL Z 15
    10 SEL2        5 GROUP        1 Z    SEL  0     **** SEL Z 16
    11 LYL4        2 GROUP        1 Z    LYL  0     **** LYL Z 18
    12 GLL5       13 GROUP        1 Z    GLL  0     **** GLL Z 20
@<TRIPOS>SET

