#    Name: 3w2m_ZRO_1_ligand
#    Modification time : Tue Mar 25 02:05:06 2014

@<TRIPOS>MOLECULE
3w2m_ZRO_1_ligand
   33    34     1     0     0
SMALL
NO_CHARGES


@<TRIPOS>ATOM
      1 OAA         7.0780   18.2600   14.4030 O.co2     1 ZRO401      0.0000 
      2 CAP         6.3070   17.3120   14.5120 C.2       1 ZRO401      0.0000 
      3 OAD         5.1020   17.3360   14.5350 O.co2     1 ZRO401      0.0000 
      4 CAS         6.8730   15.8820   14.4850 C.2       1 ZRO401      0.0000 
      5 NAN         6.4090   15.0550   15.4930 N.am      1 ZRO401      0.0000 
      6 CAU         6.7680   13.7350   15.5870 C.2       1 ZRO401      0.0000 
      7 OAB         6.2500   12.9620   16.4520 O.2       1 ZRO401      0.0000 
      8 NAO         7.6240   13.2240   14.6660 N.am      1 ZRO401      0.0000 
      9 CAV         8.1120   14.0070   13.6030 C.2       1 ZRO401      0.0000 
     10 OAC         8.9450   13.5090   12.8250 O.2       1 ZRO401      0.0000 
     11 CAT         7.6660   15.3580   13.5240 C.2       1 ZRO401      0.0000 
     12 CAM         8.2030   16.1370   12.4760 C.3       1 ZRO401      0.0000 
     13 CAL         7.5790   15.7200   11.0660 C.3       1 ZRO401      0.0000 
     14 CAQ         6.2360   16.0970   11.0080 C.ar      1 ZRO401      0.0000 
     15 CAH         5.8210   17.3540   10.6060 C.ar      1 ZRO401      0.0000 
     16 CAJ         4.4600   17.7470   10.5980 C.ar      1 ZRO401      0.0000 
     17 CAR         3.4550   16.9270   11.1770 C.ar      1 ZRO401      0.0000 
     18 CAW         2.0410   17.3470   11.3320 C.3       1 ZRO401      0.0000 
     19 FAF         1.7270   18.4790   10.6990 F         1 ZRO401      0.0000 
     20 FAG         1.1760   16.3340   10.9980 F         1 ZRO401      0.0000 
     21 FAE         1.8660   17.8400   12.7740 F         1 ZRO401      0.0000 
     22 CAK         3.8790   15.6590   11.6410 C.ar      1 ZRO401      0.0000 
     23 CAI         5.2300   15.2400   11.5110 C.ar      1 ZRO401      0.0000 
     24 H           5.7574   15.4589   16.2107 H         1 ZRO401      0.0000 
     25 H           7.9396   12.2336   14.7281 H         1 ZRO401      0.0000 
     26 H           9.2897   16.0202   12.3659 H         1 ZRO401      0.0000 
     27 H           7.9952   17.2099   12.5869 H         1 ZRO401      0.0000 
     28 H           7.7350   14.6388   10.9844 H         1 ZRO401      0.0000 
     29 H           8.2050   16.2094   10.3119 H         1 ZRO401      0.0000 
     30 H           6.5314   18.0536   10.2923 H         1 ZRO401      0.0000 
     31 H           4.1936   18.6402   10.1664 H         1 ZRO401      0.0000 
     32 H           3.1975   15.0271   12.0812 H         1 ZRO401      0.0000 
     33 H           5.4829   14.2781   11.7937 H         1 ZRO401      0.0000 
@<TRIPOS>BOND
     1    2    1 ar   
     2    3    2 ar   
     3    4    2 1    
     4    5    4 1    
     5   11    4 2    
     6    6    5 am   
     7   24    5 1    
     8    7    6 2    
     9    8    6 am   
    10    9    8 am   
    11   25    8 1    
    12   10    9 2    
    13   11    9 1    
    14   12   11 1    
    15   13   12 1    
    16   26   12 1    
    17   27   12 1    
    18   14   13 1    
    19   28   13 1    
    20   29   13 1    
    21   15   14 ar   
    22   23   14 ar   
    23   16   15 ar   
    24   30   15 1    
    25   17   16 ar   
    26   31   16 1    
    27   18   17 1    
    28   22   17 ar   
    29   19   18 1    
    30   20   18 1    
    31   21   18 1    
    32   23   22 ar   
    33   32   22 1    
    34   33   23 1    
@<TRIPOS>SUBSTRUCTURE
     1 ZRO401      1 GROUP   
@<TRIPOS>SET

