#    Name: 4ewn_0VR_1_INTS_M
#    Modification time : Mon Mar 24 18:43:07 2014

@<TRIPOS>MOLECULE
4ewn_0VR_1_INTS_M
   46     0     9     0     0
SMALL
NO_CHARGES


@<TRIPOS>ATOM
      1 N          21.4355   16.7620   23.8825 N.am      2 SEC2        0.0000 
      2 N          20.4820   17.8840   24.1710 N.am      8 SEL2        0.0000 
      3 N          22.3890   15.6400   23.5940 N.am      5 SEP2        0.0000 
      4 N          21.7675   18.1000   24.4855 N.am      2 SEC2        0.0000 
      5 N          23.0530   18.3160   24.8000 N.am      5 SEP2        0.0000 
      6 N          19.0775   19.7510   26.1810 N.am      2 SEC2        0.0000 
      7 N          18.8900   18.3490   26.0420 N.am      8 SEL2        0.0000 
      8 N          19.2650   21.1530   26.3200 N.am      5 SEP2        0.0000 
      9 N          17.9770   18.2450   27.0715 N.am      2 SEC2        0.0000 
     10 N          17.0640   18.1410   28.1010 N.am      5 SEP2        0.0000 
     11 N          19.5470   15.1005   24.0640 N.am      2 SEC2        0.0000 
     12 N          19.1870   16.0720   25.0800 N.am      8 SEL2        0.0000 
     13 N          19.9070   14.1290   23.0480 N.am      5 SEP2        0.0000 
     14 CA         17.7750   14.8460   23.6850 C.3       3 GLC5        0.0000 
     15 CA         17.2250   16.9320   23.1120 C.3       9 GLL5        0.0000 
     16 CA         18.3250   12.7600   24.2580 C.3       6 GLP5        0.0000 
     17 CA         18.8720   16.2900   22.1635 C.3       3 GLC5        0.0000 
     18 CA         20.5190   15.6480   21.2150 C.3       6 GLP5        0.0000 
     19 O          14.1730   17.3195   23.0695 O.2       1 ALC1        0.0000 
     20 O          15.2060   18.1580   23.0380 O.2       7 ALL1        0.0000 
     21 O          13.1400   16.4810   23.1010 O.2       4 ALP1        0.0000 
     22 CA         16.9540   20.1950   22.5365 C.3       3 GLC5        0.0000 
     23 CA         16.7250   18.5640   21.2290 C.3       9 GLL5        0.0000 
     24 CA         17.1830   21.8260   23.8440 C.3       6 GLP5        0.0000 
     25 CA         16.5130   21.1735   21.8920 C.3       3 GLC5        0.0000 
     26 CA         15.8430   20.5210   19.9400 C.3       9 GLL5        0.0000 
     27 CA         15.7780   22.2470   22.3075 C.3       3 GLC5        0.0000 
     28 CA         14.3730   22.6680   20.7710 C.3       9 GLL5        0.0000 
     29 CA         13.2685   25.1725   22.7655 C.3       3 GLC5        0.0000 
     30 CA         13.4660   23.9150   21.1930 C.3       9 GLL5        0.0000 
     31 CA         13.0710   26.4300   24.3380 C.3       6 GLP5        0.0000 
     32 CA         16.0070   17.6998   24.5555 C.3       3 GLC5        0.0000 
     33 CA         16.1530   17.5690   22.2300 C.3       9 GLL5        0.0000 
     34 CA         15.3250   18.1490   26.4400 C.3       6 GLP5        0.0000 
     35 CA         15.9940   15.6642   22.3675 C.3       3 GLC5        0.0000 
     36 CA         15.2990   14.0780   22.0640 C.3       6 GLP5        0.0000 
     37 CA         15.7950   19.4313   18.0853 C.3       3 GLC5        0.0000 
     38 CA         15.7570   19.0360   20.1610 C.3       9 GLL5        0.0000 
     39 CA         15.7900   19.0840   16.1200 C.3       6 GLP5        0.0000 
     40 CA         12.7877   21.9632   22.1780 C.3       3 GLC5        0.0000 
     41 CA         11.6560   20.6350   23.3740 C.3       6 GLP5        0.0000 
     42 CA         10.5853   23.3618   20.4038 C.3       3 GLC5        0.0000 
     43 CA         12.2630   24.1340   20.1990 C.3       9 GLL5        0.0000 
     44 CA          8.9720   23.0100   21.1270 C.3       6 GLP5        0.0000 
     45 CA         11.7843   25.3837   18.7518 C.3       3 GLC5        0.0000 
     46 CA         11.3700   27.0540   17.8230 C.3       6 GLP5        0.0000 
@<TRIPOS>BOND
@<TRIPOS>SUBSTRUCTURE
     1 ALC1       19 GROUP        1 X    ALC  0     ROOT ALC X 1
     2 SEC2        1 GROUP        1 X    SEC  0     **** SEC X 2
     3 GLC5       14 GROUP        1 X    GLC  0     **** GLC X 6
     4 ALP1       21 GROUP        1 Y    ALP  0     ROOT ALP Y 8
     5 SEP2        3 GROUP        1 Y    SEP  0     **** SEP Y 9
     6 GLP5       16 GROUP        1 Y    GLP  0     **** GLP Y 13
     7 ALL1       20 GROUP        1 Z    ALL  0     ROOT ALL Z 15
     8 SEL2        2 GROUP        1 Z    SEL  0     **** SEL Z 16
     9 GLL5       15 GROUP        1 Z    GLL  0     **** GLL Z 20
@<TRIPOS>SET

