#    Name: 4ewn_0VR_1_ligand
#    Modification time : Mon Mar 24 18:43:07 2014

@<TRIPOS>MOLECULE
4ewn_0VR_1_ligand
   38    38     1     0     0
SMALL
NO_CHARGES


@<TRIPOS>ATOM
      1 P          19.1340   17.5550   24.7670 P.3       1 0VR400      0.0000 
      2 O1P        20.4820   17.8840   24.1710 O.co2     1 0VR400      0.0000 
      3 O2P        18.8900   18.3490   26.0420 O.co2     1 0VR400      0.0000 
      4 O3P        19.1870   16.0720   25.0800 O.co2     1 0VR400      0.0000 
      5 O5'        17.9520   17.9200   23.7930 O.3       1 0VR400      0.0000 
      6 C5'        17.2250   16.9320   23.1120 C.3       1 0VR400      0.0000 
      7 C4'        16.1530   17.5690   22.2300 C.3       1 0VR400      0.0000 
      8 O4'        15.2060   18.1580   23.0380 O.3       1 0VR400      0.0000 
      9 C3'        16.7250   18.5640   21.2290 C.3       1 0VR400      0.0000 
     10 O3'        17.7670   17.9370   20.5770 O.3       1 0VR400      0.0000 
     11 C2'        15.7570   19.0360   20.1610 C.3       1 0VR400      0.0000 
     12 O2'        14.4450   18.7470   20.4450 O.3       1 0VR400      0.0000 
     13 C1'        15.8430   20.5210   19.9400 C.3       1 0VR400      0.0000 
     14 NH         14.6480   20.9570   19.2050 N.pl3     1 0VR400      0.0000 
     15 C1         12.8870   22.3910   18.9560 C.ar      1 0VR400      0.0000 
     16 C2         13.8640   22.1050   19.6400 C.ar      1 0VR400      0.0000 
     17 C3         14.3730   22.6680   20.7710 C.ar      1 0VR400      0.0000 
     18 C4         13.4660   23.9150   21.1930 C.ar      1 0VR400      0.0000 
     19 C5         12.2630   24.1340   20.1990 C.ar      1 0VR400      0.0000 
     20 C6         12.1340   23.2930   19.1620 C.ar      1 0VR400      0.0000 
     21 C7         12.5500   21.5840   17.7420 C.2       1 0VR400      0.0000 
     22 O71        12.5210   20.3450   17.9620 O.co2     1 0VR400      0.0000 
     23 O72        12.3400   22.3070   16.7350 O.co2     1 0VR400      0.0000 
     24 H          16.7133   16.2399   23.8011 H         1 0VR400      0.0000 
     25 H          17.8656   16.3183   22.4572 H         1 0VR400      0.0000 
     26 H          15.7022   16.7437   21.6450 H         1 0VR400      0.0000 
     27 H          17.0824   19.4308   21.7755 H         1 0VR400      0.0000 
     28 H          16.0612   18.5637   19.2071 H         1 0VR400      0.0000 
     29 H          16.7441   20.7452   19.3709 H         1 0VR400      0.0000 
     30 H          15.9016   21.0223   20.9050 H         1 0VR400      0.0000 
     31 H          14.3666   20.4431   18.3759 H         1 0VR400      0.0000 
     32 H          15.1061   22.4636   21.3003 H         1 0VR400      0.0000 
     33 H          13.6326   24.4252   21.9159 H         1 0VR400      0.0000 
     34 H          11.6728   24.9065   20.4271 H         1 0VR400      0.0000 
     35 H          11.2799   23.4968   18.5132 H         1 0VR400      0.0000 
     36 H          14.7170   17.3955   23.4616 H         1 0VR400      0.0000 
     37 H          17.3331   17.2389   20.0074 H         1 0VR400      0.0000 
     38 H          14.4439   18.4661   21.4047 H         1 0VR400      0.0000 
@<TRIPOS>BOND
     1    2    1 ar   
     2    3    1 ar   
     3    4    1 ar   
     4    5    1 1    
     5    6    5 1    
     6    7    6 1    
     7   24    6 1    
     8   25    6 1    
     9    8    7 1    
    10    9    7 1    
    11   26    7 1    
    12   36    8 1    
    13   10    9 1    
    14   11    9 1    
    15   27    9 1    
    16   37   10 1    
    17   12   11 1    
    18   13   11 1    
    19   28   11 1    
    20   38   12 1    
    21   14   13 1    
    22   29   13 1    
    23   30   13 1    
    24   16   14 1    
    25   31   14 1    
    26   16   15 ar   
    27   20   15 ar   
    28   21   15 1    
    29   17   16 ar   
    30   18   17 ar   
    31   32   17 1    
    32   19   18 ar   
    33   33   18 1    
    34   20   19 ar   
    35   34   19 1    
    36   35   20 1    
    37   22   21 ar   
    38   23   21 ar   
@<TRIPOS>SUBSTRUCTURE
     1 0VR400      1 GROUP   
@<TRIPOS>SET

