#    Name: 3qck_NX5_1_INTS_M
#    Modification time : Tue Mar 25 09:37:34 2014

@<TRIPOS>MOLECULE
3qck_NX5_1_INTS_M
   80     0     9     0     0
SMALL
NO_CHARGES


@<TRIPOS>ATOM
      1 CA         19.0965   31.1375   59.2100 C.3       3 GLC5        0.0000 
      2 CA         19.3910   29.6850   60.4550 C.3       9 GLL5        0.0000 
      3 CA         18.8020   32.5900   57.9650 C.3       6 GLP5        0.0000 
      4 CA         20.8080   29.6005   59.0470 C.3       3 GLC5        0.0000 
      5 CA         22.2250   29.5160   57.6390 C.3       6 GLP5        0.0000 
      6 CA         17.3070   30.7270   60.9110 C.3       3 GLC5        0.0000 
      7 CA         17.6880   29.0240   60.4900 C.3       9 GLL5        0.0000 
      8 CA         16.9260   32.4300   61.3320 C.3       6 GLP5        0.0000 
      9 CA         16.5355   27.7305   61.0480 C.3       3 GLC5        0.0000 
     10 CA         15.3830   26.4370   61.6060 C.3       6 GLP5        0.0000 
     11 CA         15.8060   29.6910   54.8835 C.3       3 GLC5        0.0000 
     12 CA         16.3100   28.9590   56.9020 C.3       9 GLL5        0.0000 
     13 CA         15.3020   30.4230   52.8650 C.3       6 GLP5        0.0000 
     14 CA         16.7925   30.9050   59.7745 C.3       3 GLC5        0.0000 
     15 CA         16.6590   29.3800   58.2170 C.3       9 GLL5        0.0000 
     16 CA         17.7600   27.8505   54.8010 C.3       3 GLC5        0.0000 
     17 CA         16.1570   26.9960   55.0690 C.3       9 GLL5        0.0000 
     18 CA         19.3630   28.7050   54.5330 C.3       6 GLP5        0.0000 
     19 CA         14.7080   28.4070   54.6375 C.3       3 GLC5        0.0000 
     20 CA         13.2590   29.8180   54.2060 C.3       6 GLP5        0.0000 
     21 CA         15.0040   26.5615   53.9180 C.3       3 GLC5        0.0000 
     22 CA         13.8510   26.1270   52.7670 C.3       6 GLP5        0.0000 
     23 CA         16.6590   24.9725   54.3315 C.3       3 GLC5        0.0000 
     24 CA         17.1610   22.9490   53.5940 C.3       6 GLP5        0.0000 
     25 CA         18.6915   25.5320   55.1515 C.3       3 GLC5        0.0000 
     26 CA         17.7110   25.1090   56.9360 C.3       9 GLL5        0.0000 
     27 CA         19.6720   25.9550   53.3670 C.3       6 GLP5        0.0000 
     28 CA         15.8550   25.5250   57.5605 C.3       3 GLC5        0.0000 
     29 CA         13.9990   25.9410   58.1850 C.3       6 GLP5        0.0000 
     30 CA         18.6750   24.6600   58.6460 C.3       3 GLC5        0.0000 
     31 CA         19.6390   24.2110   60.3560 C.3       6 GLP5        0.0000 
     32 CA         18.4510   23.6415   56.5295 C.3       3 GLC5        0.0000 
     33 CA         19.1910   22.1740   56.1230 C.3       6 GLP5        0.0000 
     34 CA         17.0020   23.7595   58.4390 C.3       3 GLC5        0.0000 
     35 CA         16.2930   22.4100   59.9420 C.3       6 GLP5        0.0000 
     36 CA         17.9210   30.9945   62.2805 C.3       3 GLC5        0.0000 
     37 CA         18.9160   29.5590   63.2290 C.3       9 GLL5        0.0000 
     38 CA         20.5335   28.0780   64.5855 C.3       3 GLC5        0.0000 
     39 CA         19.3230   29.8680   64.5720 C.3       9 GLL5        0.0000 
     40 CA         21.7440   26.2880   64.5990 C.3       6 GLP5        0.0000 
     41 CA         21.1555   32.8635   64.1430 C.3       3 GLC5        0.0000 
     42 CA         21.3400   31.1460   63.7550 C.3       9 GLL5        0.0000 
     43 CA         20.9710   34.5810   64.5310 C.3       6 GLP5        0.0000 
     44 CA         20.2110   32.5025   63.4670 C.3       3 GLC5        0.0000 
     45 CA         20.9190   30.8290   62.4150 C.3       9 GLL5        0.0000 
     46 CA         19.5030   34.1760   64.5190 C.3       6 GLP5        0.0000 
     47 CA         19.3160   32.2030   62.1495 C.3       3 GLC5        0.0000 
     48 CA         17.7130   33.5770   61.8840 C.3       6 GLP5        0.0000 
     49 N          23.6050   29.9860   61.2635 N.am      1 SEC2        0.0000 
     50 N          22.9540   31.1600   61.4000 N.am      7 SEL2        0.0000 
     51 N          24.2560   28.8120   61.1270 N.am      4 SEP2        0.0000 
     52 NZ         21.5385   33.0435   59.1940 N.4       2 LYC4        0.0000 
     53 NZ         21.1760   31.8290   60.3300 N.4       8 LYL4        0.0000 
     54 NZ         21.9120   33.2390   57.2140 N.4       5 LYP4        0.0000 
     55 N          21.6070   31.9130   59.0035 N.am      1 SEC2        0.0000 
     56 N          21.1760   31.8290   60.3300 N.am      7 SEL2        0.0000 
     57 N          22.0380   31.9970   57.6770 N.am      4 SEP2        0.0000 
     58 N          21.5385   33.0435   59.1940 N.am      1 SEC2        0.0000 
     59 N          21.9010   34.2580   58.0580 N.am      4 SEP2        0.0000 
     60 CA         18.2472   31.1502   61.3183 C.3       3 GLC5        0.0000 
     61 CA         21.6692   29.0748   62.5898 C.3       3 GLC5        0.0000 
     62 CA         19.7460   30.0560   62.1540 C.3       9 GLL5        0.0000 
     63 CA         23.0060   27.7070   62.8950 C.3       6 GLP5        0.0000 
     64 CA         15.7650   26.4327   58.1575 C.3       3 GLC5        0.0000 
     65 CA         17.7080   27.1330   58.7830 C.3       9 GLL5        0.0000 
     66 CA         18.5850   25.5677   59.2430 C.3       3 GLC5        0.0000 
     67 CA         17.3540   26.7160   57.4770 C.3       9 GLL5        0.0000 
     68 CA         14.9754   28.5899   58.3385 C.3       3 GLC5        0.0000 
     69 CA         13.2970   28.2330   58.8910 C.3       6 GLP5        0.0000 
     70 CA         18.1411   28.1022   55.8217 C.3       3 GLC5        0.0000 
     71 CA         16.6590   27.6070   56.5860 C.3       9 GLL5        0.0000 
     72 CA         15.2035   26.6212   57.0063 C.3       3 GLC5        0.0000 
     73 CA         18.4228   27.9352   64.2362 C.3       3 GLC5        0.0000 
     74 CA         17.7260   26.1570   64.5720 C.3       6 GLP5        0.0000 
     75 CA         19.4843   32.0025   65.3045 C.3       3 GLC5        0.0000 
     76 CA         19.0500   33.7450   65.9120 C.3       6 GLP5        0.0000 
     77 CA         20.9873   29.8565   66.2845 C.3       3 GLC5        0.0000 
     78 CA         20.5140   30.6520   64.8220 C.3       9 GLL5        0.0000 
     79 CA         22.0560   29.4530   67.8720 C.3       6 GLP5        0.0000 
     80 CA         21.9665   29.3030   63.5918 C.3       3 GLC5        0.0000 
@<TRIPOS>BOND
@<TRIPOS>SUBSTRUCTURE
     1 SEC2       49 GROUP        1 X    SEC  0     ROOT SEC X 2
     2 LYC4       52 GROUP        1 X    LYC  0     **** LYC X 4
     3 GLC5        1 GROUP        1 X    GLC  0     **** GLC X 6
     4 SEP2       51 GROUP        1 Y    SEP  0     ROOT SEP Y 9
     5 LYP4       54 GROUP        1 Y    LYP  0     **** LYP Y 11
     6 GLP5        3 GROUP        1 Y    GLP  0     **** GLP Y 13
     7 SEL2       50 GROUP        1 Z    SEL  0     ROOT SEL Z 16
     8 LYL4       53 GROUP        1 Z    LYL  0     **** LYL Z 18
     9 GLL5        2 GROUP        1 Z    GLL  0     **** GLL Z 20
@<TRIPOS>SET

