#    Name: 3qck_NX5_1_ligand
#    Modification time : Tue Mar 25 09:37:34 2014

@<TRIPOS>MOLECULE
3qck_NX5_1_ligand
   28    29     1     0     0
SMALL
NO_CHARGES


@<TRIPOS>ATOM
      1 C1         19.7460   30.0560   62.1540 C.ar      1 NX52001     0.0000 
      2 S2         19.3910   29.6850   60.4550 S.3       1 NX52001     0.0000 
      3 C3         17.6880   29.0240   60.4900 C.3       1 NX52001     0.0000 
      4 C4         17.3360   28.4890   59.1230 C.ar      1 NX52001     0.0000 
      5 C5         17.7080   27.1330   58.7830 C.ar      1 NX52001     0.0000 
      6 C6         16.3100   28.9590   56.9020 C.ar      1 NX52001     0.0000 
      7 C7         16.6590   29.3800   58.2170 C.ar      1 NX52001     0.0000 
      8 C8         17.3540   26.7160   57.4770 C.ar      1 NX52001     0.0000 
      9 C9         16.6590   27.6070   56.5860 C.ar      1 NX52001     0.0000 
     10 CL10       16.1570   26.9960   55.0690 Cl        1 NX52001     0.0000 
     11 CL11       17.7110   25.1090   56.9360 Cl        1 NX52001     0.0000 
     12 C12        18.9160   29.5590   63.2290 C.ar      1 NX52001     0.0000 
     13 C13        19.3230   29.8680   64.5720 C.ar      1 NX52001     0.0000 
     14 C14        20.5140   30.6520   64.8220 C.ar      1 NX52001     0.0000 
     15 C15        21.3400   31.1460   63.7550 C.ar      1 NX52001     0.0000 
     16 C16        20.9190   30.8290   62.4150 C.ar      1 NX52001     0.0000 
     17 C17        21.7200   31.2920   61.3110 C.2       1 NX52001     0.0000 
     18 O18        22.9540   31.1600   61.4000 O.co2     1 NX52001     0.0000 
     19 O19        21.1760   31.8290   60.3300 O.co2     1 NX52001     0.0000 
     20 H          17.1300   29.8756   60.7837 H         1 NX52001     0.0000 
     21 H          17.7573   28.2839   61.2451 H         1 NX52001     0.0000 
     22 H          18.1737   26.5535   59.4244 H         1 NX52001     0.0000 
     23 H          15.8637   29.5486   56.2580 H         1 NX52001     0.0000 
     24 H          16.4290   30.3248   58.5278 H         1 NX52001     0.0000 
     25 H          18.1002   29.0271   63.0424 H         1 NX52001     0.0000 
     26 H          18.7718   29.5346   65.3581 H         1 NX52001     0.0000 
     27 H          20.7727   30.8590   65.7932 H         1 NX52001     0.0000 
     28 H          22.1549   31.6759   63.9302 H         1 NX52001     0.0000 
@<TRIPOS>BOND
     1    2    1 1    
     2   12    1 ar   
     3   16    1 ar   
     4    3    2 1    
     5    4    3 1    
     6   20    3 1    
     7   21    3 1    
     8    5    4 ar   
     9    7    4 ar   
    10    8    5 ar   
    11   22    5 1    
    12    7    6 ar   
    13    9    6 ar   
    14   23    6 1    
    15   24    7 1    
    16    9    8 ar   
    17   11    8 1    
    18   10    9 1    
    19   13   12 ar   
    20   25   12 1    
    21   14   13 ar   
    22   26   13 1    
    23   15   14 ar   
    24   27   14 1    
    25   16   15 ar   
    26   28   15 1    
    27   17   16 1    
    28   18   17 ar   
    29   19   17 ar   
@<TRIPOS>SUBSTRUCTURE
     1 NX52001     1 GROUP   
@<TRIPOS>SET

