#    Name: 4bv9_NDP_2_INTS_M
#    Modification time : Tue Mar 25 08:27:59 2014

@<TRIPOS>MOLECULE
4bv9_NDP_2_INTS_M
  100     0    12     0     0
SMALL
NO_CHARGES


@<TRIPOS>ATOM
      1 N          20.0780   11.5340   -6.6110 N.am      2 SEC2        0.0000 
      2 N          21.1680   11.7900   -5.9300 N.am     10 SEL2        0.0000 
      3 N          18.9880   11.2780   -7.2920 N.am      6 SEP2        0.0000 
      4 N          24.1350    9.8860   -7.7585 N.am      2 SEC2        0.0000 
      5 N          22.8940   10.4620   -7.2020 N.am     10 SEL2        0.0000 
      6 N          25.3760    9.3100   -8.3150 N.am      6 SEP2        0.0000 
      7 CA         25.0680   16.3875   -5.6885 C.3       4 GLC5        0.0000 
      8 CA         24.5410   14.4610   -4.8250 C.3      12 GLL5        0.0000 
      9 CA         25.5950   18.3140   -6.5520 C.3       8 GLP5        0.0000 
     10 N          23.8155   17.2415   -5.1780 N.am      2 SEC2        0.0000 
     11 N          24.3070   15.8350   -4.6050 N.am     10 SEL2        0.0000 
     12 N          23.3240   18.6480   -5.7510 N.am      6 SEP2        0.0000 
     13 CA         25.6595   12.1860   -4.9920 C.3       4 GLC5        0.0000 
     14 CA         25.1220   13.8560   -3.5920 C.3      12 GLL5        0.0000 
     15 CA         26.1970   10.5160   -6.3920 C.3       8 GLP5        0.0000 
     16 N          27.7590   13.5335   -4.2080 N.am      2 SEC2        0.0000 
     17 N          26.4930   13.9390   -3.6090 N.am     10 SEL2        0.0000 
     18 N          29.0250   13.1280   -4.8070 N.am      6 SEP2        0.0000 
     19 N          27.4080   14.3825   -2.7905 N.am      2 SEC2        0.0000 
     20 N          28.3230   14.8260   -1.9720 N.am      6 SEP2        0.0000 
     21 N          26.8380   14.7450   -1.6935 N.am      2 SEC2        0.0000 
     22 N          25.3530   14.6640   -1.4150 N.am     10 SEL2        0.0000 
     23 CA         25.1325   17.1755   -4.9040 C.3       4 GLC5        0.0000 
     24 CA         24.6700   16.0370   -3.2560 C.3      12 GLL5        0.0000 
     25 CA         22.1515   18.6015   -3.4190 C.3       4 GLC5        0.0000 
     26 CA         23.3070   18.9910   -1.7700 C.3      12 GLL5        0.0000 
     27 CA         20.9960   18.2120   -5.0680 C.3       8 GLP5        0.0000 
     28 CA         26.2235   19.0100   -0.4735 C.3       4 GLC5        0.0000 
     29 CA         25.7280   20.1310   -2.0660 C.3      12 GLL5        0.0000 
     30 CA         26.7190   17.8890    1.1190 C.3       8 GLP5        0.0000 
     31 CA         25.9995   19.7300   -3.8330 C.3       4 GLC5        0.0000 
     32 CA         26.2710   19.3290   -5.6000 C.3       8 GLP5        0.0000 
     33 CA         25.1405   21.5700   -3.2825 C.3       4 GLC5        0.0000 
     34 CA         24.5530   23.0090   -4.4990 C.3       8 GLP5        0.0000 
     35 CA         25.2790   18.8000   -3.9620 C.3       4 GLC5        0.0000 
     36 CA         24.2870   18.2710   -2.3240 C.3      12 GLL5        0.0000 
     37 CA         23.1205   18.7095   -4.0655 C.3       4 GLC5        0.0000 
     38 CA         21.9540   19.1480   -5.8070 C.3       8 GLP5        0.0000 
     39 N          25.3280   11.3080   -9.9155 N.am      2 SEC2        0.0000 
     40 N          24.3840   12.1620   -9.1000 N.am     10 SEL2        0.0000 
     41 N          26.2720   10.4540  -10.7310 N.am      6 SEP2        0.0000 
     42 CA         24.3830   13.7850  -11.1935 C.3       4 GLC5        0.0000 
     43 CA         23.6560   15.0270   -9.6510 C.3      12 GLL5        0.0000 
     44 CA         25.1100   12.5430  -12.7360 C.3       8 GLP5        0.0000 
     45 CA         25.6645   15.3695   -9.9535 C.3       4 GLC5        0.0000 
     46 CA         27.6730   15.7120  -10.2560 C.3       8 GLP5        0.0000 
     47 CA         25.2840   16.7295   -9.9785 C.3       4 GLC5        0.0000 
     48 CA         23.1930   16.3370  -10.2500 C.3      12 GLL5        0.0000 
     49 CA         27.3750   17.1220   -9.7070 C.3       8 GLP5        0.0000 
     50 CA         20.8140   16.6460   -8.5195 C.3       4 GLC5        0.0000 
     51 CA         21.7550   16.6510   -9.9970 C.3      12 GLL5        0.0000 
     52 CA         19.8730   16.6410   -7.0420 C.3       8 GLP5        0.0000 
     53 CA         19.3460   14.8720  -11.3280 C.3       4 GLC5        0.0000 
     54 CA         21.0410   16.2540  -11.2760 C.3      12 GLL5        0.0000 
     55 CA         17.6510   13.4900  -11.3800 C.3       8 GLP5        0.0000 
     56 CA         19.8470   16.7055   -9.7630 C.3       4 GLC5        0.0000 
     57 CA         18.6530   17.1570   -8.2500 C.3       8 GLP5        0.0000 
     58 O          19.0275   15.6850  -10.9785 O.2       1 ALC1        0.0000 
     59 O          19.8640   16.9360  -11.4140 O.2       9 ALL1        0.0000 
     60 O          18.1910   14.4340  -10.5430 O.2       5 ALP1        0.0000 
     61 CA         23.1385   18.2785  -11.8265 C.3       4 GLC5        0.0000 
     62 CA         22.0220   16.5880  -12.3570 C.3      12 GLL5        0.0000 
     63 CA         24.2550   19.9690  -11.2960 C.3       8 GLP5        0.0000 
     64 N          22.5675   14.9625  -19.0720 N.am      2 SEC2        0.0000 
     65 N          22.9400   15.9440  -18.2670 N.am     10 SEL2        0.0000 
     66 N          22.1950   13.9810  -19.8770 N.am      6 SEP2        0.0000 
     67 O          23.6610   18.5365  -15.4915 O.2       1 ALC1        0.0000 
     68 O          23.3020   17.8250  -17.0030 O.2       9 ALL1        0.0000 
     69 O          24.0200   19.2480  -13.9800 O.2       5 ALP1        0.0000 
     70 O          24.3485   18.1405  -18.2010 O.2       1 ALC1        0.0000 
     71 O          25.3950   18.4560  -19.3990 O.2       5 ALP1        0.0000 
     72 CA         23.4010   13.4555  -13.2405 C.3       4 GLC5        0.0000 
     73 CA         21.6920   14.3680  -13.7450 C.3      12 GLL5        0.0000 
     74 NZ         23.4540   15.2050    1.0580 N.4       3 LYC4        0.0000 
     75 NZ         24.8580   14.5630    1.0530 N.4      11 LYL4        0.0000 
     76 NZ         22.5050   17.0650    1.3290 N.4       7 LYP4        0.0000 
     77 N          24.3295   15.9155    1.2975 N.am      2 SEC2        0.0000 
     78 N          24.8580   14.5630    1.0530 N.am     10 SEL2        0.0000 
     79 N          23.8010   17.2680    1.5420 N.am      6 SEP2        0.0000 
     80 N          23.4540   15.2050    1.0580 N.am      2 SEC2        0.0000 
     81 N          22.0500   15.8470    1.0630 N.am      6 SEP2        0.0000 
     82 N          25.2745   14.3810    2.3690 N.am      2 SEC2        0.0000 
     83 N          25.6910   14.1990    3.6850 N.am      6 SEP2        0.0000 
     84 N          22.8090   14.5035    0.2855 N.am      2 SEC2        0.0000 
     85 N          23.5680   13.1600   -0.4920 N.am     10 SEL2        0.0000 
     86 CA         23.2712   21.0675   -3.0398 C.3       4 GLC5        0.0000 
     87 CA         23.5360   20.2450   -1.3790 C.3      12 GLL5        0.0000 
     88 CA         23.1210   22.5170   -4.5050 C.3       8 GLP5        0.0000 
     89 CA         24.1231   18.7568   -0.0546 C.3       4 GLC5        0.0000 
     90 CA         24.3920   18.5690    1.8400 C.3       8 GLP5        0.0000 
     91 CA         23.3645   18.2315  -10.7097 C.3       4 GLC5        0.0000 
     92 CA         24.0562   16.5550  -15.1483 C.3       4 GLC5        0.0000 
     93 CA         22.2440   16.3520  -14.8290 C.3      12 GLL5        0.0000 
     94 CA         25.9250   17.0680  -14.8500 C.3       8 GLP5        0.0000 
     95 CA         23.9020   14.6128  -16.6303 C.3       4 GLC5        0.0000 
     96 CA         22.1310   15.7320  -16.0640 C.3      12 GLL5        0.0000 
     97 CA         25.7440   14.2390  -17.1480 C.3       8 GLP5        0.0000 
     98 CA         21.2067   12.4670  -16.0757 C.3       4 GLC5        0.0000 
     99 CA         21.9890   14.2410  -16.1610 C.3      12 GLL5        0.0000 
    100 CA         20.8260   10.8290  -16.6010 C.3       8 GLP5        0.0000 
@<TRIPOS>BOND
@<TRIPOS>SUBSTRUCTURE
     1 ALC1       58 GROUP        1 X    ALC  0     ROOT ALC X 1
     2 SEC2        1 GROUP        1 X    SEC  0     **** SEC X 2
     3 LYC4       74 GROUP        1 X    LYC  0     **** LYC X 4
     4 GLC5        7 GROUP        1 X    GLC  0     **** GLC X 6
     5 ALP1       60 GROUP        1 Y    ALP  0     ROOT ALP Y 8
     6 SEP2        3 GROUP        1 Y    SEP  0     **** SEP Y 9
     7 LYP4       76 GROUP        1 Y    LYP  0     **** LYP Y 11
     8 GLP5        9 GROUP        1 Y    GLP  0     **** GLP Y 13
     9 ALL1       59 GROUP        1 Z    ALL  0     ROOT ALL Z 15
    10 SEL2        2 GROUP        1 Z    SEL  0     **** SEL Z 16
    11 LYL4       75 GROUP        1 Z    LYL  0     **** LYL Z 18
    12 GLL5        8 GROUP        1 Z    GLL  0     **** GLL Z 20
@<TRIPOS>SET

