#    Name: 4bv9_NDP_2_ligand
#    Modification time : Tue Mar 25 08:27:59 2014

@<TRIPOS>MOLECULE
4bv9_NDP_2_ligand
   74    78     1     0     0
SMALL
NO_CHARGES


@<TRIPOS>ATOM
      1 PA         22.4360   11.8880   -6.8070 P.3       1 NDP1312     0.0000 
      2 O1A        21.1680   11.7900   -5.9300 O.co2     1 NDP1312     0.0000 
      3 O2A        22.8940   10.4620   -7.2020 O.co2     1 NDP1312     0.0000 
      4 O5B        23.5660   12.5720   -5.9340 O.3       1 NDP1312     0.0000 
      5 C5B        23.2650   13.7490   -5.2350 C.3       1 NDP1312     0.0000 
      6 C4B        24.5410   14.4610   -4.8250 C.3       1 NDP1312     0.0000 
      7 O4B        24.3070   15.8350   -4.6050 O.3       1 NDP1312     0.0000 
      8 C3B        25.1220   13.8560   -3.5920 C.3       1 NDP1312     0.0000 
      9 O3B        26.4930   13.9390   -3.6090 O.3       1 NDP1312     0.0000 
     10 C2B        24.5840   14.7270   -2.5590 C.3       1 NDP1312     0.0000 
     11 O2B        25.3530   14.6640   -1.4150 O.3       1 NDP1312     0.0000 
     12 C1B        24.6700   16.0370   -3.2560 C.3       1 NDP1312     0.0000 
     13 N9A        23.8070   17.0240   -2.6360 N.pl3     1 NDP1312     0.0000 
     14 C8A        22.4010   16.9530   -2.2430 C.2       1 NDP1312     0.0000 
     15 N7A        22.0940   18.2050   -1.7010 N.2       1 NDP1312     0.0000 
     16 C5A        23.3070   18.9910   -1.7700 C.ar      1 NDP1312     0.0000 
     17 C6A        23.5360   20.2450   -1.3790 C.ar      1 NDP1312     0.0000 
     18 N6A        22.4990   21.0350   -0.7860 N.pl3     1 NDP1312     0.0000 
     19 N1A        24.6830   20.7180   -1.5450 N.ar      1 NDP1312     0.0000 
     20 C2A        25.7280   20.1310   -2.0660 C.ar      1 NDP1312     0.0000 
     21 N3A        25.6090   18.8050   -2.5130 N.ar      1 NDP1312     0.0000 
     22 C4A        24.2870   18.2710   -2.3240 C.ar      1 NDP1312     0.0000 
     23 O3         22.1280   12.7600   -8.0730 O.3       1 NDP1312     0.0000 
     24 PN         22.9410   12.5960   -9.4150 P.3       1 NDP1312     0.0000 
     25 O1N        22.2440   11.5300  -10.2920 O.co2     1 NDP1312     0.0000 
     26 O2N        24.3840   12.1620   -9.1000 O.co2     1 NDP1312     0.0000 
     27 O5D        22.9380   13.9530  -10.1770 O.3       1 NDP1312     0.0000 
     28 C5D        23.6560   15.0270   -9.6510 C.3       1 NDP1312     0.0000 
     29 C4D        23.1930   16.3370  -10.2500 C.3       1 NDP1312     0.0000 
     30 O4D        23.1220   16.3750  -11.6050 O.3       1 NDP1312     0.0000 
     31 C3D        21.7550   16.6510   -9.9970 C.3       1 NDP1312     0.0000 
     32 O3D        21.5730   17.9890   -9.7320 O.3       1 NDP1312     0.0000 
     33 C2D        21.0410   16.2540  -11.2760 C.3       1 NDP1312     0.0000 
     34 O2D        19.8640   16.9360  -11.4140 O.3       1 NDP1312     0.0000 
     35 C1D        22.0220   16.5880  -12.3570 C.3       1 NDP1312     0.0000 
     36 N1N        21.9620   15.7580  -13.5380 N.pl3     1 NDP1312     0.0000 
     37 C2N        22.2440   16.3520  -14.8290 C.2       1 NDP1312     0.0000 
     38 C3N        22.1310   15.7320  -16.0640 C.2       1 NDP1312     0.0000 
     39 C7N        22.7990   16.4860  -17.1810 C.2       1 NDP1312     0.0000 
     40 O7N        22.9400   15.9440  -18.2670 O.2       1 NDP1312     0.0000 
     41 N7N        23.3020   17.8250  -17.0030 N.am      1 NDP1312     0.0000 
     42 C4N        21.9890   14.2410  -16.1610 C.3       1 NDP1312     0.0000 
     43 C5N        21.1860   13.9690  -14.9400 C.2       1 NDP1312     0.0000 
     44 C6N        21.6920   14.3680  -13.7450 C.2       1 NDP1312     0.0000 
     45 P2B        24.9240   13.7540   -0.2120 P.3       1 NDP1312     0.0000 
     46 O1X        24.8580   14.5630    1.0530 O.co2     1 NDP1312     0.0000 
     47 O2X        25.9120   12.6330   -0.0240 O.co2     1 NDP1312     0.0000 
     48 O3X        23.5680   13.1600   -0.4920 O.co2     1 NDP1312     0.0000 
     49 H          22.6857   13.5516   -4.3172 H         1 NDP1312     0.0000 
     50 H          22.6722   14.4539   -5.8422 H         1 NDP1312     0.0000 
     51 H          25.2669   14.3256   -5.6374 H         1 NDP1312     0.0000 
     52 H          24.7305   12.8832   -3.4762 H         1 NDP1312     0.0000 
     53 H          23.5528   14.4918   -2.4213 H         1 NDP1312     0.0000 
     54 H          25.7088   16.3744   -3.1992 H         1 NDP1312     0.0000 
     55 H          21.8616   16.2186   -2.3467 H         1 NDP1312     0.0000 
     56 H          22.7436   21.9749   -0.5477 H         1 NDP1312     0.0000 
     57 H          21.6172   20.5805   -0.6599 H         1 NDP1312     0.0000 
     58 H          26.6455   20.5955   -2.1672 H         1 NDP1312     0.0000 
     59 H          24.7426   14.9389   -9.8461 H         1 NDP1312     0.0000 
     60 H          23.5436   15.1068   -8.5522 H         1 NDP1312     0.0000 
     61 H          23.7645   17.1630   -9.8630 H         1 NDP1312     0.0000 
     62 H          21.4012   16.0002   -9.2180 H         1 NDP1312     0.0000 
     63 H          20.9305   15.1809  -11.2521 H         1 NDP1312     0.0000 
     64 H          21.9032   17.6341  -12.5696 H         1 NDP1312     0.0000 
     65 H          22.5692   17.3674  -14.8016 H         1 NDP1312     0.0000 
     66 H          23.2204   18.2069  -16.0824 H         1 NDP1312     0.0000 
     67 H          23.6907   18.2606  -17.8149 H         1 NDP1312     0.0000 
     68 H          22.9368   13.7820  -16.0931 H         1 NDP1312     0.0000 
     69 H          21.4456   13.9849  -17.0286 H         1 NDP1312     0.0000 
     70 H          20.3048   13.5016  -15.0583 H         1 NDP1312     0.0000 
     71 H          21.8879   13.7147  -12.9869 H         1 NDP1312     0.0000 
     72 H          26.6939   14.8074   -4.0623 H         1 NDP1312     0.0000 
     73 H          20.7331   18.2365  -10.2151 H         1 NDP1312     0.0000 
     74 H          19.1498   16.2511  -11.2699 H         1 NDP1312     0.0000 
@<TRIPOS>BOND
     1    2    1 ar   
     2    3    1 ar   
     3    4    1 1    
     4   23    1 1    
     5    5    4 1    
     6    6    5 1    
     7   49    5 1    
     8   50    5 1    
     9    7    6 1    
    10    8    6 1    
    11   51    6 1    
    12   12    7 1    
    13    9    8 1    
    14   10    8 1    
    15   52    8 1    
    16   72    9 1    
    17   11   10 1    
    18   12   10 1    
    19   53   10 1    
    20   45   11 1    
    21   13   12 1    
    22   54   12 1    
    23   14   13 1    
    24   22   13 1    
    25   15   14 2    
    26   55   14 1    
    27   16   15 1    
    28   17   16 ar   
    29   22   16 ar   
    30   18   17 1    
    31   19   17 ar   
    32   56   18 1    
    33   57   18 1    
    34   20   19 ar   
    35   21   20 ar   
    36   58   20 1    
    37   22   21 ar   
    38   24   23 1    
    39   25   24 ar   
    40   26   24 ar   
    41   27   24 1    
    42   28   27 1    
    43   29   28 1    
    44   59   28 1    
    45   60   28 1    
    46   30   29 1    
    47   31   29 1    
    48   61   29 1    
    49   35   30 1    
    50   32   31 1    
    51   33   31 1    
    52   62   31 1    
    53   73   32 1    
    54   34   33 1    
    55   35   33 1    
    56   63   33 1    
    57   74   34 1    
    58   36   35 1    
    59   64   35 1    
    60   37   36 1    
    61   44   36 1    
    62   38   37 2    
    63   65   37 1    
    64   39   38 1    
    65   42   38 1    
    66   40   39 2    
    67   41   39 am   
    68   66   41 1    
    69   67   41 1    
    70   43   42 1    
    71   68   42 1    
    72   69   42 1    
    73   44   43 2    
    74   70   43 1    
    75   71   44 1    
    76   46   45 ar   
    77   47   45 ar   
    78   48   45 ar   
@<TRIPOS>SUBSTRUCTURE
     1 NDP1312     1 GROUP   
@<TRIPOS>SET

