#    Name: 2h2q_NAP_1_INTS_M
#    Modification time : Tue Mar 25 15:27:48 2014

@<TRIPOS>MOLECULE
2h2q_NAP_1_INTS_M
  100     0    12     0     0
SMALL
NO_CHARGES


@<TRIPOS>ATOM
      1 N          51.4070   21.5510   33.2590 N.am      2 SEC2        0.0000 
      2 N          50.8600   20.4270   33.2950 N.am     10 SEL2        0.0000 
      3 N          51.9540   22.6750   33.2230 N.am      6 SEP2        0.0000 
      4 N          52.1825   16.9940   33.1030 N.am      2 SEC2        0.0000 
      5 N          52.0220   18.2690   33.3800 N.am     10 SEL2        0.0000 
      6 N          52.3430   15.7190   32.8260 N.am      6 SEP2        0.0000 
      7 CA         51.1815   15.8880   32.5260 C.3       4 GLC5        0.0000 
      8 CA         49.7860   17.2380   31.4700 C.3      12 GLL5        0.0000 
      9 CA         52.5770   14.5380   33.5820 C.3       8 GLP5        0.0000 
     10 CA         48.4420   18.6695   28.8310 C.3       4 GLC5        0.0000 
     11 CA         49.2380   17.1860   30.0580 C.3      12 GLL5        0.0000 
     12 CA         47.6460   20.1530   27.6040 C.3       8 GLP5        0.0000 
     13 N          50.0805   18.8370   28.8645 N.am      2 SEC2        0.0000 
     14 N          50.2850   17.2590   29.1060 N.am     10 SEL2        0.0000 
     15 N          49.8760   20.4150   28.6230 N.am      6 SEP2        0.0000 
     16 CA         51.7610   17.0945   27.0675 C.3       4 GLC5        0.0000 
     17 CA         50.0520   16.3520   28.0430 C.3      12 GLL5        0.0000 
     18 CA         53.4700   17.8370   26.0920 C.3       8 GLP5        0.0000 
     19 CA         53.1645   12.6120   24.9180 C.3       4 GLC5        0.0000 
     20 CA         52.4890   12.2440   26.8770 C.3      12 GLL5        0.0000 
     21 CA         53.8400   12.9800   22.9590 C.3       8 GLP5        0.0000 
     22 CA         48.9140   12.9315   24.2940 C.3       4 GLC5        0.0000 
     23 CA         50.7400   12.7770   25.3180 C.3      12 GLL5        0.0000 
     24 CA         47.0880   13.0860   23.2700 C.3       8 GLP5        0.0000 
     25 CA         52.2900   12.8785   24.1385 C.3       4 GLC5        0.0000 
     26 CA         52.2985   16.0225   26.6365 C.3       4 GLC5        0.0000 
     27 CA         51.1270   14.2080   27.1810 C.3      12 GLL5        0.0000 
     28 N          52.3175   16.4325   35.5905 N.am      2 SEC2        0.0000 
     29 N          51.1230   17.0820   35.6800 N.am     10 SEL2        0.0000 
     30 N          53.5120   15.7830   35.5010 N.am      6 SEP2        0.0000 
     31 N          51.7330   16.4005   34.2530 N.am      2 SEC2        0.0000 
     32 N          52.0080   18.8985   36.5245 N.am      2 SEC2        0.0000 
     33 N          50.4390   19.3990   36.3730 N.am     10 SEL2        0.0000 
     34 N          53.5770   18.3980   36.6760 N.am      6 SEP2        0.0000 
     35 CA         48.3745   20.6325   34.6140 C.3       4 GLC5        0.0000 
     36 CA         49.5840   20.5180   36.4210 C.3      12 GLL5        0.0000 
     37 CA         47.1650   20.7470   32.8070 C.3       8 GLP5        0.0000 
     38 CA         47.0365   22.8095   37.8255 C.3       4 GLC5        0.0000 
     39 CA         49.0610   22.6060   37.7200 C.3      12 GLL5        0.0000 
     40 CA         45.0120   23.0130   37.9310 C.3       8 GLP5        0.0000 
     41 N          47.6320   21.6645   39.8780 N.am      2 SEC2        0.0000 
     42 N          48.4970   22.7590   39.0030 N.am     10 SEL2        0.0000 
     43 N          46.7670   20.5700   40.7530 N.am      6 SEP2        0.0000 
     44 O          48.3715   23.8000   39.9790 O.2       1 ALC1        0.0000 
     45 O          48.4970   22.7590   39.0030 O.2       9 ALL1        0.0000 
     46 O          48.2460   24.8410   40.9550 O.2       5 ALP1        0.0000 
     47 CA         50.7420   22.8660   40.3030 C.3       4 GLC5        0.0000 
     48 CA         51.3140   23.0210   38.1840 C.3      12 GLL5        0.0000 
     49 CA         50.1700   22.7110   42.4220 C.3       8 GLP5        0.0000 
     50 N          57.8800   25.7620   40.3035 N.am      2 SEC2        0.0000 
     51 N          56.7480   25.7520   39.4360 N.am     10 SEL2        0.0000 
     52 N          59.0120   25.7720   41.1710 N.am      6 SEP2        0.0000 
     53 O          56.0835   24.8425   41.9425 O.2       1 ALC1        0.0000 
     54 O          55.0880   25.0120   40.9830 O.2       9 ALL1        0.0000 
     55 O          57.0790   24.6730   42.9020 O.2       5 ALP1        0.0000 
     56 O          53.8345   24.5660   41.6745 O.2       1 ALC1        0.0000 
     57 O          52.5810   24.1200   42.3660 O.2       5 ALP1        0.0000 
     58 N          45.0560   17.8045   27.5615 N.am      2 SEC2        0.0000 
     59 N          45.8020   17.1940   26.1170 N.am     10 SEL2        0.0000 
     60 N          44.3100   18.4150   29.0060 N.am      6 SEP2        0.0000 
     61 N          46.3875   17.7640   25.2375 N.am      2 SEC2        0.0000 
     62 N          46.9730   18.3340   24.3580 N.am      6 SEP2        0.0000 
     63 N          44.6370   16.7790   25.4985 N.am      2 SEC2        0.0000 
     64 N          43.4720   16.3640   24.8800 N.am      6 SEP2        0.0000 
     65 N          47.1050   15.1070   25.0175 N.am      2 SEC2        0.0000 
     66 N          46.3360   14.8080   26.4600 N.am     10 SEL2        0.0000 
     67 N          47.8740   15.4060   23.5750 N.am      6 SEP2        0.0000 
     68 N          46.2980   13.9730   25.4390 N.am      2 SEC2        0.0000 
     69 N          46.2600   13.1380   24.4180 N.am      6 SEP2        0.0000 
     70 NZ         44.6460   17.9210   28.6370 N.4       3 LYC4        0.0000 
     71 NZ         45.3450   16.1510   28.2950 N.4      11 LYL4        0.0000 
     72 NZ         43.9470   19.6910   28.9790 N.4       7 LYP4        0.0000 
     73 CA         50.8230   18.7150   30.1290 C.3       4 GLC5        0.0000 
     74 CA         52.1340   20.2180   29.4940 C.3       8 GLP5        0.0000 
     75 CA         47.7500   17.4225   31.5932 C.3       4 GLC5        0.0000 
     76 CA         46.4970   18.2920   32.9210 C.3       8 GLP5        0.0000 
     77 CA         49.2662   16.6905   26.2035 C.3       4 GLC5        0.0000 
     78 CA         48.6610   15.7700   28.2670 C.3      12 GLL5        0.0000 
     79 CA         49.1760   17.3200   24.2520 C.3       8 GLP5        0.0000 
     80 CA         54.0825   13.1645   26.6965 C.3       4 GLC5        0.0000 
     81 CA         52.1650   13.3840   27.6090 C.3      12 GLL5        0.0000 
     82 CA         55.8380   13.5150   26.1500 C.3       8 GLP5        0.0000 
     83 CA         47.8880   20.8942   38.6412 C.3       4 GLC5        0.0000 
     84 CA         49.8470   21.3030   37.7010 C.3      12 GLL5        0.0000 
     85 CA         46.3220   19.8340   39.5720 C.3       8 GLP5        0.0000 
     86 CA         48.2533   24.5813   38.4705 C.3       4 GLC5        0.0000 
     87 CA         46.9160   26.0290   39.3350 C.3       8 GLP5        0.0000 
     88 CA         51.0915   25.1325   38.9625 C.3       4 GLC5        0.0000 
     89 CA         50.1200   23.6610   37.4920 C.3      12 GLL5        0.0000 
     90 CA         51.4660   26.9240   40.0870 C.3       8 GLP5        0.0000 
     91 CA         54.3088   23.0282   40.2747 C.3       4 GLC5        0.0000 
     92 CA         53.4270   24.0520   38.8270 C.3      12 GLL5        0.0000 
     93 CA         54.5780   21.6920   41.8440 C.3       8 GLP5        0.0000 
     94 CA         53.5719   26.1166   38.6046 C.3       4 GLC5        0.0000 
     95 CA         52.5550   27.6080   39.2730 C.3       8 GLP5        0.0000 
     96 CA         53.1043   24.5038   34.6223 C.3       4 GLC5        0.0000 
     97 CA         54.1730   24.3550   36.1440 C.3      12 GLL5        0.0000 
     98 CA         52.6340   24.9570   32.9210 C.3       8 GLP5        0.0000 
     99 CA         53.8582   22.2212   35.8772 C.3       4 GLC5        0.0000 
    100 CA         54.1420   20.3920   35.4310 C.3       8 GLP5        0.0000 
@<TRIPOS>BOND
@<TRIPOS>SUBSTRUCTURE
     1 ALC1       44 GROUP        1 X    ALC  0     ROOT ALC X 1
     2 SEC2        1 GROUP        1 X    SEC  0     **** SEC X 2
     3 LYC4       70 GROUP        1 X    LYC  0     **** LYC X 4
     4 GLC5        7 GROUP        1 X    GLC  0     **** GLC X 6
     5 ALP1       46 GROUP        1 Y    ALP  0     ROOT ALP Y 8
     6 SEP2        3 GROUP        1 Y    SEP  0     **** SEP Y 9
     7 LYP4       72 GROUP        1 Y    LYP  0     **** LYP Y 11
     8 GLP5        9 GROUP        1 Y    GLP  0     **** GLP Y 13
     9 ALL1       45 GROUP        1 Z    ALL  0     ROOT ALL Z 15
    10 SEL2        2 GROUP        1 Z    SEL  0     **** SEL Z 16
    11 LYL4       71 GROUP        1 Z    LYL  0     **** LYL Z 18
    12 GLL5        8 GROUP        1 Z    GLL  0     **** GLL Z 20
@<TRIPOS>SET

