#    Name: 2h2q_NAP_1_ligand
#    Modification time : Tue Mar 25 15:27:48 2014

@<TRIPOS>MOLECULE
2h2q_NAP_1_ligand
   73    77     1     0     0
SMALL
NO_CHARGES


@<TRIPOS>ATOM
      1 PA         50.7300   18.9620   33.1840 P.3       1 NAP523      0.0000 
      2 O1A        50.8600   20.4270   33.2950 O.co2     1 NAP523      0.0000 
      3 O2A        52.0220   18.2690   33.3800 O.co2     1 NAP523      0.0000 
      4 O5B        50.1060   18.5790   31.7570 O.3       1 NAP523      0.0000 
      5 C5B        49.7860   17.2380   31.4700 C.3       1 NAP523      0.0000 
      6 C4B        49.2380   17.1860   30.0580 C.3       1 NAP523      0.0000 
      7 O4B        50.2850   17.2590   29.1060 O.3       1 NAP523      0.0000 
      8 C3B        48.4940   15.8940   29.7670 C.3       1 NAP523      0.0000 
      9 O3B        47.1500   15.9620   30.1840 O.3       1 NAP523      0.0000 
     10 C2B        48.6610   15.7700   28.2670 C.3       1 NAP523      0.0000 
     11 O2B        47.7590   16.6120   27.5840 O.3       1 NAP523      0.0000 
     12 C1B        50.0520   16.3520   28.0430 C.3       1 NAP523      0.0000 
     13 N9A        51.0310   15.2440   28.0840 N.pl3     1 NAP523      0.0000 
     14 C8A        51.9960   15.0440   29.0410 C.2       1 NAP523      0.0000 
     15 N7A        52.6780   13.9150   28.7400 N.2       1 NAP523      0.0000 
     16 C5A        52.1650   13.3840   27.6090 C.ar      1 NAP523      0.0000 
     17 C6A        52.4890   12.2440   26.8770 C.ar      1 NAP523      0.0000 
     18 N6A        53.3530   11.3590   27.3690 N.pl3     1 NAP523      0.0000 
     19 N1A        51.7720   11.9470   25.7280 N.ar      1 NAP523      0.0000 
     20 C2A        50.7400   12.7770   25.3180 C.ar      1 NAP523      0.0000 
     21 N3A        50.4270   13.9060   26.0530 N.ar      1 NAP523      0.0000 
     22 C4A        51.1270   14.2080   27.1810 C.ar      1 NAP523      0.0000 
     23 O3         49.6150   18.4290   34.2060 O.3       1 NAP523      0.0000 
     24 PN         49.9650   18.0050   35.7140 P.3       1 NAP523      0.0000 
     25 O1N        48.6980   17.5700   36.3430 O.co2     1 NAP523      0.0000 
     26 O2N        51.1230   17.0820   35.6800 O.co2     1 NAP523      0.0000 
     27 O5D        50.4390   19.3990   36.3730 O.3       1 NAP523      0.0000 
     28 C5D        49.5840   20.5180   36.4210 C.3       1 NAP523      0.0000 
     29 C4D        49.8470   21.3030   37.7010 C.3       1 NAP523      0.0000 
     30 O4D        51.2180   21.6570   37.8220 O.3       1 NAP523      0.0000 
     31 C3D        49.0610   22.6060   37.7200 C.3       1 NAP523      0.0000 
     32 O3D        48.4970   22.7590   39.0030 O.3       1 NAP523      0.0000 
     33 C2D        50.1200   23.6610   37.4920 C.3       1 NAP523      0.0000 
     34 O2D        49.7660   24.9060   38.0460 O.3       1 NAP523      0.0000 
     35 C1D        51.3140   23.0210   38.1840 C.3       1 NAP523      0.0000 
     36 N1N        52.6160   23.6050   37.8160 N.pl3     1 NAP523      0.0000 
     37 C2N        53.4270   24.0520   38.8270 C.ar      1 NAP523      0.0000 
     38 C3N        54.6520   24.6770   38.5840 C.ar      1 NAP523      0.0000 
     39 C7N        55.5060   25.1530   39.7250 C.2       1 NAP523      0.0000 
     40 O7N        56.7480   25.7520   39.4360 O.2       1 NAP523      0.0000 
     41 N7N        55.0880   25.0120   40.9830 N.am      1 NAP523      0.0000 
     42 C4N        55.1380   24.8860   37.1670 C.ar      1 NAP523      0.0000 
     43 C5N        54.1730   24.3550   36.1440 C.ar      1 NAP523      0.0000 
     44 C6N        52.9760   23.7460   36.5030 C.ar      1 NAP523      0.0000 
     45 P2B        46.2840   16.1710   27.1120 P.3       1 NAP523      0.0000 
     46 O1X        45.8020   17.1940   26.1170 O.co2     1 NAP523      0.0000 
     47 O2X        46.3360   14.8080   26.4600 O.co2     1 NAP523      0.0000 
     48 O3X        45.3450   16.1510   28.2950 O.co2     1 NAP523      0.0000 
     49 H          49.0220   16.8416   32.1417 H         1 NAP523      0.0000 
     50 H          50.6597   16.5848   31.5156 H         1 NAP523      0.0000 
     51 H          48.5423   18.0050   29.9182 H         1 NAP523      0.0000 
     52 H          49.0545   15.0999   30.2231 H         1 NAP523      0.0000 
     53 H          48.6585   14.7800   27.9804 H         1 NAP523      0.0000 
     54 H          50.0632   16.8284   27.0955 H         1 NAP523      0.0000 
     55 H          52.1517   15.6191   29.7964 H         1 NAP523      0.0000 
     56 H          53.7350   11.5703   28.2687 H         1 NAP523      0.0000 
     57 H          53.5422   10.5626   26.7946 H         1 NAP523      0.0000 
     58 H          50.2071   12.5515   24.4656 H         1 NAP523      0.0000 
     59 H          48.5244   20.2311   36.4203 H         1 NAP523      0.0000 
     60 H          49.7445   21.1996   35.5757 H         1 NAP523      0.0000 
     61 H          49.5246   20.7129   38.5459 H         1 NAP523      0.0000 
     62 H          48.3811   22.6075   36.9345 H         1 NAP523      0.0000 
     63 H          50.3319   23.6830   36.4453 H         1 NAP523      0.0000 
     64 H          51.1429   23.1215   39.2580 H         1 NAP523      0.0000 
     65 H          53.1262   23.9251   39.8226 H         1 NAP523      0.0000 
     66 H          55.7254   25.3083   41.6943 H         1 NAP523      0.0000 
     67 H          54.1747   24.6226   41.1022 H         1 NAP523      0.0000 
     68 H          55.9477   25.2992   36.9561 H         1 NAP523      0.0000 
     69 H          54.4497   24.4683   35.1622 H         1 NAP523      0.0000 
     70 H          52.3476   23.3934   35.7517 H         1 NAP523      0.0000 
     71 H          46.6200   16.0305   29.3387 H         1 NAP523      0.0000 
     72 H          48.6901   23.7061   39.2592 H         1 NAP523      0.0000 
     73 H          50.5681   25.1938   38.5693 H         1 NAP523      0.0000 
@<TRIPOS>BOND
     1    2    1 ar   
     2    3    1 ar   
     3    4    1 1    
     4   23    1 1    
     5    5    4 1    
     6    6    5 1    
     7   49    5 1    
     8   50    5 1    
     9    7    6 1    
    10    8    6 1    
    11   51    6 1    
    12   12    7 1    
    13    9    8 1    
    14   10    8 1    
    15   52    8 1    
    16   71    9 1    
    17   11   10 1    
    18   12   10 1    
    19   53   10 1    
    20   45   11 1    
    21   13   12 1    
    22   54   12 1    
    23   14   13 1    
    24   22   13 1    
    25   15   14 2    
    26   55   14 1    
    27   16   15 1    
    28   17   16 ar   
    29   22   16 ar   
    30   18   17 1    
    31   19   17 ar   
    32   56   18 1    
    33   57   18 1    
    34   20   19 ar   
    35   21   20 ar   
    36   58   20 1    
    37   22   21 ar   
    38   24   23 1    
    39   25   24 ar   
    40   26   24 ar   
    41   27   24 1    
    42   28   27 1    
    43   29   28 1    
    44   59   28 1    
    45   60   28 1    
    46   30   29 1    
    47   31   29 1    
    48   61   29 1    
    49   35   30 1    
    50   32   31 1    
    51   33   31 1    
    52   62   31 1    
    53   72   32 1    
    54   34   33 1    
    55   35   33 1    
    56   63   33 1    
    57   73   34 1    
    58   36   35 1    
    59   64   35 1    
    60   37   36 ar   
    61   44   36 ar   
    62   38   37 ar   
    63   65   37 1    
    64   39   38 1    
    65   42   38 ar   
    66   40   39 2    
    67   41   39 am   
    68   66   41 1    
    69   67   41 1    
    70   43   42 ar   
    71   68   42 1    
    72   44   43 ar   
    73   69   43 1    
    74   70   44 1    
    75   46   45 ar   
    76   47   45 ar   
    77   48   45 ar   
@<TRIPOS>SUBSTRUCTURE
     1 NAP523      1 GROUP   
@<TRIPOS>SET

