#    Name: 1cq8_PY6_1_INTS_M
#    Modification time : Mon Mar 24 20:52:22 2014

@<TRIPOS>MOLECULE
1cq8_PY6_1_INTS_M
   80     0    12     0     0
SMALL
NO_CHARGES


@<TRIPOS>ATOM
      1 CA         27.0555    6.2555  -18.5915 C.3       4 GLC5        0.0000 
      2 CA         27.0260    4.8580  -17.3090 C.3      12 GLL5        0.0000 
      3 CA         27.0850    7.6530  -19.8740 C.3       8 GLP5        0.0000 
      4 CA         25.1885    5.0355  -18.0105 C.3       4 GLC5        0.0000 
      5 CA         23.3510    5.2130  -18.7120 C.3       8 GLP5        0.0000 
      6 N          26.0605    7.7525  -16.8890 N.am      2 SEC2        0.0000 
      7 N          25.3230    6.9560  -16.1060 N.am     10 SEL2        0.0000 
      8 N          26.7980    8.5490  -17.6720 N.am      6 SEP2        0.0000 
      9 O          24.2120    7.1030  -16.7820 O.2       1 ALC1        0.0000 
     10 O          25.3230    6.9560  -16.1060 O.2       9 ALL1        0.0000 
     11 O          23.1010    7.2500  -17.4580 O.2       5 ALP1        0.0000 
     12 CA         25.9200    7.0880  -12.3590 C.3       4 GLC5        0.0000 
     13 CA         24.1160    6.7920  -13.3550 C.3      12 GLL5        0.0000 
     14 CA         27.7240    7.3840  -11.3630 C.3       8 GLP5        0.0000 
     15 CA         24.8705    2.0875  -11.2510 C.3       4 GLC5        0.0000 
     16 CA         24.9310    4.0770  -12.0020 C.3      12 GLL5        0.0000 
     17 CA         24.8100    0.0980  -10.5000 C.3       8 GLP5        0.0000 
     18 CA         26.4750    5.0790  -11.5305 C.3       4 GLC5        0.0000 
     19 CA         28.0190    6.0810  -11.0590 C.3       8 GLP5        0.0000 
     20 N          23.1045    1.5815  -10.2110 N.am      2 SEC2        0.0000 
     21 N          22.4420    2.6720  -10.8420 N.am     10 SEL2        0.0000 
     22 N          23.7670    0.4910   -9.5800 N.am      6 SEP2        0.0000 
     23 N          21.6860    1.9040  -11.4510 N.am      2 SEC2        0.0000 
     24 N          20.9300    1.1360  -12.0600 N.am      6 SEP2        0.0000 
     25 N          20.8010    2.8380  -10.5545 N.am      2 SEC2        0.0000 
     26 N          19.1600    3.0040  -10.2670 N.am      6 SEP2        0.0000 
     27 NZ         22.4670    4.6750   -8.3645 N.4       3 LYC4        0.0000 
     28 NZ         21.9170    5.0310   -9.9680 N.4      11 LYL4        0.0000 
     29 NZ         21.7610    4.2080   -6.3530 N.4       7 LYP4        0.0000 
     30 N          21.3545    4.5330   -8.6045 N.am      2 SEC2        0.0000 
     31 N          21.9170    5.0310   -9.9680 N.am     10 SEL2        0.0000 
     32 N          20.7920    4.0350   -7.2410 N.am      6 SEP2        0.0000 
     33 N          22.4670    4.6750   -8.3645 N.am      2 SEC2        0.0000 
     34 N          23.0170    4.3190   -6.7610 N.am      6 SEP2        0.0000 
     35 NZ         23.3995    3.9640   -8.0170 N.4       3 LYC4        0.0000 
     36 NZ         23.7820    3.6090   -9.2730 N.4      11 LYL4        0.0000 
     37 N          23.7745    2.0500   -9.4265 N.am      2 SEC2        0.0000 
     38 N          23.7820    3.6090   -9.2730 N.am     10 SEL2        0.0000 
     39 N          24.9360    2.6490   -9.2255 N.am      2 SEC2        0.0000 
     40 N          26.0900    1.6890   -9.1780 N.am      6 SEP2        0.0000 
     41 N          25.0970    4.0500   -9.0095 N.am      2 SEC2        0.0000 
     42 N          26.4120    4.4910   -8.7460 N.am      6 SEP2        0.0000 
     43 N          23.3995    3.9640   -8.0170 N.am      2 SEC2        0.0000 
     44 NZ         25.2030   10.9980  -16.6320 N.4       3 LYC4        0.0000 
     45 NZ         24.5960   10.1090  -15.7830 N.4      11 LYL4        0.0000 
     46 NZ         25.2680   13.0960  -17.5020 N.4       7 LYP4        0.0000 
     47 N          25.6970    9.3290  -16.7275 N.am      2 SEC2        0.0000 
     48 N          24.5960   10.1090  -15.7830 N.am     10 SEL2        0.0000 
     49 N          25.2030   10.9980  -16.6320 N.am      2 SEC2        0.0000 
     50 N          25.8100   11.8870  -17.4810 N.am      6 SEP2        0.0000 
     51 CA         24.8700   11.7700  -11.9400 C.3       4 GLC5        0.0000 
     52 CA         24.2570    9.7860  -11.5350 C.3      12 GLL5        0.0000 
     53 CA         25.4830   13.7540  -12.3450 C.3       8 GLP5        0.0000 
     54 CA         25.9905    8.5850  -11.4490 C.3       4 GLC5        0.0000 
     55 CA         23.9330   11.3405   -8.9950 C.3       4 GLC5        0.0000 
     56 CA         23.8320    9.7440  -10.0730 C.3      12 GLL5        0.0000 
     57 CA         24.0340   12.9370   -7.9170 C.3       8 GLP5        0.0000 
     58 CA         25.7800    7.8640  -10.4225 C.3       4 GLC5        0.0000 
     59 CA         23.8360    8.3440   -9.4820 C.3      12 GLL5        0.0000 
     60 NZ         24.3180   12.5575  -15.2420 N.4       3 LYC4        0.0000 
     61 NZ         24.0110   11.5700  -14.0500 N.4      11 LYL4        0.0000 
     62 N          22.4385   11.8995  -14.6350 N.am      2 SEC2        0.0000 
     63 N          24.0110   11.5700  -14.0500 N.am     10 SEL2        0.0000 
     64 N          20.8660   12.2290  -15.2200 N.am      6 SEP2        0.0000 
     65 N          24.3180   12.5575  -15.2420 N.am      2 SEC2        0.0000 
     66 N          24.6250   13.5450  -16.4340 N.am      6 SEP2        0.0000 
     67 CA         28.2720    6.1847  -16.2853 C.3       4 GLC5        0.0000 
     68 CA         26.3540    4.9030  -15.9440 C.3      12 GLL5        0.0000 
     69 CA         29.8540    7.4890  -15.9440 C.3       8 GLP5        0.0000 
     70 CA         24.6505    3.8852  -15.8970 C.3       4 GLC5        0.0000 
     71 CA         23.3630    2.3740  -16.1730 C.3       8 GLP5        0.0000 
     72 CA         22.5517    5.9538  -13.9982 C.3       4 GLC5        0.0000 
     73 CA         24.9910    5.7350  -14.0040 C.3      12 GLL5        0.0000 
     74 CA         20.5500    5.6440  -14.3170 C.3       8 GLP5        0.0000 
     75 CA         24.5220    3.3438  -15.0090 C.3       4 GLC5        0.0000 
     76 CA         25.3810    4.4870  -13.4040 C.3      12 GLL5        0.0000 
     77 CA         22.3663   10.9343  -12.6275 C.3       4 GLC5        0.0000 
     78 CA         23.5350    9.1310  -13.9200 C.3      12 GLL5        0.0000 
     79 CA         21.4040   12.6090  -12.0590 C.3       8 GLP5        0.0000 
     80 CA         22.7243   11.1870  -11.4315 C.3       4 GLC5        0.0000 
@<TRIPOS>BOND
@<TRIPOS>SUBSTRUCTURE
     1 ALC1        9 GROUP        1 X    ALC  0     ROOT ALC X 1
     2 SEC2        6 GROUP        1 X    SEC  0     **** SEC X 2
     3 LYC4       27 GROUP        1 X    LYC  0     **** LYC X 4
     4 GLC5        1 GROUP        1 X    GLC  0     **** GLC X 6
     5 ALP1       11 GROUP        1 Y    ALP  0     ROOT ALP Y 8
     6 SEP2        8 GROUP        1 Y    SEP  0     **** SEP Y 9
     7 LYP4       29 GROUP        1 Y    LYP  0     **** LYP Y 11
     8 GLP5        3 GROUP        1 Y    GLP  0     **** GLP Y 13
     9 ALL1       10 GROUP        1 Z    ALL  0     ROOT ALL Z 15
    10 SEL2        7 GROUP        1 Z    SEL  0     **** SEL Z 16
    11 LYL4       28 GROUP        1 Z    LYL  0     **** LYL Z 18
    12 GLL5        2 GROUP        1 Z    GLL  0     **** GLL Z 20
@<TRIPOS>SET

