#    Name: 1cq8_PY6_1_ligand
#    Modification time : Mon Mar 24 20:52:22 2014

@<TRIPOS>MOLECULE
1cq8_PY6_1_ligand
   43    43     1     0     0
SMALL
NO_CHARGES


@<TRIPOS>ATOM
      1 N1         26.6500    3.7470  -15.2440 N.ar      1 PY6413      0.0000 
      2 C2         26.3540    4.9030  -15.9440 C.ar      1 PY6413      0.0000 
      3 C2A        27.0260    4.8580  -17.3090 C.3       1 PY6413      0.0000 
      4 C3         25.5220    5.8900  -15.2980 C.ar      1 PY6413      0.0000 
      5 O3         25.3230    6.9560  -16.1060 O.3       1 PY6413      0.0000 
      6 C4         24.9910    5.7350  -14.0040 C.ar      1 PY6413      0.0000 
      7 C4A        24.1160    6.7920  -13.3550 C.3       1 PY6413      0.0000 
      8 C5         25.3810    4.4870  -13.4040 C.ar      1 PY6413      0.0000 
      9 C6         26.1760    3.5160  -13.9860 C.ar      1 PY6413      0.0000 
     10 C5A        24.9310    4.0770  -12.0020 C.3       1 PY6413      0.0000 
     11 O4P        23.8120    4.6820  -11.4590 O.3       1 PY6413      0.0000 
     12 P          22.8730    3.9590  -10.4050 P.3       1 PY6413      0.0000 
     13 O1P        22.4420    2.6720  -10.8420 O.co2     1 PY6413      0.0000 
     14 O2P        21.9170    5.0310   -9.9680 O.co2     1 PY6413      0.0000 
     15 O3P        23.7820    3.6090   -9.2730 O.co2     1 PY6413      0.0000 
     16 N          24.5950    8.0770  -13.9980 N.4       1 PY6413      0.0000 
     17 CA         23.5350    9.1310  -13.9200 C.3       1 PY6413      0.0000 
     18 C          24.0620   10.3900  -14.5770 C.2       1 PY6413      0.0000 
     19 O          24.5960   10.1090  -15.7830 O.co2     1 PY6413      0.0000 
     20 CB         23.1220    9.3880  -12.4720 C.3       1 PY6413      0.0000 
     21 CG         24.2570    9.7860  -11.5350 C.3       1 PY6413      0.0000 
     22 CD         23.8320    9.7440  -10.0730 C.3       1 PY6413      0.0000 
     23 CE         23.8360    8.3440   -9.4820 C.3       1 PY6413      0.0000 
     24 OXT        24.0110   11.5700  -14.0500 O.co2     1 PY6413      0.0000 
     25 H          24.2970    6.8189  -12.3106 H         1 PY6413      0.0000 
     26 H          23.0991    6.6197  -13.6011 H         1 PY6413      0.0000 
     27 H          26.3958    2.6568  -13.4824 H         1 PY6413      0.0000 
     28 H          25.8441    4.2080  -11.3305 H         1 PY6413      0.0000 
     29 H          24.8204    2.9417  -12.0294 H         1 PY6413      0.0000 
     30 H          22.6661    8.7946  -14.4744 H         1 PY6413      0.0000 
     31 H          22.6328    8.4767  -12.0745 H         1 PY6413      0.0000 
     32 H          22.3508   10.1835  -12.4579 H         1 PY6413      0.0000 
     33 H          24.5897   10.7987  -11.7842 H         1 PY6413      0.0000 
     34 H          25.1011    9.1051  -11.6842 H         1 PY6413      0.0000 
     35 H          22.8206   10.1706   -9.9820 H         1 PY6413      0.0000 
     36 H          24.5079   10.3851   -9.4853 H         1 PY6413      0.0000 
     37 H          28.0204    4.7871  -17.2312 H         1 PY6413      0.0000 
     38 H          26.7176    4.0749  -17.8491 H         1 PY6413      0.0000 
     39 H          26.8318    5.6791  -17.8458 H         1 PY6413      0.0000 
     40 H          24.7449    7.9285   -9.5175 H         1 PY6413      0.0000 
     41 H          23.5513    8.3447   -8.5234 H         1 PY6413      0.0000 
     42 H          23.2148    7.7323   -9.9718 H         1 PY6413      0.0000 
     43 H          24.3455    6.9422  -16.3164 H         1 PY6413      0.0000 
@<TRIPOS>BOND
     1    2    1 ar   
     2    9    1 ar   
     3    3    2 1    
     4    4    2 ar   
     5   37    3 1    
     6   38    3 1    
     7   39    3 1    
     8    5    4 1    
     9    6    4 ar   
    10   43    5 1    
    11    7    6 1    
    12    8    6 ar   
    13   16    7 1    
    14   25    7 1    
    15   26    7 1    
    16    9    8 ar   
    17   10    8 1    
    18   27    9 1    
    19   11   10 1    
    20   28   10 1    
    21   29   10 1    
    22   12   11 1    
    23   13   12 ar   
    24   14   12 ar   
    25   15   12 ar   
    26   17   16 1    
    27   18   17 1    
    28   20   17 1    
    29   30   17 1    
    30   19   18 ar   
    31   24   18 ar   
    32   21   20 1    
    33   31   20 1    
    34   32   20 1    
    35   22   21 1    
    36   33   21 1    
    37   34   21 1    
    38   23   22 1    
    39   35   22 1    
    40   36   22 1    
    41   40   23 1    
    42   41   23 1    
    43   42   23 1    
@<TRIPOS>SUBSTRUCTURE
     1 PY6413      1 GROUP   
@<TRIPOS>SET

