#    Name: 2X7C_2_CAVITY_N1_6.mol2
#    Modification time : Mon Mar 10 22:23:55 2014

@<TRIPOS>MOLECULE
2X7C_2_CAVITY_N1_6.mol2
   70     0     6     0     0
SMALL
NO_CHARGES


@<TRIPOS>ATOM
      1 NZ         12.3225   15.8162  -25.7058 N.2       3 LYS4        0.0000 
      2 CA         11.2797   16.8907  -25.6169 C.3       5 GLY6        0.0000 
      3 NZ         12.7214   14.2202  -27.0450 N.2       3 LYS4        0.0000 
      4 CA         11.6785   15.2947  -26.9561 C.3       5 GLY6        0.0000 
      5 CZ         10.6357   16.3692  -26.8672 C.ar      4 PHE5        0.0000 
      6 CA         12.0774   13.6986  -28.2953 C.3       5 GLY6        0.0000 
      7 CA         11.0345   14.7731  -28.2064 C.3       5 GLY6        0.0000 
      8 CZ         10.8138   14.3873  -26.1322 C.ar      4 PHE5        0.0000 
      9 CA         18.3329   19.8004  -28.6640 C.3       5 GLY6        0.0000 
     10 OG         19.7747   17.1299  -30.0921 O.2       1 SER1        0.0000 
     11 OG         18.7318   18.2044  -30.0032 O.2       1 SER1        0.0000 
     12 CA         17.6890   19.2789  -29.9143 C.3       5 GLY6        0.0000 
     13 CA         17.0450   18.7573  -31.1646 C.3       5 GLY6        0.0000 
     14 DU         19.5539   16.7440  -28.0179 H         6 CUB7        0.0000 
     15 CA         18.5111   17.8185  -27.9290 C.3       5 GLY6        0.0000 
     16 O          20.9957   14.0735  -29.4460 O.2       2 ALA2        0.0000 
     17 CA         19.9528   15.1480  -29.3571 C.3       5 GLY6        0.0000 
     18 DU         18.9100   16.2225  -29.2682 H         6 CUB7        0.0000 
     19 CA         17.8671   17.2970  -29.1793 C.3       5 GLY6        0.0000 
     20 CA         16.8242   18.3715  -29.0904 C.3       5 GLY6        0.0000 
     21 CA         19.3088   14.6264  -30.6074 C.3       5 GLY6        0.0000 
     22 OG         18.2660   15.7009  -30.5185 O.2       1 SER1        0.0000 
     23 OG         17.2231   16.7754  -30.4296 O.2       1 SER1        0.0000 
     24 O          16.1803   17.8499  -30.3407 O.2       2 ALA2        0.0000 
     25 CA         17.6220   15.1793  -31.7688 C.3       5 GLY6        0.0000 
     26 CZ         16.5791   16.2538  -31.6799 C.ar      4 PHE5        0.0000 
     27 CA         18.2904   17.4327  -25.8548 C.3       5 GLY6        0.0000 
     28 DU         18.6892   15.8366  -27.1940 H         6 CUB7        0.0000 
     29 CA         17.6464   16.9111  -27.1051 C.3       5 GLY6        0.0000 
     30 N          20.1309   13.1660  -28.6221 N.2       2 ALA2        0.0000 
     31 N          19.0881   14.2405  -28.5332 N.2       2 ALA2        0.0000 
     32 DU         18.0452   15.3150  -28.4443 H         6 CUB7        0.0000 
     33 CA         17.0024   16.3895  -28.3554 C.3       5 GLY6        0.0000 
     34 N          15.9595   17.4640  -28.2665 N.2       2 ALA2        0.0000 
     35 N          18.4441   13.7190  -29.7835 N.2       2 ALA2        0.0000 
     36 DU         17.4012   14.7935  -29.6946 H         6 CUB7        0.0000 
     37 DU         16.3584   15.8680  -29.6057 H         6 CUB7        0.0000 
     38 CA         15.3155   16.9425  -29.5168 C.3       5 GLY6        0.0000 
     39 N          17.8001   13.1974  -31.0338 N.2       2 ALA2        0.0000 
     40 DU         16.7573   14.2719  -30.9449 H         6 CUB7        0.0000 
     41 CZ         15.7144   15.3464  -30.8560 C.ar      4 PHE5        0.0000 
     42 CA         16.1133   13.7503  -32.1952 C.3       5 GLY6        0.0000 
     43 CA         15.0704   14.8248  -32.1063 C.3       5 GLY6        0.0000 
     44 CA         17.4256   16.5252  -25.0309 C.3       5 GLY6        0.0000 
     45 NZ         17.8245   14.9292  -26.3701 N.2       3 LYS4        0.0000 
     46 NZ         16.7817   16.0037  -26.2812 N.2       3 LYS4        0.0000 
     47 CA         15.7388   17.0782  -26.1923 C.3       5 GLY6        0.0000 
     48 N          18.2234   13.3331  -27.7093 N.2       2 ALA2        0.0000 
     49 NZ         17.1805   14.4076  -27.6204 N.2       3 LYS4        0.0000 
     50 NZ         16.1377   15.4821  -27.5315 N.2       3 LYS4        0.0000 
     51 N          15.0948   16.5566  -27.4426 N.2       2 ALA2        0.0000 
     52 N          16.5365   13.8860  -28.8707 N.2       2 ALA2        0.0000 
     53 NZ         15.4937   14.9605  -28.7818 N.2       3 LYS4        0.0000 
     54 CA         14.4508   16.0350  -28.6929 C.3       5 GLY6        0.0000 
     55 N          15.8925   13.3645  -30.1210 N.2       2 ALA2        0.0000 
     56 CA         14.8497   14.4390  -30.0321 C.3       5 GLY6        0.0000 
     57 CA         13.8068   15.5135  -29.9432 C.3       5 GLY6        0.0000 
     58 CA         15.2486   12.8429  -31.3713 C.3       5 GLY6        0.0000 
     59 CA         14.2057   13.9174  -31.2824 C.3       5 GLY6        0.0000 
     60 O          14.8741   16.1707  -25.3683 O.2       2 ALA2        0.0000 
     61 O          13.8312   17.2452  -25.2794 O.2       2 ALA2        0.0000 
     62 NZ         14.2301   15.6492  -26.6186 N.2       3 LYS4        0.0000 
     63 N          13.1872   16.7237  -26.5297 N.2       2 ALA2        0.0000 
     64 N          12.1444   17.7982  -26.4408 N.2       2 ALA2        0.0000 
     65 NZ         14.6290   14.0531  -27.9578 N.2       3 LYS4        0.0000 
     66 NZ         13.5861   15.1276  -27.8689 N.2       3 LYS4        0.0000 
     67 CA         12.5433   16.2021  -27.7800 C.3       5 GLY6        0.0000 
     68 CA         11.5004   17.2766  -27.6911 C.3       5 GLY6        0.0000 
     69 N          13.9850   13.5315  -29.2081 N.2       2 ALA2        0.0000 
     70 CA         12.9421   14.6060  -29.1192 C.3       5 GLY6        0.0000 
@<TRIPOS>BOND
@<TRIPOS>SUBSTRUCTURE
     1 SER1       10 GROUP   
     2 ALA2       16 GROUP   
     3 LYS4        1 GROUP   
     4 PHE5        5 GROUP   
     5 GLY6        2 GROUP   
     6 CUB7       14 GROUP   
@<TRIPOS>SET

