#    Name: 2x7c_KZ9_2_INTS_M
#    Modification time : Tue Mar 25 05:14:47 2014

@<TRIPOS>MOLECULE
2x7c_KZ9_2_INTS_M
   60     0     6     0     0
SMALL
NO_CHARGES


@<TRIPOS>ATOM
      1 O          19.5625   11.1985  -33.4425 O.2       1 ALC1        0.0000 
      2 O          18.5760   11.4590  -34.3260 O.2       5 ALL1        0.0000 
      3 O          20.5490   10.9380  -32.5590 O.2       3 ALP1        0.0000 
      4 CA         18.7370   11.5845  -35.5890 C.3       2 GLC5        0.0000 
      5 CA         17.6670   12.2660  -33.7540 C.3       6 GLL5        0.0000 
      6 CA         19.8070   10.9030  -37.4240 C.3       4 GLP5        0.0000 
      7 CA         19.2995   11.7300  -31.2855 C.3       2 GLC5        0.0000 
      8 CA         17.7050   12.3870  -32.3700 C.3       6 GLL5        0.0000 
      9 CA         20.8940   11.0730  -30.2010 C.3       4 GLP5        0.0000 
     10 CA         17.3905   10.5660  -33.0790 C.3       2 GLC5        0.0000 
     11 CA         17.0760    8.7450  -33.7880 C.3       4 GLP5        0.0000 
     12 CA         14.2895   12.8685  -33.7865 C.3       2 GLC5        0.0000 
     13 CA         15.7620   13.7060  -33.8820 C.3       6 GLL5        0.0000 
     14 CA         12.8170   12.0310  -33.6910 C.3       4 GLP5        0.0000 
     15 CA         13.9270   14.7735  -32.2035 C.3       2 GLC5        0.0000 
     16 CA         15.8090   13.8480  -32.4860 C.3       6 GLL5        0.0000 
     17 CA         12.0450   15.6990  -31.9210 C.3       4 GLP5        0.0000 
     18 CA         16.0000   12.2125  -28.5030 C.3       2 GLC5        0.0000 
     19 CA         16.7910   13.3800  -30.2050 C.3       6 GLL5        0.0000 
     20 CA         15.2090   11.0450  -26.8010 C.3       4 GLP5        0.0000 
     21 CA         20.1130   15.9620  -31.4420 C.3       2 GLC5        0.0000 
     22 CA         18.9230   16.7880  -29.8220 C.3       6 GLL5        0.0000 
     23 CA         21.3030   15.1360  -33.0620 C.3       4 GLP5        0.0000 
     24 CA         17.7335   17.9625  -31.9450 C.3       2 GLC5        0.0000 
     25 CA         17.7460   17.7320  -29.8090 C.3       6 GLL5        0.0000 
     26 CA         17.7210   18.1930  -34.0810 C.3       4 GLP5        0.0000 
     27 CA         17.1635   19.5335  -30.8695 C.3       2 GLC5        0.0000 
     28 CA         16.5810   21.3350  -31.9300 C.3       4 GLP5        0.0000 
     29 CA         15.9840   19.2415  -29.3110 C.3       2 GLC5        0.0000 
     30 CA         16.6680   17.1520  -28.8770 C.3       6 GLL5        0.0000 
     31 CA         15.3000   21.3310  -29.7450 C.3       4 GLP5        0.0000 
     32 CA         14.8950   12.5120  -27.9615 C.3       2 GLC5        0.0000 
     33 CA         14.5810   13.9790  -29.1220 C.3       6 GLL5        0.0000 
     34 CA         13.5940   12.5110  -27.1675 C.3       2 GLC5        0.0000 
     35 CA         13.0130   13.5120  -28.5850 C.3       6 GLL5        0.0000 
     36 CA         14.1750   11.5100  -25.7500 C.3       4 GLP5        0.0000 
     37 CA         11.2750   13.0120  -29.0645 C.3       2 GLC5        0.0000 
     38 CA          9.5370   12.5120  -29.5440 C.3       4 GLP5        0.0000 
     39 O          15.4395   11.6950  -29.8675 O.2       1 ALC1        0.0000 
     40 O          15.4110   13.0620  -29.7770 O.2       5 ALL1        0.0000 
     41 O          15.4680   10.3280  -29.9580 O.2       3 ALP1        0.0000 
     42 CA         16.6995   10.9157  -34.5345 C.3       2 GLC5        0.0000 
     43 CA         16.2140    9.2380  -34.9310 C.3       4 GLP5        0.0000 
     44 CA         18.1517   14.0062  -34.0070 C.3       2 GLC5        0.0000 
     45 CA         20.0710   14.6990  -33.8120 C.3       4 GLP5        0.0000 
     46 CA         16.3852   14.4082  -35.7780 C.3       2 GLC5        0.0000 
     47 CA         16.7030   12.9210  -34.5220 C.3       6 GLL5        0.0000 
     48 CA         16.5380   15.5030  -37.3540 C.3       4 GLP5        0.0000 
     49 CA         15.3773   11.8489  -33.2755 C.3       2 GLC5        0.0000 
     50 CA         13.5600   11.0740  -32.7590 C.3       4 GLP5        0.0000 
     51 CA         14.9280   12.3000  -32.4345 C.3       2 GLC5        0.0000 
     52 CA         18.6527   13.7321  -33.1050 C.3       2 GLC5        0.0000 
     53 CA         16.7830   13.2040  -31.7340 C.3       6 GLL5        0.0000 
     54 CA         17.1735   18.5450  -27.7600 C.3       2 GLC5        0.0000 
     55 CA         17.1400   19.6480  -26.1770 C.3       4 GLP5        0.0000 
     56 CA         14.5887   17.0780  -29.8807 C.3       2 GLC5        0.0000 
     57 CA         12.6990   17.7220  -30.6940 C.3       4 GLP5        0.0000 
     58 CA         13.2085   12.3637  -30.2052 C.3       2 GLC5        0.0000 
     59 CA         12.6200   10.9820  -31.5570 C.3       4 GLP5        0.0000 
     60 CA         12.9210   14.7222  -30.3873 C.3       2 GLC5        0.0000 
@<TRIPOS>BOND
@<TRIPOS>SUBSTRUCTURE
     1 ALC1        1 GROUP        1 X    ALC  0     ROOT ALC X 1
     2 GLC5        4 GROUP        1 X    GLC  0     **** GLC X 6
     3 ALP1        3 GROUP        1 Y    ALP  0     ROOT ALP Y 8
     4 GLP5        6 GROUP        1 Y    GLP  0     **** GLP Y 13
     5 ALL1        2 GROUP        1 Z    ALL  0     ROOT ALL Z 15
     6 GLL5        5 GROUP        1 Z    GLL  0     **** GLL Z 20
@<TRIPOS>SET

