#    Name: 2x7c_KZ9_2_ligand
#    Modification time : Tue Mar 25 05:14:47 2014

@<TRIPOS>MOLECULE
2x7c_KZ9_2_ligand
   33    35     1     0     0
SMALL
NO_CHARGES


@<TRIPOS>ATOM
      1 OAB        18.5760   11.4590  -34.3260 O.3       1 KZ91367     0.0000 
      2 CAQ        17.6670   12.2660  -33.7540 C.ar      1 KZ91367     0.0000 
      3 CAG        17.7050   12.3870  -32.3700 C.ar      1 KZ91367     0.0000 
      4 CAE        16.7030   12.9210  -34.5220 C.ar      1 KZ91367     0.0000 
      5 CAD        15.7620   13.7060  -33.8820 C.ar      1 KZ91367     0.0000 
      6 CAF        15.8090   13.8480  -32.4860 C.ar      1 KZ91367     0.0000 
      7 CAR        16.7830   13.2040  -31.7340 C.ar      1 KZ91367     0.0000 
      8 CAS        16.7910   13.3800  -30.2050 C.3       1 KZ91367     0.0000 
      9 CAP        17.1880   14.8390  -29.8380 C.2       1 KZ91367     0.0000 
     10 CAM        18.4690   15.3460  -30.0990 C.2       1 KZ91367     0.0000 
     11 OAA        19.3180   14.5770  -30.5350 O.2       1 KZ91367     0.0000 
     12 CAI        18.9230   16.7880  -29.8220 C.3       1 KZ91367     0.0000 
     13 CAH        17.7460   17.7320  -29.8090 C.3       1 KZ91367     0.0000 
     14 CAJ        16.6680   17.1520  -28.8770 C.3       1 KZ91367     0.0000 
     15 CAO        16.2890   15.7160  -29.2580 C.2       1 KZ91367     0.0000 
     16 NAK        14.9860   15.2920  -28.9520 N.am      1 KZ91367     0.0000 
     17 CAN        14.5810   13.9790  -29.1220 C.2       1 KZ91367     0.0000 
     18 SAC        13.0130   13.5120  -28.5850 S.2       1 KZ91367     0.0000 
     19 NAL        15.4110   13.0620  -29.7770 N.am      1 KZ91367     0.0000 
     20 H          18.4079   11.8769  -31.8266 H         1 KZ91367     0.0000 
     21 H          16.6980   12.8184  -35.5373 H         1 KZ91367     0.0000 
     22 H          15.0298   14.1859  -34.4153 H         1 KZ91367     0.0000 
     23 H          15.1054   14.4421  -32.0171 H         1 KZ91367     0.0000 
     24 H          17.4844   12.7005  -29.7898 H         1 KZ91367     0.0000 
     25 H          19.6294   17.0876  -30.5970 H         1 KZ91367     0.0000 
     26 H          19.4307   16.8160  -28.8572 H         1 KZ91367     0.0000 
     27 H          17.3352   17.8271  -30.8029 H         1 KZ91367     0.0000 
     28 H          18.0491   18.6984  -29.4350 H         1 KZ91367     0.0000 
     29 H          15.7781   17.7833  -28.9274 H         1 KZ91367     0.0000 
     30 H          17.0420   17.1641  -27.8508 H         1 KZ91367     0.0000 
     31 H          14.3086   15.9938  -28.5860 H         1 KZ91367     0.0000 
     32 H          15.0727   12.1056  -29.9872 H         1 KZ91367     0.0000 
     33 H          18.9734   10.9398  -33.5694 H         1 KZ91367     0.0000 
@<TRIPOS>BOND
     1    2    1 1    
     2   33    1 1    
     3    3    2 ar   
     4    4    2 ar   
     5    7    3 ar   
     6   20    3 1    
     7    5    4 ar   
     8   21    4 1    
     9    6    5 ar   
    10   22    5 1    
    11    7    6 ar   
    12   23    6 1    
    13    8    7 1    
    14    9    8 1    
    15   19    8 1    
    16   24    8 1    
    17   10    9 1    
    18   15    9 2    
    19   11   10 2    
    20   12   10 1    
    21   13   12 1    
    22   25   12 1    
    23   26   12 1    
    24   14   13 1    
    25   27   13 1    
    26   28   13 1    
    27   15   14 1    
    28   29   14 1    
    29   30   14 1    
    30   16   15 1    
    31   17   16 am   
    32   31   16 1    
    33   18   17 2    
    34   19   17 am   
    35   32   19 1    
@<TRIPOS>SUBSTRUCTURE
     1 KZ91367     1 GROUP   
@<TRIPOS>SET

