#    Name: 3E6E_1_CAVITY_N1_6.mol2
#    Modification time : Mon Mar 10 12:24:25 2014

@<TRIPOS>MOLECULE
3E6E_1_CAVITY_N1_6.mol2
   73     0     7     0     0
SMALL
NO_CHARGES


@<TRIPOS>ATOM
      1 CA         20.9955  -24.8773  -23.4703 C.3       6 GLY6        0.0000 
      2 OG         19.8343  -24.2541  -22.7539 O.2       1 SER1        0.0000 
      3 OG         18.6732  -23.6308  -22.0374 O.2       1 SER1        0.0000 
      4 CZ         19.5713  -17.1460  -19.9421 C.ar      5 PHE5        0.0000 
      5 CZ         18.4102  -16.5227  -19.2257 C.ar      5 PHE5        0.0000 
      6 CZ         17.2491  -15.8995  -18.5092 C.ar      5 PHE5        0.0000 
      7 OD1        23.5892  -20.9922  -22.6465 O.3       3 ASP3        0.0000 
      8 OG         22.4280  -20.3689  -21.9301 O.2       1 SER1        0.0000 
      9 OG         21.2669  -19.7457  -21.2136 O.2       1 SER1        0.0000 
     10 OG         20.1057  -19.1224  -20.4972 O.2       1 SER1        0.0000 
     11 CZ         18.9446  -18.4992  -19.7807 C.ar      5 PHE5        0.0000 
     12 CZ         17.7834  -17.8759  -19.0643 C.ar      5 PHE5        0.0000 
     13 CZ         16.6223  -17.2527  -18.3478 C.ar      5 PHE5        0.0000 
     14 CA         22.9624  -22.3454  -22.4852 C.3       6 GLY6        0.0000 
     15 OD1        21.8012  -21.7221  -21.7687 O.3       3 ASP3        0.0000 
     16 CZ         20.6401  -21.0989  -21.0523 C.ar      5 PHE5        0.0000 
     17 CZ         19.4790  -20.4756  -20.3358 C.ar      5 PHE5        0.0000 
     18 CA         22.3356  -23.6986  -22.3238 C.3       6 GLY6        0.0000 
     19 CZ         20.3771  -13.9908  -18.2405 C.ar      5 PHE5        0.0000 
     20 CZ         19.7503  -15.3440  -18.0791 C.ar      5 PHE5        0.0000 
     21 CA         18.5892  -14.7207  -17.3627 C.3       6 GLY6        0.0000 
     22 CZ         22.6070  -18.5669  -20.0671 C.ar      5 PHE5        0.0000 
     23 CZ         21.4459  -17.9437  -19.3506 C.ar      5 PHE5        0.0000 
     24 CZ         20.2847  -17.3204  -18.6342 C.ar      5 PHE5        0.0000 
     25 CA         19.1236  -16.6972  -17.9177 C.3       6 GLY6        0.0000 
     26 CA         17.9624  -16.0739  -17.2013 C.3       6 GLY6        0.0000 
     27 OD1        23.1414  -20.5434  -20.6222 O.3       3 ASP3        0.0000 
     28 OG         21.9802  -19.9201  -19.9057 O.2       1 SER1        0.0000 
     29 CZ         20.8191  -19.2969  -19.1893 C.ar      5 PHE5        0.0000 
     30 CZ         19.6580  -18.6736  -18.4728 C.ar      5 PHE5        0.0000 
     31 CZ         18.4968  -18.0504  -17.7564 C.ar      5 PHE5        0.0000 
     32 CA         17.3357  -17.4271  -17.0399 C.3       6 GLY6        0.0000 
     33 CA         20.4637  -15.5184  -16.7712 C.3       6 GLY6        0.0000 
     34 CA         19.3026  -14.8952  -16.0548 C.3       6 GLY6        0.0000 
     35 CA         23.3235  -21.2666  -25.9788 C.3       6 GLY6        0.0000 
     36 N          22.1624  -20.6433  -25.2624 N.2       2 ALA2        0.0000 
     37 CZ         16.3567  -17.5270  -21.6801 C.ar      5 PHE5        0.0000 
     38 CA         22.6968  -22.6197  -25.8175 C.3       6 GLY6        0.0000 
     39 O          21.5356  -21.9965  -25.1010 O.2       2 ALA2        0.0000 
     40 N          20.3745  -21.3732  -24.3846 N.2       2 ALA2        0.0000 
     41 N          19.2133  -20.7500  -23.6681 N.2       2 ALA2        0.0000 
     42 O          18.0522  -20.1267  -22.9517 O.2       2 ALA2        0.0000 
     43 O          16.8911  -19.5035  -22.2352 O.2       2 ALA2        0.0000 
     44 CA         22.0700  -23.9729  -25.6561 C.3       6 GLY6        0.0000 
     45 DU         20.9089  -23.3497  -24.9396 H         7 CUB7        0.0000 
     46 DU         19.7477  -22.7264  -24.2232 H         7 CUB7        0.0000 
     47 CA         18.5866  -22.1032  -23.5067 C.3       6 GLY6        0.0000 
     48 O          17.4254  -21.4799  -22.7903 O.2       2 ALA2        0.0000 
     49 OG         16.2643  -20.8567  -22.0738 O.2       1 SER1        0.0000 
     50 CA         20.2821  -24.7029  -24.7783 C.3       6 GLY6        0.0000 
     51 N          19.1210  -24.0796  -24.0618 N.2       2 ALA2        0.0000 
     52 N          17.9598  -23.4564  -23.3454 N.2       2 ALA2        0.0000 
     53 OG         22.8758  -20.8177  -23.9545 O.2       1 SER1        0.0000 
     54 OG         21.7146  -20.1945  -23.2380 O.2       1 SER1        0.0000 
     55 OG         19.3923  -18.9480  -21.8051 O.2       1 SER1        0.0000 
     56 CZ         18.2312  -18.3247  -21.0887 C.ar      5 PHE5        0.0000 
     57 OG         17.0701  -17.7015  -20.3722 O.2       1 SER1        0.0000 
     58 NZ         15.9089  -17.0782  -19.6558 N.2       4 LYS4        0.0000 
     59 CA         23.4101  -22.7942  -24.5095 C.3       6 GLY6        0.0000 
     60 CA         22.2490  -22.1709  -23.7931 C.3       6 GLY6        0.0000 
     61 OG         21.0879  -21.5477  -23.0766 O.2       1 SER1        0.0000 
     62 OG         19.9267  -20.9244  -22.3602 O.2       1 SER1        0.0000 
     63 OG         18.7656  -20.3012  -21.6437 O.2       1 SER1        0.0000 
     64 CA         22.7834  -24.1474  -24.3482 C.3       6 GLY6        0.0000 
     65 CA         21.6222  -23.5241  -23.6317 C.3       6 GLY6        0.0000 
     66 OG         20.4611  -22.9009  -22.9153 O.2       1 SER1        0.0000 
     67 OG         19.3000  -22.2776  -22.1988 O.2       1 SER1        0.0000 
     68 OG         18.1388  -21.6544  -21.4824 O.2       1 SER1        0.0000 
     69 O          21.9834  -22.4453  -27.1254 O.2       2 ALA2        0.0000 
     70 O          20.8222  -21.8221  -26.4089 O.2       2 ALA2        0.0000 
     71 O          21.3566  -23.7985  -26.9640 O.2       2 ALA2        0.0000 
     72 O          20.1955  -23.1752  -26.2476 O.2       2 ALA2        0.0000 
     73 CA         19.0343  -22.5520  -25.5311 C.3       6 GLY6        0.0000 
@<TRIPOS>BOND
@<TRIPOS>SUBSTRUCTURE
     1 SER1        2 GROUP   
     2 ALA2       36 GROUP   
     3 ASP3        7 GROUP   
     4 LYS4       58 GROUP   
     5 PHE5        4 GROUP   
     6 GLY6        1 GROUP   
     7 CUB7       45 GROUP   
@<TRIPOS>SET

