#    Name: 3e6e_DCS_1_INTS_M
#    Modification time : Tue Mar 25 00:58:52 2014

@<TRIPOS>MOLECULE
3e6e_DCS_1_INTS_M
   58     0     6     0     0
SMALL
NO_CHARGES


@<TRIPOS>ATOM
      1 N          20.6575  -23.0895  -28.2550 N.am      1 SEC2        0.0000 
      2 N          21.1810  -22.6010  -26.9520 N.am      5 SEL2        0.0000 
      3 N          20.1340  -23.5780  -29.5580 N.am      3 SEP2        0.0000 
      4 N          20.5430  -21.9460  -28.1610 N.am      1 SEC2        0.0000 
      5 N          19.9050  -21.2910  -29.3700 N.am      3 SEP2        0.0000 
      6 CA         23.9115  -22.8115  -28.2745 C.3       2 GLC5        0.0000 
      7 CA         23.1460  -21.1250  -27.7020 C.3       6 GLL5        0.0000 
      8 CA         24.6770  -24.4980  -28.8470 C.3       4 GLP5        0.0000 
      9 N          24.1095  -19.3830  -25.3080 N.am      1 SEC2        0.0000 
     10 N          23.5820  -20.7590  -24.8640 N.am      5 SEL2        0.0000 
     11 N          24.6370  -18.0070  -25.7520 N.am      3 SEP2        0.0000 
     12 CA         22.4750  -23.8565  -26.1860 C.3       2 GLC5        0.0000 
     13 CA         20.3620  -23.2050  -26.0400 C.3       6 GLL5        0.0000 
     14 CA         24.5880  -24.5080  -26.3320 C.3       4 GLP5        0.0000 
     15 CA         18.2430  -22.4960  -25.9695 C.3       2 GLC5        0.0000 
     16 CA         16.1240  -21.7870  -25.8990 C.3       4 GLP5        0.0000 
     17 CA         19.7560  -24.4755  -27.1435 C.3       2 GLC5        0.0000 
     18 CA         19.1500  -25.7460  -28.2470 C.3       4 GLP5        0.0000 
     19 CA         18.6700  -25.3500  -22.7895 C.3       2 GLC5        0.0000 
     20 CA         19.6370  -23.7050  -23.7730 C.3       6 GLL5        0.0000 
     21 CA         17.7030  -26.9950  -21.8060 C.3       4 GLP5        0.0000 
     22 N          15.5460  -23.7500  -23.6220 N.am      1 SEC2        0.0000 
     23 N          16.7150  -23.7790  -22.6620 N.am      5 SEL2        0.0000 
     24 N          14.3770  -23.7210  -24.5820 N.am      3 SEP2        0.0000 
     25 N          15.5840  -24.5075  -22.3130 N.am      1 SEC2        0.0000 
     26 N          14.4530  -25.2360  -21.9640 N.am      3 SEP2        0.0000 
     27 N          16.7960  -25.3845  -22.8290 N.am      1 SEC2        0.0000 
     28 N          16.8770  -26.9900  -22.9960 N.am      3 SEP2        0.0000 
     29 N          19.5305  -24.1590  -20.5120 N.am      1 SEC2        0.0000 
     30 N          18.3490  -23.7230  -20.8840 N.am      5 SEL2        0.0000 
     31 N          20.7120  -24.5950  -20.1400 N.am      3 SEP2        0.0000 
     32 N          17.5920  -24.9060  -20.3100 N.am      1 SEC2        0.0000 
     33 N          16.8350  -26.0890  -19.7360 N.am      3 SEP2        0.0000 
     34 CA         23.6110  -20.3980  -19.5740 C.3       2 GLC5        0.0000 
     35 CA         22.1210  -19.9820  -21.1810 C.3       6 GLL5        0.0000 
     36 CA         25.1010  -20.8140  -17.9670 C.3       4 GLP5        0.0000 
     37 N          24.5200  -18.1455  -22.5305 N.am      1 SEC2        0.0000 
     38 N          24.4410  -19.1300  -21.4470 N.am      5 SEL2        0.0000 
     39 N          24.5990  -17.1610  -23.6140 N.am      3 SEP2        0.0000 
     40 N          24.9405  -18.7740  -19.8405 N.am      1 SEC2        0.0000 
     41 N          25.4400  -18.4180  -18.2340 N.am      3 SEP2        0.0000 
     42 CA         19.9310  -20.7465  -19.1685 C.3       2 GLC5        0.0000 
     43 CA         21.2620  -19.9900  -20.1180 C.3       6 GLL5        0.0000 
     44 CA         18.6000  -21.5030  -18.2190 C.3       4 GLP5        0.0000 
     45 CA         22.0080  -21.4880  -18.6495 C.3       2 GLC5        0.0000 
     46 CA         22.7540  -22.9860  -17.1810 C.3       4 GLP5        0.0000 
     47 CA         21.6255  -19.8027  -27.3080 C.3       2 GLC5        0.0000 
     48 CA         22.2920  -21.7580  -26.6200 C.3       6 GLL5        0.0000 
     49 CA         20.5320  -18.1640  -27.4550 C.3       4 GLP5        0.0000 
     50 CA         23.3850  -22.9050  -22.7015 C.3       2 GLC5        0.0000 
     51 CA         21.6950  -22.1710  -24.2730 C.3       6 GLL5        0.0000 
     52 CA         24.9420  -23.7570  -21.8670 C.3       4 GLP5        0.0000 
     53 CA         23.3233  -23.2088  -25.7196 C.3       2 GLC5        0.0000 
     54 CA         20.2137  -25.3460  -23.9778 C.3       2 GLC5        0.0000 
     55 CA         20.5840  -23.0130  -24.7220 C.3       6 GLL5        0.0000 
     56 CA         20.3170  -27.3330  -23.7080 C.3       4 GLP5        0.0000 
     57 CA         21.1943  -18.2600  -21.4617 C.3       2 GLC5        0.0000 
     58 CA         20.6970  -16.5340  -22.2740 C.3       4 GLP5        0.0000 
@<TRIPOS>BOND
@<TRIPOS>SUBSTRUCTURE
     1 SEC2        1 GROUP        1 X    SEC  0     ROOT SEC X 2
     2 GLC5        6 GROUP        1 X    GLC  0     **** GLC X 6
     3 SEP2        3 GROUP        1 Y    SEP  0     ROOT SEP Y 9
     4 GLP5        8 GROUP        1 Y    GLP  0     **** GLP Y 13
     5 SEL2        2 GROUP        1 Z    SEL  0     ROOT SEL Z 16
     6 GLL5        7 GROUP        1 Z    GLL  0     **** GLL Z 20
@<TRIPOS>SET

