#    Name: 3e6e_DCS_1_ligand
#    Modification time : Tue Mar 25 00:58:52 2014

@<TRIPOS>MOLECULE
3e6e_DCS_1_ligand
   35    36     1     0     0
SMALL
NO_CHARGES


@<TRIPOS>ATOM
      1 N1         21.1810  -22.6010  -26.9520 N.ar      1 DCS372      0.0000 
      2 C2         22.2920  -21.7580  -26.6200 C.ar      1 DCS372      0.0000 
      3 C2A        23.1460  -21.1250  -27.7020 C.3       1 DCS372      0.0000 
      4 C3         22.5520  -21.5380  -25.2630 C.ar      1 DCS372      0.0000 
      5 O3         23.5820  -20.7590  -24.8640 O.3       1 DCS372      0.0000 
      6 C4         21.6950  -22.1710  -24.2730 C.ar      1 DCS372      0.0000 
      7 C4A        21.9610  -21.9350  -22.7990 C.3       1 DCS372      0.0000 
      8 C5         20.5840  -23.0130  -24.7220 C.ar      1 DCS372      0.0000 
      9 C6         20.3620  -23.2050  -26.0400 C.ar      1 DCS372      0.0000 
     10 C5A        19.6370  -23.7050  -23.7730 C.3       1 DCS372      0.0000 
     11 O4P        18.8670  -22.7110  -23.0920 O.3       1 DCS372      0.0000 
     12 P          17.7450  -23.0020  -22.0000 P.3       1 DCS372      0.0000 
     13 O1P        16.7150  -23.7790  -22.6620 O.co2     1 DCS372      0.0000 
     14 O2P        18.3490  -23.7230  -20.8840 O.co2     1 DCS372      0.0000 
     15 O3P        17.2130  -21.7150  -21.5650 O.co2     1 DCS372      0.0000 
     16 N          21.9060  -20.4510  -22.4850 N.4       1 DCS372      0.0000 
     17 CA         22.1210  -19.9820  -21.1810 C.3       1 DCS372      0.0000 
     18 C          23.3110  -19.3490  -20.7140 C.2       1 DCS372      0.0000 
     19 O          24.4410  -19.1300  -21.4470 O.2       1 DCS372      0.0000 
     20 ND         23.1380  -19.0090  -19.4600 N.am      1 DCS372      0.0000 
     21 OG         21.8730  -19.3980  -19.0700 O.3       1 DCS372      0.0000 
     22 CB         21.2620  -19.9900  -20.1180 C.3       1 DCS372      0.0000 
     23 H          22.9457  -22.3222  -22.5420 H         1 DCS372      0.0000 
     24 H          21.2109  -22.4574  -22.2073 H         1 DCS372      0.0000 
     25 H          19.5816  -23.8021  -26.3636 H         1 DCS372      0.0000 
     26 H          20.2264  -24.3047  -23.0746 H         1 DCS372      0.0000 
     27 H          19.0006  -24.3791  -24.3521 H         1 DCS372      0.0000 
     28 H          22.6612  -21.2414  -20.7437 H         1 DCS372      0.0000 
     29 H          23.7652  -18.5607  -18.8734 H         1 DCS372      0.0000 
     30 H          20.9552  -21.0359  -19.8696 H         1 DCS372      0.0000 
     31 H          20.3095  -19.4666  -20.3797 H         1 DCS372      0.0000 
     32 H          23.8781  -20.5636  -27.3163 H         1 DCS372      0.0000 
     33 H          23.5798  -21.8136  -28.2831 H         1 DCS372      0.0000 
     34 H          22.6074  -20.5329  -28.3014 H         1 DCS372      0.0000 
     35 H          23.6798  -20.9406  -23.8855 H         1 DCS372      0.0000 
@<TRIPOS>BOND
     1    2    1 ar   
     2    9    1 ar   
     3    3    2 1    
     4    4    2 ar   
     5   32    3 1    
     6   33    3 1    
     7   34    3 1    
     8    5    4 1    
     9    6    4 ar   
    10   35    5 1    
    11    7    6 1    
    12    8    6 ar   
    13   16    7 1    
    14   23    7 1    
    15   24    7 1    
    16    9    8 ar   
    17   10    8 1    
    18   25    9 1    
    19   11   10 1    
    20   26   10 1    
    21   27   10 1    
    22   12   11 1    
    23   13   12 ar   
    24   14   12 ar   
    25   15   12 ar   
    26   17   16 1    
    27   18   17 1    
    28   22   17 1    
    29   28   17 1    
    30   19   18 2    
    31   20   18 am   
    32   21   20 1    
    33   29   20 1    
    34   22   21 1    
    35   30   22 1    
    36   31   22 1    
@<TRIPOS>SUBSTRUCTURE
     1 DCS372      1 GROUP   
@<TRIPOS>SET

