#    Name: 1cyd_NAP_1_INTS_M
#    Modification time : Mon Mar 24 21:08:49 2014

@<TRIPOS>MOLECULE
1cyd_NAP_1_INTS_M
  115     0    12     0     0
SMALL
NO_CHARGES


@<TRIPOS>ATOM
      1 CA         27.0570   27.5595    4.5975 C.3       4 GLC5        0.0000 
      2 CA         28.3130   26.8270    5.9000 C.3      12 GLL5        0.0000 
      3 CA         25.8010   28.2920    3.2950 C.3       8 GLP5        0.0000 
      4 CA         28.4920   26.7360    8.9765 C.3       4 GLC5        0.0000 
      5 CA         29.6180   26.3200    7.7410 C.3      12 GLL5        0.0000 
      6 CA         27.3660   27.1520   10.2120 C.3       8 GLP5        0.0000 
      7 CA         29.5260   25.3395    9.7050 C.3       4 GLC5        0.0000 
      8 CA         29.4340   24.3590   11.6690 C.3       8 GLP5        0.0000 
      9 CA         33.6995   25.7755   12.1485 C.3       4 GLC5        0.0000 
     10 CA         33.8320   25.8480   10.0630 C.3      12 GLL5        0.0000 
     11 CA         33.5670   25.7030   14.2340 C.3       8 GLP5        0.0000 
     12 O          36.3605   25.7090   10.5955 O.2       1 ALC1        0.0000 
     13 O          34.9900   25.1810    9.9860 O.2       9 ALL1        0.0000 
     14 O          37.7310   26.2370   11.2050 O.2       5 ALP1        0.0000 
     15 N          34.5060   26.9945   12.0890 N.am      2 SEC2        0.0000 
     16 N          33.6530   26.9030   10.8870 N.am     10 SEL2        0.0000 
     17 N          35.3590   27.0860   13.2910 N.am      6 SEP2        0.0000 
     18 CA         31.2375   29.2955   10.6870 C.3       4 GLC5        0.0000 
     19 CA         32.5280   27.6310   10.8860 C.3      12 GLL5        0.0000 
     20 CA         29.9470   30.9600   10.4880 C.3       8 GLP5        0.0000 
     21 CA         33.1345   28.5305    9.4470 C.3       4 GLC5        0.0000 
     22 CA         33.7410   29.4300    8.0080 C.3       8 GLP5        0.0000 
     23 CA         34.5850   28.1875   11.4885 C.3       4 GLC5        0.0000 
     24 CA         36.6420   28.7440   12.0910 C.3       8 GLP5        0.0000 
     25 CA         31.8525   27.0690   12.4010 C.3       4 GLC5        0.0000 
     26 CA         31.1770   26.5070   13.9160 C.3       8 GLP5        0.0000 
     27 CA         29.4910   26.7330    9.7125 C.3       4 GLC5        0.0000 
     28 CA         31.6160   26.3140    9.2130 C.3      12 GLL5        0.0000 
     29 CA         32.6785   27.8720    8.6105 C.3       4 GLC5        0.0000 
     30 N          23.5545   21.3245    2.5530 N.am      2 SEC2        0.0000 
     31 N          23.8890   21.1740    3.7450 N.am     10 SEL2        0.0000 
     32 N          23.2200   21.4750    1.3610 N.am      6 SEP2        0.0000 
     33 N          22.3370   24.1025    5.3200 N.am      2 SEC2        0.0000 
     34 N          23.5500   23.2750    5.1470 N.am     10 SEL2        0.0000 
     35 N          21.1240   24.9300    5.4930 N.am      6 SEP2        0.0000 
     36 N          23.8860   24.1555    6.1710 N.am      2 SEC2        0.0000 
     37 N          24.2220   25.0360    7.1950 N.am      6 SEP2        0.0000 
     38 CA         26.8215   19.8285    6.6635 C.3       4 GLC5        0.0000 
     39 CA         25.6820   19.7420    8.5400 C.3      12 GLL5        0.0000 
     40 CA         27.9610   19.9150    4.7870 C.3       8 GLP5        0.0000 
     41 N          26.3555   17.8475   10.2905 N.am      2 SEC2        0.0000 
     42 N          25.8770   19.2600    9.8740 N.am     10 SEL2        0.0000 
     43 N          26.8340   16.4350   10.7070 N.am      6 SEP2        0.0000 
     44 O          26.0035   20.6060   10.1880 O.2       1 ALC1        0.0000 
     45 O          25.8770   19.2600    9.8740 O.2       9 ALL1        0.0000 
     46 O          26.1300   21.9520   10.5020 O.2       5 ALP1        0.0000 
     47 CA         26.5060   16.6185    7.0720 C.3       4 GLC5        0.0000 
     48 CA         25.5050   18.5280    7.6240 C.3      12 GLL5        0.0000 
     49 CA         27.5070   14.7090    6.5200 C.3       8 GLP5        0.0000 
     50 CA         26.2190   16.8060    8.8310 C.3       4 GLC5        0.0000 
     51 CA         26.9330   15.0840   10.0380 C.3       8 GLP5        0.0000 
     52 CA         26.1975   18.5275    5.9355 C.3       4 GLC5        0.0000 
     53 CA         26.8900   18.5270    4.2470 C.3       8 GLP5        0.0000 
     54 N          26.2780   16.4000    7.3965 N.am      2 SEC2        0.0000 
     55 N          26.2690   17.4660    8.1810 N.am     10 SEL2        0.0000 
     56 N          26.2870   15.3340    6.6120 N.am      6 SEP2        0.0000 
     57 N          26.5515   16.9505    9.4440 N.am      2 SEC2        0.0000 
     58 CA         22.9630   18.6870    9.3110 C.3       4 GLC5        0.0000 
     59 CA         24.0250   18.2560    7.8140 C.3      12 GLL5        0.0000 
     60 CA         21.9010   19.1180   10.8080 C.3       8 GLP5        0.0000 
     61 CA         21.9190   19.3655    5.9155 C.3       4 GLC5        0.0000 
     62 CA         23.3740   17.9760    5.3510 C.3      12 GLL5        0.0000 
     63 CA         20.4640   20.7550    6.4800 C.3       8 GLP5        0.0000 
     64 CA         20.6575   17.6380    3.8875 C.3       4 GLC5        0.0000 
     65 CA         22.8030   17.1710    4.3470 C.3      12 GLL5        0.0000 
     66 CA         18.5120   18.1050    3.4280 C.3       8 GLP5        0.0000 
     67 N          21.2295   16.7915    1.5220 N.am      2 SEC2        0.0000 
     68 N          22.6290   16.6790    1.9600 N.am     10 SEL2        0.0000 
     69 N          19.8300   16.9040    1.0840 N.am      6 SEP2        0.0000 
     70 O          21.9995   18.8790    1.2855 O.2       1 ALC1        0.0000 
     71 O          22.8680   18.7950    2.4880 O.2       9 ALL1        0.0000 
     72 O          21.1310   18.9630    0.0830 O.2       5 ALP1        0.0000 
     73 CA         20.4305   15.7785    5.7670 C.3       4 GLC5        0.0000 
     74 CA         22.3040   15.9210    4.7230 C.3      12 GLL5        0.0000 
     75 CA         18.5570   15.6360    6.8110 C.3       8 GLP5        0.0000 
     76 CA         21.2865   15.2130    2.8460 C.3       4 GLC5        0.0000 
     77 CA         20.2690   14.5050    0.9690 C.3       8 GLP5        0.0000 
     78 NZ         30.9250   29.7230    3.5555 N.4       3 LYC4        0.0000 
     79 NZ         32.0460   29.4740    5.0100 N.4      11 LYL4        0.0000 
     80 NZ         29.8040   29.9720    2.1010 N.4       7 LYP4        0.0000 
     81 N          32.6195   30.5105    4.5540 N.am      2 SEC2        0.0000 
     82 N          32.0460   29.4740    5.0100 N.am     10 SEL2        0.0000 
     83 N          33.1930   31.5470    4.0980 N.am      6 SEP2        0.0000 
     84 NZ         30.2715   28.9355    2.8375 N.4       3 LYC4        0.0000 
     85 NZ         30.7390   27.8990    3.5740 N.4      11 LYL4        0.0000 
     86 N          30.2715   28.9355    2.8375 N.am      2 SEC2        0.0000 
     87 N          30.7390   27.8990    3.5740 N.am     10 SEL2        0.0000 
     88 N          29.8040   29.9720    2.1010 N.am      6 SEP2        0.0000 
     89 NZ         34.0365   27.5960    4.4035 N.4       3 LYC4        0.0000 
     90 NZ         32.6260   27.0720    5.0430 N.4      11 LYL4        0.0000 
     91 NZ         35.9000   28.2360    5.0100 N.4       7 LYP4        0.0000 
     92 N          34.0365   27.5960    4.4035 N.am      2 SEC2        0.0000 
     93 N          32.6260   27.0720    5.0430 N.am     10 SEL2        0.0000 
     94 N          35.4470   28.1200    3.7640 N.am      6 SEP2        0.0000 
     95 N          33.9015   27.4230    5.5370 N.am      2 SEC2        0.0000 
     96 N          35.1770   27.7740    6.0310 N.am      6 SEP2        0.0000 
     97 CA         27.6568   26.7255    8.2630 C.3       4 GLC5        0.0000 
     98 CA         34.4338   26.7818    8.5377 C.3       4 GLC5        0.0000 
     99 CA         32.7630   25.5630    9.2200 C.3      12 GLL5        0.0000 
    100 CA         35.5700   27.8580    7.4340 C.3       8 GLP5        0.0000 
    101 CA         30.8117   25.1487   10.4428 C.3       4 GLC5        0.0000 
    102 CA         33.4877   23.7552   10.1713 C.3       4 GLC5        0.0000 
    103 CA         33.6780   21.8050   10.7010 C.3       8 GLP5        0.0000 
    104 CA         22.4260   20.9075    7.1883 C.3       4 GLC5        0.0000 
    105 CA         24.4040   21.6280    7.3950 C.3      12 GLL5        0.0000 
    106 CA         23.4640   19.6175    9.6385 C.3       4 GLC5        0.0000 
    107 CA         24.3720   20.4920    8.3980 C.3      12 GLL5        0.0000 
    108 CA         27.3407   19.2675    8.6415 C.3       4 GLC5        0.0000 
    109 CA         29.0880   19.4000    9.2010 C.3       8 GLP5        0.0000 
    110 CA         24.9892   18.0502    4.5480 C.3       4 GLC5        0.0000 
    111 CA         23.2492   14.2935    7.4177 C.3       4 GLC5        0.0000 
    112 CA         22.9360   16.2250    7.0330 C.3      12 GLL5        0.0000 
    113 CA         23.8500   12.7530    8.3010 C.3       8 GLP5        0.0000 
    114 CA         21.1698   15.5490    7.6918 C.3       4 GLC5        0.0000 
    115 CA         19.6910   15.2640    8.8490 C.3       8 GLP5        0.0000 
@<TRIPOS>BOND
@<TRIPOS>SUBSTRUCTURE
     1 ALC1       12 GROUP        1 X    ALC  0     ROOT ALC X 1
     2 SEC2       15 GROUP        1 X    SEC  0     **** SEC X 2
     3 LYC4       78 GROUP        1 X    LYC  0     **** LYC X 4
     4 GLC5        1 GROUP        1 X    GLC  0     **** GLC X 6
     5 ALP1       14 GROUP        1 Y    ALP  0     ROOT ALP Y 8
     6 SEP2       17 GROUP        1 Y    SEP  0     **** SEP Y 9
     7 LYP4       80 GROUP        1 Y    LYP  0     **** LYP Y 11
     8 GLP5        3 GROUP        1 Y    GLP  0     **** GLP Y 13
     9 ALL1       13 GROUP        1 Z    ALL  0     ROOT ALL Z 15
    10 SEL2       16 GROUP        1 Z    SEL  0     **** SEL Z 16
    11 LYL4       79 GROUP        1 Z    LYL  0     **** LYL Z 18
    12 GLL5        2 GROUP        1 Z    GLL  0     **** GLL Z 20
@<TRIPOS>SET

