#    Name: 1cyd_NAP_1_ligand
#    Modification time : Mon Mar 24 21:08:49 2014

@<TRIPOS>MOLECULE
1cyd_NAP_1_ligand
   73    77     1     0     0
SMALL
NO_CHARGES


@<TRIPOS>ATOM
      1 PA         26.3860   23.7890    3.6260 P.3       1 NAP245      0.0000 
      2 O1A        27.7460   23.4110    3.1980 O.co2     1 NAP245      0.0000 
      3 O2A        25.4460   24.2660    2.6030 O.co2     1 NAP245      0.0000 
      4 O5B        26.4680   24.7550    4.8740 O.3       1 NAP245      0.0000 
      5 C5B        27.3540   24.4660    5.9730 C.3       1 NAP245      0.0000 
      6 C4B        27.5820   25.7710    6.7280 C.3       1 NAP245      0.0000 
      7 O4B        28.4150   25.5660    7.8950 O.3       1 NAP245      0.0000 
      8 C3B        28.3130   26.8270    5.9000 C.3       1 NAP245      0.0000 
      9 O3B        28.0290   28.1680    6.3440 O.3       1 NAP245      0.0000 
     10 C2B        29.7620   26.5720    6.2650 C.3       1 NAP245      0.0000 
     11 O2B        30.4970   27.7950    6.0480 O.3       1 NAP245      0.0000 
     12 C1B        29.6180   26.3200    7.7410 C.3       1 NAP245      0.0000 
     13 N9A        30.8760   25.7590    8.2650 N.pl3     1 NAP245      0.0000 
     14 C8A        31.5530   24.7120    7.7510 C.2       1 NAP245      0.0000 
     15 N7A        32.7370   24.5730    8.3350 N.2       1 NAP245      0.0000 
     16 C5A        32.7630   25.5630    9.2200 C.ar      1 NAP245      0.0000 
     17 C6A        33.8320   25.8480   10.0630 C.ar      1 NAP245      0.0000 
     18 N6A        34.9900   25.1810    9.9860 N.pl3     1 NAP245      0.0000 
     19 N1A        33.6530   26.9030   10.8870 N.ar      1 NAP245      0.0000 
     20 C2A        32.5280   27.6310   10.8860 C.ar      1 NAP245      0.0000 
     21 N3A        31.5210   27.3490   10.0610 N.ar      1 NAP245      0.0000 
     22 C4A        31.6160   26.3140    9.2130 C.ar      1 NAP245      0.0000 
     23 O3         25.7960   22.5070    4.3320 O.3       1 NAP245      0.0000 
     24 PN         24.3430   22.0810    4.8060 P.3       1 NAP245      0.0000 
     25 O1N        23.8890   21.1740    3.7450 O.co2     1 NAP245      0.0000 
     26 O2N        23.5500   23.2750    5.1470 O.co2     1 NAP245      0.0000 
     27 O5D        24.6190   21.1470    6.0780 O.3       1 NAP245      0.0000 
     28 C5D        24.4040   21.6280    7.3950 C.3       1 NAP245      0.0000 
     29 C4D        24.3720   20.4920    8.3980 C.3       1 NAP245      0.0000 
     30 O4D        23.4300   19.5550    7.8500 O.3       1 NAP245      0.0000 
     31 C3D        25.6820   19.7420    8.5400 C.3       1 NAP245      0.0000 
     32 O3D        25.8770   19.2600    9.8740 O.3       1 NAP245      0.0000 
     33 C2D        25.5050   18.5280    7.6240 C.3       1 NAP245      0.0000 
     34 O2D        26.2690   17.4660    8.1810 O.3       1 NAP245      0.0000 
     35 C1D        24.0250   18.2560    7.8140 C.3       1 NAP245      0.0000 
     36 N1N        23.4390   17.4890    6.6940 N.pl3     1 NAP245      0.0000 
     37 C2N        23.3740   17.9760    5.3510 C.ar      1 NAP245      0.0000 
     38 C3N        22.8030   17.1710    4.3470 C.ar      1 NAP245      0.0000 
     39 C7N        22.7470   17.5280    2.8440 C.2       1 NAP245      0.0000 
     40 O7N        22.6290   16.6790    1.9600 O.2       1 NAP245      0.0000 
     41 N7N        22.8680   18.7950    2.4880 N.am      1 NAP245      0.0000 
     42 C4N        22.3040   15.9210    4.7230 C.ar      1 NAP245      0.0000 
     43 C5N        22.3610   15.4430    6.0360 C.ar      1 NAP245      0.0000 
     44 C6N        22.9360   16.2250    7.0330 C.ar      1 NAP245      0.0000 
     45 P2B        31.4850   27.9930    4.8190 P.3       1 NAP245      0.0000 
     46 O1X        32.0460   29.4740    5.0100 O.co2     1 NAP245      0.0000 
     47 O2X        30.7390   27.8990    3.5740 O.co2     1 NAP245      0.0000 
     48 O3X        32.6260   27.0720    5.0430 O.co2     1 NAP245      0.0000 
     49 H          28.3154   24.1008    5.6273 H         1 NAP245      0.0000 
     50 H          26.9193   23.7473    6.6598 H         1 NAP245      0.0000 
     51 H          26.6317   26.1866    7.0272 H         1 NAP245      0.0000 
     52 H          28.1794   26.6606    4.8939 H         1 NAP245      0.0000 
     53 H          30.1093   25.7484    5.7819 H         1 NAP245      0.0000 
     54 H          29.4705   27.3344    8.1852 H         1 NAP245      0.0000 
     55 H          31.2030   24.1308    7.0330 H         1 NAP245      0.0000 
     56 H          35.6885   25.4332   10.6557 H         1 NAP245      0.0000 
     57 H          35.0529   24.4902    9.2657 H         1 NAP245      0.0000 
     58 H          32.4415   28.4438   11.5539 H         1 NAP245      0.0000 
     59 H          23.4481   22.1764    7.4773 H         1 NAP245      0.0000 
     60 H          25.1985   22.3299    7.7070 H         1 NAP245      0.0000 
     61 H          24.0400   20.8436    9.3365 H         1 NAP245      0.0000 
     62 H          26.4693   20.3231    8.1722 H         1 NAP245      0.0000 
     63 H          25.7088   18.7878    6.6637 H         1 NAP245      0.0000 
     64 H          23.8857   17.7544    8.7415 H         1 NAP245      0.0000 
     65 H          23.7401   18.8981    5.1329 H         1 NAP245      0.0000 
     66 H          22.8115   18.9839    1.5076 H         1 NAP245      0.0000 
     67 H          23.0050   19.4498    3.2313 H         1 NAP245      0.0000 
     68 H          21.8680   15.3150    3.9893 H         1 NAP245      0.0000 
     69 H          21.9791   14.5179    6.2603 H         1 NAP245      0.0000 
     70 H          22.9927   15.8898    7.9923 H         1 NAP245      0.0000 
     71 H          28.8391   28.6995    6.0965 H         1 NAP245      0.0000 
     72 H          26.0473   20.0786   10.4225 H         1 NAP245      0.0000 
     73 H          27.1992   17.8261    8.2519 H         1 NAP245      0.0000 
@<TRIPOS>BOND
     1    2    1 ar   
     2    3    1 ar   
     3    4    1 1    
     4   23    1 1    
     5    5    4 1    
     6    6    5 1    
     7   49    5 1    
     8   50    5 1    
     9    7    6 1    
    10    8    6 1    
    11   51    6 1    
    12   12    7 1    
    13    9    8 1    
    14   10    8 1    
    15   52    8 1    
    16   71    9 1    
    17   11   10 1    
    18   12   10 1    
    19   53   10 1    
    20   45   11 1    
    21   13   12 1    
    22   54   12 1    
    23   14   13 1    
    24   22   13 1    
    25   15   14 2    
    26   55   14 1    
    27   16   15 1    
    28   17   16 ar   
    29   22   16 ar   
    30   18   17 1    
    31   19   17 ar   
    32   56   18 1    
    33   57   18 1    
    34   20   19 ar   
    35   21   20 ar   
    36   58   20 1    
    37   22   21 ar   
    38   24   23 1    
    39   25   24 ar   
    40   26   24 ar   
    41   27   24 1    
    42   28   27 1    
    43   29   28 1    
    44   59   28 1    
    45   60   28 1    
    46   30   29 1    
    47   31   29 1    
    48   61   29 1    
    49   35   30 1    
    50   32   31 1    
    51   33   31 1    
    52   62   31 1    
    53   72   32 1    
    54   34   33 1    
    55   35   33 1    
    56   63   33 1    
    57   73   34 1    
    58   36   35 1    
    59   64   35 1    
    60   37   36 ar   
    61   44   36 ar   
    62   38   37 ar   
    63   65   37 1    
    64   39   38 1    
    65   42   38 ar   
    66   40   39 2    
    67   41   39 am   
    68   66   41 1    
    69   67   41 1    
    70   43   42 ar   
    71   68   42 1    
    72   44   43 ar   
    73   69   43 1    
    74   70   44 1    
    75   46   45 ar   
    76   47   45 ar   
    77   48   45 ar   
@<TRIPOS>SUBSTRUCTURE
     1 NAP245      1 GROUP   
@<TRIPOS>SET

