#    Name: 3m8r_HXZ_1_INTS_M
#    Modification time : Mon Mar 24 22:51:48 2014

@<TRIPOS>MOLECULE
3m8r_HXZ_1_INTS_M
   66     0    12     0     0
SMALL
NO_CHARGES


@<TRIPOS>ATOM
      1 CA         17.5825  -22.4625  -11.1910 C.3       4 GLC5        0.0000 
      2 CA         19.0560  -21.2990  -11.6630 C.3      12 GLL5        0.0000 
      3 CA         16.1090  -23.6260  -10.7190 C.3       8 GLP5        0.0000 
      4 CA         22.3085  -22.1190  -12.0935 C.3       4 GLC5        0.0000 
      5 CA         20.3530  -22.0200  -11.8570 C.3      12 GLL5        0.0000 
      6 CA         24.2640  -22.2180  -12.3300 C.3       8 GLP5        0.0000 
      7 N          15.4585  -15.5715  -13.8630 N.am      1 SEC2        0.0000 
      8 N          16.3380  -14.8680  -12.7830 N.am      9 SEL2        0.0000 
      9 N          14.5790  -16.2750  -14.9430 N.am      5 SEP2        0.0000 
     10 NZ         17.0420  -11.4540  -12.9560 N.4       2 LYC4        0.0000 
     11 NZ         17.6790  -12.7280  -13.2340 N.4      10 LYL4        0.0000 
     12 NZ         15.1030  -10.0620  -12.8950 N.4       6 LYP4        0.0000 
     13 NZ         18.5420  -12.5730  -11.9685 N.4       2 LYC4        0.0000 
     14 NZ         19.4050  -12.4180  -10.7030 N.4       6 LYP4        0.0000 
     15 N          17.0420  -11.4540  -12.9560 N.am      1 SEC2        0.0000 
     16 N          17.6790  -12.7280  -13.2340 N.am      9 SEL2        0.0000 
     17 N          16.4050  -10.1800  -12.6780 N.am      5 SEP2        0.0000 
     18 N          18.5420  -12.5730  -11.9685 N.am      1 SEC2        0.0000 
     19 N          19.4050  -12.4180  -10.7030 N.am      5 SEP2        0.0000 
     20 N          15.2585  -14.9015  -14.9260 N.am      1 SEC2        0.0000 
     21 N          15.9380  -13.5280  -14.9090 N.am      9 SEL2        0.0000 
     22 N          15.1900  -12.2870  -14.1985 N.am      1 SEC2        0.0000 
     23 N          14.4420  -11.0460  -13.4880 N.am      5 SEP2        0.0000 
     24 Zn         18.5580  -15.5835  -14.6535 Zn        3 ZIC7        0.0000 
     25 Zn         18.1100  -14.7850  -14.5850 Zn       11 ZIL7        0.0000 
     26 Zn         19.0060  -16.3820  -14.7220 Zn        7 ZIP7        0.0000 
     27 N          14.9300  -15.9515  -10.9450 N.am      1 SEC2        0.0000 
     28 N          15.8370  -17.0450  -11.5860 N.am      9 SEL2        0.0000 
     29 N          14.0230  -14.8580  -10.3040 N.am      5 SEP2        0.0000 
     30 Zn         18.2305  -16.7075  -14.1185 Zn        3 ZIC7        0.0000 
     31 Zn         17.4550  -17.0330  -13.5150 Zn       11 ZIL7        0.0000 
     32 N          16.1205  -18.0585  -13.9095 N.am      1 SEC2        0.0000 
     33 N          17.4550  -17.0330  -13.5150 N.am      9 SEL2        0.0000 
     34 N          14.7860  -19.0840  -14.3040 N.am      5 SEP2        0.0000 
     35 CA         17.3485  -18.7455   -8.2935 C.3       4 GLC5        0.0000 
     36 CA         18.9800  -20.1510   -8.4150 C.3      12 GLL5        0.0000 
     37 CA         15.7170  -17.3400   -8.1720 C.3       8 GLP5        0.0000 
     38 Zn         21.1120  -16.4410  -13.4280 Zn        3 ZIC7        0.0000 
     39 Zn         20.0150  -16.2550  -13.0560 Zn       11 ZIL7        0.0000 
     40 Zn         22.2090  -16.6270  -13.8000 Zn        7 ZIP7        0.0000 
     41 Zn         19.5105  -16.3185  -13.8890 Zn        3 ZIC7        0.0000 
     42 NZ         19.9405  -13.8290  -10.7735 N.4       2 LYC4        0.0000 
     43 NZ         20.4760  -15.2400  -10.8440 N.4      10 LYL4        0.0000 
     44 N          19.9405  -13.8290  -10.7735 N.am      1 SEC2        0.0000 
     45 N          20.4760  -15.2400  -10.8440 N.am      9 SEL2        0.0000 
     46 N          15.6285  -20.5765  -11.9535 N.am      1 SEC2        0.0000 
     47 N          16.6730  -19.6060  -11.2110 N.am      9 SEL2        0.0000 
     48 N          14.5840  -21.5470  -12.6960 N.am      5 SEP2        0.0000 
     49 CA         20.2300  -19.7135  -13.5260 C.3       4 GLC5        0.0000 
     50 CA         19.7140  -18.8860  -11.6200 C.3      12 GLL5        0.0000 
     51 CA         20.7460  -20.5410  -15.4320 C.3       8 GLP5        0.0000 
     52 CA         18.5530  -14.3855   -6.8300 C.3       4 GLC5        0.0000 
     53 CA         20.3290  -15.7140   -6.6140 C.3      12 GLL5        0.0000 
     54 CA         16.7770  -13.0570   -7.0460 C.3       8 GLP5        0.0000 
     55 CA         20.2253  -21.1003  -13.5960 C.3       4 GLC5        0.0000 
     56 CA         17.7638  -17.5493   -6.8617 C.3       4 GLC5        0.0000 
     57 CA         19.6130  -18.0120   -7.4790 C.3      12 GLL5        0.0000 
     58 CA         15.8240  -17.5400   -6.8030 C.3       8 GLP5        0.0000 
     59 CA         16.2735  -21.3412  -10.0995 C.3       4 GLC5        0.0000 
     60 CA         17.6080  -20.3040   -9.0270 C.3      12 GLL5        0.0000 
     61 CA         14.8760  -22.7230  -10.5250 C.3       8 GLP5        0.0000 
     62 CA         16.3045  -19.0757   -9.3040 C.3       4 GLC5        0.0000 
     63 CA         14.9380  -18.1920   -8.9340 C.3       8 GLP5        0.0000 
     64 CA         18.2194  -21.0826  -12.8775 C.3       4 GLC5        0.0000 
     65 CA         19.1110  -20.0350  -10.8200 C.3      12 GLL5        0.0000 
     66 CA         17.0310  -21.3180  -14.4650 C.3       8 GLP5        0.0000 
@<TRIPOS>BOND
@<TRIPOS>SUBSTRUCTURE
     1 SEC2        7 GROUP        1 X    SEC  0     ROOT SEC X 2
     2 LYC4       10 GROUP        1 X    LYC  0     **** LYC X 4
     3 ZIC7       24 GROUP        1 X    ZIC  0     **** ZIC X 5
     4 GLC5        1 GROUP        1 X    GLC  0     **** GLC X 6
     5 SEP2        9 GROUP        1 Y    SEP  0     ROOT SEP Y 9
     6 LYP4       12 GROUP        1 Y    LYP  0     **** LYP Y 11
     7 ZIP7       26 GROUP        1 Y    ZIP  0     **** ZIP Y 12
     8 GLP5        3 GROUP        1 Y    GLP  0     **** GLP Y 13
     9 SEL2        8 GROUP        1 Z    SEL  0     ROOT SEL Z 16
    10 LYL4       11 GROUP        1 Z    LYL  0     **** LYL Z 18
    11 ZIL7       25 GROUP        1 Z    ZIL  0     **** ZIL Z 19
    12 GLL5        2 GROUP        1 Z    GLL  0     **** GLL Z 20
@<TRIPOS>SET

