#    Name: 3m8r_HXZ_1_ligand
#    Modification time : Mon Mar 24 22:51:48 2014

@<TRIPOS>MOLECULE
3m8r_HXZ_1_ligand
   48    49     1     0     0
SMALL
NO_CHARGES


@<TRIPOS>ATOM
      1 C1         19.0560  -21.2990  -11.6630 C.3       1 HXZ113      0.0000 
      2 N1         19.1330  -19.2460   -7.2730 N.am      1 HXZ113      0.0000 
      3 O1         18.1250  -16.0070  -11.2790 O.3       1 HXZ113      0.0000 
      4 P1         19.6520  -16.3000  -11.5410 P.3       1 HXZ113      0.0000 
      5 C2         18.7940  -19.6890   -5.9110 C.2       1 HXZ113      0.0000 
      6 O2         18.3660  -20.8140   -5.7350 O.2       1 HXZ113      0.0000 
      7 P2         16.9610  -16.2470  -12.3230 P.3       1 HXZ113      0.0000 
      8 C3         20.3530  -22.0200  -11.8570 C.3       1 HXZ113      0.0000 
      9 N3         18.9660  -18.8140   -4.8300 N.am      1 HXZ113      0.0000 
     10 O3         16.3380  -14.8680  -12.7830 O.3       1 HXZ113      0.0000 
     11 P3         17.0280  -13.9870  -13.8900 P.3       1 HXZ113      0.0000 
     12 C4         19.4590  -17.5400   -5.0320 C.2       1 HXZ113      0.0000 
     13 O4         19.6130  -16.7930   -4.0770 O.2       1 HXZ113      0.0000 
     14 C5         19.7940  -17.1050   -6.3620 C.2       1 HXZ113      0.0000 
     15 O5         17.6790  -12.7280  -13.2340 O.co2     1 HXZ113      0.0000 
     16 C6         19.6130  -18.0120   -7.4790 C.2       1 HXZ113      0.0000 
     17 O6         15.9380  -13.5280  -14.9090 O.co2     1 HXZ113      0.0000 
     18 O7         18.1100  -14.7850  -14.5850 O.co2     1 HXZ113      0.0000 
     19 O8         15.8370  -17.0450  -11.5860 O.co2     1 HXZ113      0.0000 
     20 O9         17.4550  -17.0330  -13.5150 O.co2     1 HXZ113      0.0000 
     21 C1'        18.9800  -20.1510   -8.4150 C.3       1 HXZ113      0.0000 
     22 O10        20.0150  -16.2550  -13.0560 O.co2     1 HXZ113      0.0000 
     23 O11        20.4760  -15.2400  -10.8440 O.co2     1 HXZ113      0.0000 
     24 C2'        17.6080  -20.3040   -9.0270 C.3       1 HXZ113      0.0000 
     25 C3'        17.7340  -19.6150  -10.3210 C.3       1 HXZ113      0.0000 
     26 O3'        16.6730  -19.6060  -11.2110 O.3       1 HXZ113      0.0000 
     27 C4'        19.1110  -20.0350  -10.8200 C.3       1 HXZ113      0.0000 
     28 O4'        19.9240  -20.3080   -9.5770 O.3       1 HXZ113      0.0000 
     29 C5'        19.7140  -18.8860  -11.6200 C.3       1 HXZ113      0.0000 
     30 O5'        20.0310  -17.7150  -10.9350 O.3       1 HXZ113      0.0000 
     31 C5M        20.3290  -15.7140   -6.6140 C.3       1 HXZ113      0.0000 
     32 H          18.3137  -21.9949  -11.2034 H         1 HXZ113      0.0000 
     33 H          18.6283  -21.0368  -12.6604 H         1 HXZ113      0.0000 
     34 H          18.7200  -19.1323   -3.8803 H         1 HXZ113      0.0000 
     35 H          19.8679  -17.6611   -8.4121 H         1 HXZ113      0.0000 
     36 H          19.0723  -21.2808   -7.9162 H         1 HXZ113      0.0000 
     37 H          16.8865  -19.8221   -8.4056 H         1 HXZ113      0.0000 
     38 H          17.3944  -21.3405   -9.1646 H         1 HXZ113      0.0000 
     39 H          17.9509  -18.4982   -9.9893 H         1 HXZ113      0.0000 
     40 H          18.9962  -18.6832  -12.4761 H         1 HXZ113      0.0000 
     41 H          20.6213  -19.3116  -12.1538 H         1 HXZ113      0.0000 
     42 H          21.0348  -21.4433  -12.3070 H         1 HXZ113      0.0000 
     43 H          20.7474  -22.3156  -10.9869 H         1 HXZ113      0.0000 
     44 H          20.2424  -22.8380  -12.4216 H         1 HXZ113      0.0000 
     45 H          21.1816  -15.5486   -6.1184 H         1 HXZ113      0.0000 
     46 H          20.5188  -15.5591   -7.5835 H         1 HXZ113      0.0000 
     47 H          19.6810  -15.0090   -6.3259 H         1 HXZ113      0.0000 
     48 H          16.1208  -18.8151  -10.9472 H         1 HXZ113      0.0000 
@<TRIPOS>BOND
     1    8    1 1    
     2   27    1 1    
     3   32    1 1    
     4   33    1 1    
     5    5    2 1    
     6   16    2 1    
     7   21    2 1    
     8    4    3 1    
     9    7    3 1    
    10   22    4 ar   
    11   23    4 ar   
    12   30    4 1    
    13    6    5 2    
    14    9    5 1    
    15   10    7 1    
    16   19    7 ar   
    17   20    7 ar   
    18   42    8 1    
    19   43    8 1    
    20   44    8 1    
    21   12    9 1    
    22   34    9 1    
    23   11   10 1    
    24   15   11 ar   
    25   17   11 ar   
    26   18   11 ar   
    27   13   12 2    
    28   14   12 1    
    29   16   14 2    
    30   31   14 1    
    31   35   16 1    
    32   24   21 1    
    33   28   21 1    
    34   36   21 1    
    35   25   24 1    
    36   37   24 1    
    37   38   24 1    
    38   26   25 1    
    39   27   25 1    
    40   39   25 1    
    41   48   26 1    
    42   28   27 1    
    43   29   27 1    
    44   30   29 1    
    45   40   29 1    
    46   41   29 1    
    47   45   31 1    
    48   46   31 1    
    49   47   31 1    
@<TRIPOS>SUBSTRUCTURE
     1 HXZ113      1 GROUP   
@<TRIPOS>SET

