#    Name: 4JFM_1_CAVITY_N1_6.mol2
#    Modification time : Tue Mar 11 07:58:03 2014

@<TRIPOS>MOLECULE
4JFM_1_CAVITY_N1_6.mol2
   59     0     6     0     0
SMALL
NO_CHARGES


@<TRIPOS>ATOM
      1 DU          7.8902   14.4201   22.2417 H         6 CUB7        0.0000 
      2 OG          8.6889   13.2214   22.6604 O.2       1 SER1        0.0000 
      3 NZ          5.8229   14.8452   22.0287 N.2       3 LYS4        0.0000 
      4 CA          6.6216   13.6465   22.4473 C.3       5 GLY6        0.0000 
      5 CA          7.4203   12.4479   22.8659 C.3       5 GLY6        0.0000 
      6 CA          4.5543   14.0717   22.2342 C.3       5 GLY6        0.0000 
      7 CA          5.3530   12.8730   22.6528 C.3       5 GLY6        0.0000 
      8 DU          8.4118   15.9288   20.1919 H         6 CUB7        0.0000 
      9 OG          9.2105   14.7301   20.6106 O.2       1 SER1        0.0000 
     10 NZ          6.3444   16.3540   19.9789 N.2       3 LYS4        0.0000 
     11 NZ          7.1431   15.1553   20.3975 N.2       3 LYS4        0.0000 
     12 DU          7.9418   13.9566   20.8161 H         6 CUB7        0.0000 
     13 OG          8.7405   12.7579   21.2347 O.2       1 SER1        0.0000 
     14 NZ          5.8745   14.3818   20.6030 N.2       3 LYS4        0.0000 
     15 CZ          6.6732   13.1831   21.0216 C.ar      4 PHE5        0.0000 
     16 CA          7.4719   11.9844   21.4402 C.3       5 GLY6        0.0000 
     17 CA          4.6059   13.6082   20.8085 C.3       5 GLY6        0.0000 
     18 CZ          5.4046   12.4095   21.2271 C.ar      4 PHE5        0.0000 
     19 N          12.2693   17.7859   18.1497 N.2       2 ALA2        0.0000 
     20 CZ         11.0007   17.0124   18.3552 C.ar      4 PHE5        0.0000 
     21 OG         11.7993   15.8137   18.7738 O.2       1 SER1        0.0000 
     22 CZ          9.7320   16.2388   18.5607 C.ar      4 PHE5        0.0000 
     23 OG         10.5307   15.0402   18.9794 O.2       1 SER1        0.0000 
     24 OG          7.6647   16.6640   18.3477 O.2       1 SER1        0.0000 
     25 DU          8.4634   15.4653   18.7663 H         6 CUB7        0.0000 
     26 OG          9.2621   14.2666   19.1849 O.2       1 SER1        0.0000 
     27 OG          7.1948   14.6918   18.9718 O.2       1 SER1        0.0000 
     28 OG          7.9935   13.4931   19.3904 O.2       1 SER1        0.0000 
     29 OG          8.7922   12.2944   19.8090 O.2       1 SER1        0.0000 
     30 NZ          5.9261   13.9183   19.1773 N.2       3 LYS4        0.0000 
     31 CZ          6.7248   12.7196   19.5959 C.ar      4 PHE5        0.0000 
     32 CZ         11.0523   16.5489   16.9296 C.ar      4 PHE5        0.0000 
     33 CA         11.8510   15.3502   17.3482 C.3       5 GLY6        0.0000 
     34 OG         12.6497   14.1515   17.7668 O.2       1 SER1        0.0000 
     35 CZ          8.9850   16.9741   16.7165 C.ar      4 PHE5        0.0000 
     36 CZ          9.7836   15.7754   17.1351 C.ar      4 PHE5        0.0000 
     37 OG         10.5823   14.5767   17.5537 O.2       1 SER1        0.0000 
     38 OG          7.7163   16.2005   16.9220 O.2       1 SER1        0.0000 
     39 DU          8.5150   15.0018   17.3406 H         6 CUB7        0.0000 
     40 OG          9.3137   13.8032   17.7592 O.2       1 SER1        0.0000 
     41 OG         10.1124   12.6045   18.1778 O.2       1 SER1        0.0000 
     42 OG          7.2464   14.2283   17.5461 O.2       1 SER1        0.0000 
     43 DU          8.0451   13.0296   17.9647 H         6 CUB7        0.0000 
     44 CZ          8.8438   11.8309   18.3834 C.ar      4 PHE5        0.0000 
     45 CZ          6.7765   12.2561   18.1703 C.ar      4 PHE5        0.0000 
     46 CA          7.5751   11.0574   18.5889 C.3       5 GLY6        0.0000 
     47 CA         11.9026   14.8867   15.9225 C.3       5 GLY6        0.0000 
     48 CZ          9.0366   16.5106   15.2908 C.ar      4 PHE5        0.0000 
     49 CZ          9.8353   15.3119   15.7094 C.ar      4 PHE5        0.0000 
     50 CA         10.6340   14.1132   16.1280 C.3       5 GLY6        0.0000 
     51 CA         11.4327   12.9145   16.5466 C.3       5 GLY6        0.0000 
     52 CZ          7.7679   15.7371   15.4963 C.ar      4 PHE5        0.0000 
     53 CZ          8.5666   14.5384   15.9149 C.ar      4 PHE5        0.0000 
     54 CZ          9.3653   13.3397   16.3336 C.ar      4 PHE5        0.0000 
     55 CA         10.1640   12.1410   16.7522 C.3       5 GLY6        0.0000 
     56 CZ          7.2980   13.7649   16.1205 C.ar      4 PHE5        0.0000 
     57 CZ          8.0967   12.5662   16.5391 C.ar      4 PHE5        0.0000 
     58 CZ          8.8954   11.3675   16.9577 C.ar      4 PHE5        0.0000 
     59 O           9.4170   12.8762   14.9079 O.2       2 ALA2        0.0000 
@<TRIPOS>BOND
@<TRIPOS>SUBSTRUCTURE
     1 SER1        2 GROUP   
     2 ALA2       19 GROUP   
     3 LYS4        3 GROUP   
     4 PHE5       15 GROUP   
     5 GLY6        4 GROUP   
     6 CUB7        1 GROUP   
@<TRIPOS>SET

