#    Name: 4jfm_1KZ_1_INTS_M
#    Modification time : Tue Mar 25 05:51:02 2014

@<TRIPOS>MOLECULE
4jfm_1KZ_1_INTS_M
   43     0     6     0     0
SMALL
NO_CHARGES


@<TRIPOS>ATOM
      1 CA          7.0855   19.9380   18.3950 C.3       2 GLC5        0.0000 
      2 CA          6.1240   19.6950   20.3490 C.3       6 GLL5        0.0000 
      3 CA          8.0470   20.1810   16.4410 C.3       4 GLP5        0.0000 
      4 N          13.3375   13.6225   16.4145 N.am      1 SEC2        0.0000 
      5 N          12.2050   14.2100   17.1070 N.am      5 SEL2        0.0000 
      6 N          14.4700   13.0350   15.7220 N.am      3 SEP2        0.0000 
      7 CA         11.9690   14.9695   14.9720 C.3       2 GLC5        0.0000 
      8 CA         10.0200   14.1370   15.3780 C.3       6 GLL5        0.0000 
      9 CA         13.9180   15.8020   14.5660 C.3       4 GLP5        0.0000 
     10 CA          9.4265   14.0655   13.7315 C.3       2 GLC5        0.0000 
     11 CA          8.8330   13.9940   12.0850 C.3       4 GLP5        0.0000 
     12 CA          8.6290   12.4215   15.0355 C.3       2 GLC5        0.0000 
     13 CA          7.2380   10.7060   14.6930 C.3       4 GLP5        0.0000 
     14 CA          9.9195   17.4300   15.0390 C.3       2 GLC5        0.0000 
     15 CA          9.6530   15.6150   15.1200 C.3       6 GLL5        0.0000 
     16 CA         10.1860   19.2450   14.9580 C.3       4 GLP5        0.0000 
     17 CA         11.4415   16.3820   14.9390 C.3       2 GLC5        0.0000 
     18 CA         13.2300   17.1490   14.7580 C.3       4 GLP5        0.0000 
     19 CA          9.8790   15.0755   13.4740 C.3       2 GLC5        0.0000 
     20 CA         10.1050   14.5360   11.8280 C.3       4 GLP5        0.0000 
     21 CA          9.2760   17.6005   15.9720 C.3       2 GLC5        0.0000 
     22 CA          8.2870   15.9950   15.6630 C.3       6 GLL5        0.0000 
     23 CA         10.2650   19.2060   16.2810 C.3       4 GLP5        0.0000 
     24 CA          8.0735   16.0720   13.8070 C.3       2 GLC5        0.0000 
     25 CA          7.8600   16.1490   11.9510 C.3       4 GLP5        0.0000 
     26 CA          8.6835   17.6320   17.0795 C.3       2 GLC5        0.0000 
     27 CA          8.1920   15.6080   17.1320 C.3       6 GLL5        0.0000 
     28 CA          9.1750   19.6560   17.0270 C.3       4 GLP5        0.0000 
     29 CA          3.9125   14.9695   20.7430 C.3       2 GLC5        0.0000 
     30 CA          5.2450   15.7570   22.2800 C.3       6 GLL5        0.0000 
     31 CA          2.5800   14.1820   19.2060 C.3       4 GLP5        0.0000 
     32 CA          4.1795   14.2300   23.1145 C.3       2 GLC5        0.0000 
     33 CA          3.1140   12.7030   23.9490 C.3       4 GLP5        0.0000 
     34 CA          8.0645   11.2750   20.6470 C.3       2 GLC5        0.0000 
     35 CA          8.5610   13.4030   20.5520 C.3       6 GLL5        0.0000 
     36 CA          7.5680    9.1470   20.7420 C.3       4 GLP5        0.0000 
     37 CA         11.2650   12.4635   15.4403 C.3       2 GLC5        0.0000 
     38 CA          9.9540   13.8030   16.8230 C.3       6 GLL5        0.0000 
     39 CA         12.5430   10.9570   14.7800 C.3       4 GLP5        0.0000 
     40 CA          6.5403   16.2893   16.1863 C.3       2 GLC5        0.0000 
     41 CA          4.8410   16.7770   15.9750 C.3       4 GLP5        0.0000 
     42 CA          4.5163   14.4260   19.9902 C.3       2 GLC5        0.0000 
     43 CA          6.4850   14.4870   20.1330 C.3       6 GLL5        0.0000 
@<TRIPOS>BOND
@<TRIPOS>SUBSTRUCTURE
     1 SEC2        4 GROUP        1 X    SEC  0     ROOT SEC X 2
     2 GLC5        1 GROUP        1 X    GLC  0     **** GLC X 6
     3 SEP2        6 GROUP        1 Y    SEP  0     ROOT SEP Y 9
     4 GLP5        3 GROUP        1 Y    GLP  0     **** GLP Y 13
     5 SEL2        5 GROUP        1 Z    SEL  0     ROOT SEL Z 16
     6 GLL5        2 GROUP        1 Z    GLL  0     **** GLL Z 20
@<TRIPOS>SET

