#    Name: 4jfm_1KZ_1_ligand
#    Modification time : Tue Mar 25 05:51:02 2014

@<TRIPOS>MOLECULE
4jfm_1KZ_1_ligand
   61    64     1     0     0
SMALL
NO_CHARGES


@<TRIPOS>ATOM
      1 CAB         6.1240   19.6950   20.3490 C.3       1 1KZ201      0.0000 
      2 OAU         6.3010   19.0420   21.6000 O.3       1 1KZ201      0.0000 
      3 CBC         7.6210   18.7160   21.8160 C.ar      1 1KZ201      0.0000 
      4 CAK         8.4070   18.2160   20.7660 C.ar      1 1KZ201      0.0000 
      5 CBB         8.1570   18.8600   23.1220 C.ar      1 1KZ201      0.0000 
      6 OAT         7.3640   19.3190   24.1360 O.3       1 1KZ201      0.0000 
      7 CAA         7.3600   20.7680   24.2750 C.3       1 1KZ201      0.0000 
      8 CAH         9.4870   18.5150   23.3460 C.ar      1 1KZ201      0.0000 
      9 CAG        10.2740   18.0280   22.2950 C.ar      1 1KZ201      0.0000 
     10 CAZ         9.7290   17.8870   21.0040 C.ar      1 1KZ201      0.0000 
     11 OAW        10.4390   17.4240   19.9540 O.3       1 1KZ201      0.0000 
     12 CAP        11.2320   16.3970   20.4180 C.3       1 1KZ201      0.0000 
     13 CAO        11.7950   15.8680   19.1660 C.3       1 1KZ201      0.0000 
     14 OAV        10.7830   15.0820   18.5630 O.3       1 1KZ201      0.0000 
     15 C          11.0880   14.3770   17.5240 C.2       1 1KZ201      0.0000 
     16 O          12.2050   14.2100   17.1070 O.2       1 1KZ201      0.0000 
     17 CA          9.9540   13.8030   16.8230 C.3       1 1KZ201      0.0000 
     18 CB         10.0200   14.1370   15.3780 C.3       1 1KZ201      0.0000 
     19 CAM         9.6530   15.6150   15.1200 C.3       1 1KZ201      0.0000 
     20 CAN         8.2870   15.9950   15.6630 C.3       1 1KZ201      0.0000 
     21 CAR         8.1920   15.6080   17.1320 C.3       1 1KZ201      0.0000 
     22 N           8.5850   14.1810   17.2470 N.pl3     1 1KZ201      0.0000 
     23 S1          7.6320   13.1760   18.0740 S.o2      1 1KZ201      0.0000 
     24 OAE         8.2250   11.9030   17.9950 O.2       1 1KZ201      0.0000 
     25 OAF         6.3030   13.3030   17.5370 O.2       1 1KZ201      0.0000 
     26 CBA         7.5340   13.7220   19.7090 C.ar      1 1KZ201      0.0000 
     27 CAL         6.4850   14.4870   20.1330 C.ar      1 1KZ201      0.0000 
     28 CBF         6.4200   14.8530   21.4160 C.ar      1 1KZ201      0.0000 
     29 SAX         5.2450   15.7570   22.2800 S.3       1 1KZ201      0.0000 
     30 CBD         6.0680   15.6820   23.7080 C.2       1 1KZ201      0.0000 
     31 OAD         5.7130   16.1590   24.7820 O.2       1 1KZ201      0.0000 
     32 NAS         7.2170   14.9820   23.5360 N.am      1 1KZ201      0.0000 
     33 CBE         7.4330   14.5180   22.2900 C.ar      1 1KZ201      0.0000 
     34 CAJ         8.5190   13.8200   21.9020 C.ar      1 1KZ201      0.0000 
     35 CAI         8.5610   13.4030   20.5520 C.ar      1 1KZ201      0.0000 
     36 H           7.9966   18.0994   19.8358 H         1 1KZ201      0.0000 
     37 H           9.8955   18.6166   24.2833 H         1 1KZ201      0.0000 
     38 H          11.2533   17.7716   22.4628 H         1 1KZ201      0.0000 
     39 H          10.6691   15.6196   20.9066 H         1 1KZ201      0.0000 
     40 H          12.0356   16.7388   21.0483 H         1 1KZ201      0.0000 
     41 H          12.6813   15.2731   19.3932 H         1 1KZ201      0.0000 
     42 H          12.0905   16.7001   18.5246 H         1 1KZ201      0.0000 
     43 H          10.0158   12.6871   16.8656 H         1 1KZ201      0.0000 
     44 H           9.3267   13.5100   14.8077 H         1 1KZ201      0.0000 
     45 H          11.0296   13.9647   14.9906 H         1 1KZ201      0.0000 
     46 H           9.6805   15.7963   14.0373 H         1 1KZ201      0.0000 
     47 H          10.4208   16.2498   15.5821 H         1 1KZ201      0.0000 
     48 H           7.5164   15.4738   15.1030 H         1 1KZ201      0.0000 
     49 H           8.1423   17.0665   15.5631 H         1 1KZ201      0.0000 
     50 H           7.1744   15.7492   17.4682 H         1 1KZ201      0.0000 
     51 H           8.8625   16.2332   17.7049 H         1 1KZ201      0.0000 
     52 H           5.7542   14.7734   19.4558 H         1 1KZ201      0.0000 
     53 H           7.8651   14.8217   24.2954 H         1 1KZ201      0.0000 
     54 H           9.2827   13.5899   22.5219 H         1 1KZ201      0.0000 
     55 H           9.3715   12.8619   20.2256 H         1 1KZ201      0.0000 
     56 H           6.6499   20.5439   20.2955 H         1 1KZ201      0.0000 
     57 H           6.4171   19.1200   19.5852 H         1 1KZ201      0.0000 
     58 H           5.1664   19.9327   20.1863 H         1 1KZ201      0.0000 
     59 H           8.2755   21.1260   24.4587 H         1 1KZ201      0.0000 
     60 H           7.0295   21.2197   23.4463 H         1 1KZ201      0.0000 
     61 H           6.7720   21.0674   25.0264 H         1 1KZ201      0.0000 
@<TRIPOS>BOND
     1    2    1 1    
     2   56    1 1    
     3   57    1 1    
     4   58    1 1    
     5    3    2 1    
     6    4    3 ar   
     7    5    3 ar   
     8   10    4 ar   
     9   36    4 1    
    10    6    5 1    
    11    8    5 ar   
    12    7    6 1    
    13   59    7 1    
    14   60    7 1    
    15   61    7 1    
    16    9    8 ar   
    17   37    8 1    
    18   10    9 ar   
    19   38    9 1    
    20   11   10 1    
    21   12   11 1    
    22   13   12 1    
    23   39   12 1    
    24   40   12 1    
    25   14   13 1    
    26   41   13 1    
    27   42   13 1    
    28   15   14 1    
    29   16   15 2    
    30   17   15 1    
    31   18   17 1    
    32   22   17 1    
    33   43   17 1    
    34   19   18 1    
    35   44   18 1    
    36   45   18 1    
    37   20   19 1    
    38   46   19 1    
    39   47   19 1    
    40   21   20 1    
    41   48   20 1    
    42   49   20 1    
    43   22   21 1    
    44   50   21 1    
    45   51   21 1    
    46   23   22 1    
    47   24   23 2    
    48   25   23 2    
    49   26   23 1    
    50   27   26 ar   
    51   35   26 ar   
    52   28   27 ar   
    53   52   27 1    
    54   29   28 1    
    55   33   28 ar   
    56   30   29 1    
    57   31   30 2    
    58   32   30 am   
    59   33   32 1    
    60   53   32 1    
    61   34   33 ar   
    62   35   34 ar   
    63   54   34 1    
    64   55   35 1    
@<TRIPOS>SUBSTRUCTURE
     1 1KZ201      1 GROUP   
@<TRIPOS>SET

