#    Name: 3bhe_BZN_1_INTS_M
#    Modification time : Mon Mar 24 19:33:18 2014

@<TRIPOS>MOLECULE
3bhe_BZN_1_INTS_M
   76     0     9     0     0
SMALL
NO_CHARGES


@<TRIPOS>ATOM
      1 CA         20.4315    2.0125   14.5075 C.3       3 GLC5        0.0000 
      2 CA         20.5960    0.2390   15.1960 C.3       9 GLL5        0.0000 
      3 CA         20.2670    3.7860   13.8190 C.3       6 GLP5        0.0000 
      4 CA         22.0800    1.8705   15.4590 C.3       3 GLC5        0.0000 
      5 CA         23.5640    3.5020   15.7220 C.3       6 GLP5        0.0000 
      6 CA         20.6650   -1.3735   11.9005 C.3       3 GLC5        0.0000 
      7 CA         20.2110   -1.6400   13.7370 C.3       9 GLL5        0.0000 
      8 CA         21.1190   -1.1070   10.0640 C.3       6 GLP5        0.0000 
      9 CA         18.9800   -2.1905   12.2155 C.3       3 GLC5        0.0000 
     10 CA         17.7490   -2.7410   10.6940 C.3       6 GLP5        0.0000 
     11 CA         17.4695   -1.9455   13.4000 C.3       3 GLC5        0.0000 
     12 CA         18.2520   -1.8540   15.2780 C.3       9 GLL5        0.0000 
     13 CA         16.6870   -2.0370   11.5220 C.3       6 GLP5        0.0000 
     14 CA         16.4830   -1.0860   15.9555 C.3       3 GLC5        0.0000 
     15 CA         14.7140   -0.3180   16.6330 C.3       6 GLP5        0.0000 
     16 OD1        21.2375    0.5820   13.1025 O.co2     2 ASC3        0.0000 
     17 OD1        20.3890   -0.1710   13.8010 O.co2     8 ASL3        0.0000 
     18 OD1        22.0860    1.3350   12.4040 O.co2     5 ASP3        0.0000 
     19 OD1        21.7865   -0.2985   13.4955 O.co2     2 ASC3        0.0000 
     20 OD1        23.1840   -0.4260   13.1900 O.co2     5 ASP3        0.0000 
     21 OD1        19.7925    0.4600   12.8305 O.co2     2 ASC3        0.0000 
     22 OD1        19.1960    1.0910   11.8600 O.co2     5 ASP3        0.0000 
     23 OD1        19.1830    0.3915   13.7435 O.co2     2 ASC3        0.0000 
     24 OD1        17.9770    0.9540   13.6860 O.co2     5 ASP3        0.0000 
     25 CA         19.8280   -4.5360   19.2220 C.3       3 GLC5        0.0000 
     26 CA         20.8220   -3.0510   18.1130 C.3       9 GLL5        0.0000 
     27 CA         18.8340   -6.0210   20.3310 C.3       6 GLP5        0.0000 
     28 CA         21.2140   -5.1335   18.3715 C.3       3 GLC5        0.0000 
     29 CA         21.6060   -7.2160   18.6300 C.3       6 GLP5        0.0000 
     30 CA         22.0220   -2.8485   22.2675 C.3       3 GLC5        0.0000 
     31 CA         21.9500   -3.1050   20.3780 C.3       9 GLL5        0.0000 
     32 CA         22.0940   -2.5920   24.1570 C.3       6 GLP5        0.0000 
     33 CA         21.7780   -5.1605   19.5040 C.3       3 GLC5        0.0000 
     34 CA         23.4285   -3.8170   20.5330 C.3       3 GLC5        0.0000 
     35 CA         24.9070   -4.5290   20.6880 C.3       6 GLP5        0.0000 
     36 N          23.1300   -5.5450   18.8220 N.am      1 SEC2        0.0000 
     37 N          22.8450   -4.8400   17.8330 N.am      7 SEL2        0.0000 
     38 N          23.4150   -6.2500   19.8110 N.am      4 SEP2        0.0000 
     39 CA         21.5925   -6.2840   16.8740 C.3       3 GLC5        0.0000 
     40 CA         21.5790   -5.3520   15.1180 C.3       9 GLL5        0.0000 
     41 CA         21.9125   -2.6010   11.4715 C.3       3 GLC5        0.0000 
     42 CA         22.7060   -4.0950   12.8790 C.3       9 GLL5        0.0000 
     43 CA         17.2640   -3.1195   13.3630 C.3       3 GLC5        0.0000 
     44 CA         17.8410   -4.2020   15.2040 C.3       9 GLL5        0.0000 
     45 CA         15.1855   -6.4740   16.8700 C.3       3 GLC5        0.0000 
     46 CA         17.1560   -5.9280   16.8970 C.3       9 GLL5        0.0000 
     47 CA         13.2150   -7.0200   16.8430 C.3       6 GLP5        0.0000 
     48 CA         15.1315   -7.2860   17.7805 C.3       3 GLC5        0.0000 
     49 CA         16.4730   -6.3230   18.0480 C.3       9 GLL5        0.0000 
     50 CA         13.7900   -8.2490   17.5130 C.3       6 GLP5        0.0000 
     51 CA         14.4990   -6.4015   19.9820 C.3       3 GLC5        0.0000 
     52 CA         15.7210   -5.4090   18.7880 C.3       9 GLL5        0.0000 
     53 CA         13.2770   -7.3940   21.1760 C.3       6 GLP5        0.0000 
     54 CA         14.3730   -3.8000   16.0890 C.3       3 GLC5        0.0000 
     55 CA         16.3010   -3.6970   17.1830 C.3       9 GLL5        0.0000 
     56 CA         12.4450   -3.9030   14.9950 C.3       6 GLP5        0.0000 
     57 CA         19.6061   -3.8159   20.8095 C.3       3 GLC5        0.0000 
     58 CA         19.6670   -2.1150   20.1350 C.3       9 GLL5        0.0000 
     59 CA         18.6340   -5.2220   21.5970 C.3       6 GLP5        0.0000 
     60 CA         23.3745   -6.3555   15.7093 C.3       3 GLC5        0.0000 
     61 CA         24.7100   -7.8760   16.2260 C.3       6 GLP5        0.0000 
     62 CA         23.1765   -4.1452   11.2400 C.3       3 GLC5        0.0000 
     63 CA         21.8180   -5.1620   12.7230 C.3       9 GLL5        0.0000 
     64 CA         24.0910   -3.6620    9.6790 C.3       6 GLP5        0.0000 
     65 CA         24.5697   -4.9158   12.7777 C.3       3 GLC5        0.0000 
     66 CA         26.2540   -5.9450   12.0360 C.3       6 GLP5        0.0000 
     67 CA         24.8263   -3.2368   13.5092 C.3       3 GLC5        0.0000 
     68 CA         26.7670   -2.5870   13.4990 C.3       6 GLP5        0.0000 
     69 CA         17.9760   -5.6423   18.5045 C.3       3 GLC5        0.0000 
     70 CA         17.0800   -4.5990   16.4590 C.3       9 GLL5        0.0000 
     71 CA         17.7127   -7.7988   18.0212 C.3       3 GLC5        0.0000 
     72 CA         18.6110   -9.4720   18.5700 C.3       6 GLP5        0.0000 
     73 CA         14.4405   -5.8847   17.7018 C.3       3 GLC5        0.0000 
     74 CA         17.3440   -5.4995   19.3532 C.3       3 GLC5        0.0000 
     75 CA         15.3350   -2.1057   17.1955 C.3       3 GLC5        0.0000 
     76 CA         15.6110   -4.0900   18.3330 C.3       9 GLL5        0.0000 
@<TRIPOS>BOND
@<TRIPOS>SUBSTRUCTURE
     1 SEC2       36 GROUP        1 X    SEC  0     ROOT SEC X 2
     2 ASC3       16 GROUP        1 X    ASC  0     **** ASC X 3
     3 GLC5        1 GROUP        1 X    GLC  0     **** GLC X 6
     4 SEP2       38 GROUP        1 Y    SEP  0     ROOT SEP Y 9
     5 ASP3       18 GROUP        1 Y    ASP  0     **** ASP Y 10
     6 GLP5        3 GROUP        1 Y    GLP  0     **** GLP Y 13
     7 SEL2       37 GROUP        1 Z    SEL  0     ROOT SEL Z 16
     8 ASL3       17 GROUP        1 Z    ASL  0     **** ASL Z 17
     9 GLL5        2 GROUP        1 Z    GLL  0     **** GLL Z 20
@<TRIPOS>SET

