#    Name: 3bhe_BZN_1_ligand
#    Modification time : Mon Mar 24 19:33:18 2014

@<TRIPOS>MOLECULE
3bhe_BZN_1_ligand
   60    62     1     0     0
SMALL
NO_CHARGES


@<TRIPOS>ATOM
      1 C2         20.5960    0.2390   15.1960 C.3       1 BZN2501     0.0000 
      2 C3         20.4820   -1.0310   16.0640 C.3       1 BZN2501     0.0000 
      3 C4         19.7710   -2.0570   15.1520 C.3       1 BZN2501     0.0000 
      4 C5         20.2110   -1.6400   13.7370 C.3       1 BZN2501     0.0000 
      5 C6         18.2520   -1.8540   15.2780 C.3       1 BZN2501     0.0000 
      6 N1         20.3890   -0.1710   13.8010 N.4       1 BZN2501     0.0000 
      7 C15        21.9020   -1.5280   16.3740 C.3       1 BZN2501     0.0000 
      8 N16        21.8570   -2.7560   17.1470 N.pl3     1 BZN2501     0.0000 
      9 C24        20.8220   -3.0510   18.1130 C.3       1 BZN2501     0.0000 
     10 C25        21.0290   -2.3040   19.4400 C.3       1 BZN2501     0.0000 
     11 C27        21.9500   -3.1050   20.3780 C.3       1 BZN2501     0.0000 
     12 C26        19.6670   -2.1150   20.1350 C.3       1 BZN2501     0.0000 
     13 S17        22.9590   -3.7640   16.8880 S.o2      1 BZN2501     0.0000 
     14 O29        22.8450   -4.8400   17.8330 O.2       1 BZN2501     0.0000 
     15 O28        24.2140   -3.0540   16.7390 O.2       1 BZN2501     0.0000 
     16 C18        22.4990   -4.3180   15.2670 C.ar      1 BZN2501     0.0000 
     17 C23        21.5790   -5.3520   15.1180 C.ar      1 BZN2501     0.0000 
     18 C22        21.2490   -5.7900   13.8330 C.ar      1 BZN2501     0.0000 
     19 C21        21.8180   -5.1620   12.7230 C.ar      1 BZN2501     0.0000 
     20 C20        22.7060   -4.0950   12.8790 C.ar      1 BZN2501     0.0000 
     21 C19        23.0650   -3.6780   14.1600 C.ar      1 BZN2501     0.0000 
     22 O7         17.4900   -2.9170   14.7270 O.3       1 BZN2501     0.0000 
     23 C8         17.8410   -4.2020   15.2040 C.3       1 BZN2501     0.0000 
     24 C9         17.0800   -4.5990   16.4590 C.ar      1 BZN2501     0.0000 
     25 C14        17.1560   -5.9280   16.8970 C.ar      1 BZN2501     0.0000 
     26 C13        16.4730   -6.3230   18.0480 C.ar      1 BZN2501     0.0000 
     27 C12        15.7210   -5.4090   18.7880 C.ar      1 BZN2501     0.0000 
     28 C11        15.6110   -4.0900   18.3330 C.ar      1 BZN2501     0.0000 
     29 C10        16.3010   -3.6970   17.1830 C.ar      1 BZN2501     0.0000 
     30 H          21.5791    0.6596   15.3388 H         1 BZN2501     0.0000 
     31 H          19.8379    0.9368   15.5157 H         1 BZN2501     0.0000 
     32 H          19.9362   -0.8482   16.9076 H         1 BZN2501     0.0000 
     33 H          20.0660   -3.0043   15.3677 H         1 BZN2501     0.0000 
     34 H          19.4381   -1.9043   13.0455 H         1 BZN2501     0.0000 
     35 H          21.1342   -2.1299   13.5064 H         1 BZN2501     0.0000 
     36 H          18.0130   -0.8825   14.7916 H         1 BZN2501     0.0000 
     37 H          18.0326   -1.7089   16.3589 H         1 BZN2501     0.0000 
     38 H          22.4242   -0.7340   16.9201 H         1 BZN2501     0.0000 
     39 H          22.4212   -1.6779   15.4205 H         1 BZN2501     0.0000 
     40 H          20.7854   -4.1308   18.3409 H         1 BZN2501     0.0000 
     41 H          19.8254   -2.7738   17.7267 H         1 BZN2501     0.0000 
     42 H          21.4574   -1.3500   19.2525 H         1 BZN2501     0.0000 
     43 H          21.1494   -5.7865   15.9362 H         1 BZN2501     0.0000 
     44 H          20.5943   -6.5662   13.7062 H         1 BZN2501     0.0000 
     45 H          21.5791   -5.4908   11.7737 H         1 BZN2501     0.0000 
     46 H          23.0907   -3.6223   12.0559 H         1 BZN2501     0.0000 
     47 H          23.7313   -2.9166   14.2899 H         1 BZN2501     0.0000 
     48 H          18.9262   -4.2682   15.4392 H         1 BZN2501     0.0000 
     49 H          17.6523   -4.9874   14.4392 H         1 BZN2501     0.0000 
     50 H          17.7141   -6.6081   16.3700 H         1 BZN2501     0.0000 
     51 H          16.5246   -7.3081   18.3577 H         1 BZN2501     0.0000 
     52 H          15.2570   -5.6970   19.6494 H         1 BZN2501     0.0000 
     53 H          15.0291   -3.4187   18.8396 H         1 BZN2501     0.0000 
     54 H          16.2314   -2.7139   16.8625 H         1 BZN2501     0.0000 
     55 H          22.8513   -3.2574   19.9724 H         1 BZN2501     0.0000 
     56 H          22.0959   -2.6329   21.2474 H         1 BZN2501     0.0000 
     57 H          21.5695   -4.0044   20.5931 H         1 BZN2501     0.0000 
     58 H          19.7582   -1.6316   21.0056 H         1 BZN2501     0.0000 
     59 H          19.0326   -1.5862   19.5712 H         1 BZN2501     0.0000 
     60 H          19.2253   -2.9905   20.3307 H         1 BZN2501     0.0000 
@<TRIPOS>BOND
     1    2    1 1    
     2    6    1 1    
     3   30    1 1    
     4   31    1 1    
     5    3    2 1    
     6    7    2 1    
     7   32    2 1    
     8    4    3 1    
     9    5    3 1    
    10   33    3 1    
    11    6    4 1    
    12   34    4 1    
    13   35    4 1    
    14   22    5 1    
    15   36    5 1    
    16   37    5 1    
    17    8    7 1    
    18   38    7 1    
    19   39    7 1    
    20    9    8 1    
    21   13    8 1    
    22   10    9 1    
    23   40    9 1    
    24   41    9 1    
    25   11   10 1    
    26   12   10 1    
    27   42   10 1    
    28   55   11 1    
    29   56   11 1    
    30   57   11 1    
    31   58   12 1    
    32   59   12 1    
    33   60   12 1    
    34   14   13 2    
    35   15   13 2    
    36   16   13 1    
    37   17   16 ar   
    38   21   16 ar   
    39   18   17 ar   
    40   43   17 1    
    41   19   18 ar   
    42   44   18 1    
    43   20   19 ar   
    44   45   19 1    
    45   21   20 ar   
    46   46   20 1    
    47   47   21 1    
    48   23   22 1    
    49   24   23 1    
    50   48   23 1    
    51   49   23 1    
    52   25   24 ar   
    53   29   24 ar   
    54   26   25 ar   
    55   50   25 1    
    56   27   26 ar   
    57   51   26 1    
    58   28   27 ar   
    59   52   27 1    
    60   29   28 ar   
    61   53   28 1    
    62   54   29 1    
@<TRIPOS>SUBSTRUCTURE
     1 BZN2501     1 GROUP   
@<TRIPOS>SET

