#    Name: 1z1h_HBB_1_INTS_M
#    Modification time : Mon Apr  7 16:20:46 2014

@<TRIPOS>MOLECULE
1z1h_HBB_1_INTS_M
   84     0     9     0     0
SMALL
NO_CHARGES


@<TRIPOS>ATOM
      1 CA          8.4725   -1.5635   11.7180 C.3       3 GLC5        0.0000 
      2 CA          7.6060    0.3700   11.7680 C.3       9 GLL5        0.0000 
      3 CA          9.3390   -3.4970   11.6680 C.3       6 GLP5        0.0000 
      4 CA          2.6570    2.7145   13.7175 C.3       3 GLC5        0.0000 
      5 CA          2.9730    1.4640   12.1810 C.3       9 GLL5        0.0000 
      6 CA          2.3410    3.9650   15.2540 C.3       6 GLP5        0.0000 
      7 CA         -1.3140    1.1770   11.9115 C.3       3 GLC5        0.0000 
      8 CA          0.5440    2.0780   11.8760 C.3       9 GLL5        0.0000 
      9 CA         -3.1720    0.2760   11.9470 C.3       6 GLP5        0.0000 
     10 CA         -0.6240    0.9980   10.3310 C.3       3 GLC5        0.0000 
     11 CA         -1.7920   -0.0820    8.7860 C.3       6 GLP5        0.0000 
     12 CA          6.8870   -3.0645   18.5265 C.3       3 GLC5        0.0000 
     13 CA          5.7070   -3.5950   16.8920 C.3       9 GLL5        0.0000 
     14 CA          8.0670   -2.5340   20.1610 C.3       6 GLP5        0.0000 
     15 CA          1.6840   -6.7925   14.2950 C.3       3 GLC5        0.0000 
     16 CA          2.5690   -5.0460   15.2300 C.3       9 GLL5        0.0000 
     17 CA          0.7990   -8.5390   13.3600 C.3       6 GLP5        0.0000 
     18 CA          3.8515   -5.8625   13.7640 C.3       3 GLC5        0.0000 
     19 CA          5.1340   -6.6790   12.2980 C.3       6 GLP5        0.0000 
     20 CA          8.9340   -4.0005   13.7320 C.3       3 GLC5        0.0000 
     21 CA          8.5290   -4.5040   15.7960 C.3       9 GLL5        0.0000 
     22 N           2.5825    4.9330   12.6960 N.am      2 SEC2        0.0000 
     23 N           3.4350    4.1870   11.7850 N.am      8 SEL2        0.0000 
     24 N           1.7300    5.6790   13.6070 N.am      5 SEP2        0.0000 
     25 O           3.5185    1.4280    9.5355 O.2       1 ALC1        0.0000 
     26 O           3.3970    2.1030   10.9100 O.2       7 ALL1        0.0000 
     27 O           3.6400    0.7530    8.1610 O.2       4 ALP1        0.0000 
     28 CA          0.4295   -1.0610   14.4610 C.3       3 GLC5        0.0000 
     29 CA          1.1470    0.1320   13.3060 C.3       9 GLL5        0.0000 
     30 CA         -0.2880   -2.2540   15.6160 C.3       6 GLP5        0.0000 
     31 O           4.8635    2.2485   14.3420 O.2       1 ALC1        0.0000 
     32 O           4.6820    0.6980   13.7470 O.2       7 ALL1        0.0000 
     33 O           5.0450    3.7990   14.9370 O.2       4 ALP1        0.0000 
     34 N           6.5075    0.8775   16.9545 N.am      2 SEC2        0.0000 
     35 N           5.2570    0.6650   16.5620 N.am      8 SEL2        0.0000 
     36 N           7.7580    1.0900   17.3470 N.am      5 SEP2        0.0000 
     37 O           4.5870    1.1975   17.6450 O.2       1 ALC1        0.0000 
     38 O           5.2570    0.6650   16.5620 O.2       7 ALL1        0.0000 
     39 O           3.9170    1.7300   18.7280 O.2       4 ALP1        0.0000 
     40 O           3.9335    0.5360   17.0690 O.2       1 ALC1        0.0000 
     41 O           2.6100    0.4070   17.5760 O.2       4 ALP1        0.0000 
     42 CA          7.7500   -1.6270   17.9165 C.3       3 GLC5        0.0000 
     43 CA          6.3430   -1.4910   16.4480 C.3       9 GLL5        0.0000 
     44 CA          9.1570   -1.7630   19.3850 C.3       6 GLP5        0.0000 
     45 CA          4.9660   -5.6070   14.2080 C.3       3 GLC5        0.0000 
     46 CA          4.7980   -4.5350   16.1180 C.3       9 GLL5        0.0000 
     47 CA         10.2960   -2.0955   15.3640 C.3       3 GLC5        0.0000 
     48 CA          9.6660   -3.9610   16.4060 C.3       9 GLL5        0.0000 
     49 CA         10.9260   -0.2300   14.3220 C.3       6 GLP5        0.0000 
     50 CA         10.2470   -7.9060   15.6860 C.3       3 GLC5        0.0000 
     51 CA          9.1120   -6.6680   16.7230 C.3       9 GLL5        0.0000 
     52 CA         11.3820   -9.1440   14.6490 C.3       6 GLP5        0.0000 
     53 CA          9.3110    1.8975   12.0567 C.3       3 GLC5        0.0000 
     54 CA          7.3480    1.0860   12.9450 C.3       9 GLL5        0.0000 
     55 CA         11.1450    3.0670   11.7570 C.3       6 GLP5        0.0000 
     56 CA          6.4212   -0.3880    9.9560 C.3       3 GLC5        0.0000 
     57 CA          5.1690   -1.4720    8.7510 C.3       6 GLP5        0.0000 
     58 CA          9.1418    1.2543    9.1905 C.3       3 GLC5        0.0000 
     59 CA          7.7410    1.0220   10.5540 C.3       9 GLL5        0.0000 
     60 CA         10.6040    0.7980    7.8520 C.3       6 GLP5        0.0000 
     61 CA          9.4123    2.3887   11.1430 C.3       3 GLC5        0.0000 
     62 CA          9.1684    0.1600   13.5030 C.3       3 GLC5        0.0000 
     63 CA          1.3200   -5.3385   16.8938 C.3       3 GLC5        0.0000 
     64 CA          3.3010   -4.3200   16.3450 C.3       9 GLL5        0.0000 
     65 CA         -0.2950   -5.9940   18.0000 C.3       6 GLP5        0.0000 
     66 CA          1.2778   -3.2840   15.6995 C.3       3 GLC5        0.0000 
     67 CA          8.0590    3.9678   13.7385 C.3       3 GLC5        0.0000 
     68 CA          7.2450    2.4740   12.8640 C.3       9 GLL5        0.0000 
     69 CA          8.8060    5.1350   15.2160 C.3       6 GLP5        0.0000 
     70 CA          9.2285    2.9337   12.0090 C.3       3 GLC5        0.0000 
     71 CA          0.6013   -1.0520   11.9392 C.3       3 GLC5        0.0000 
     72 CA          1.5280    0.9200   12.0730 C.3       9 GLL5        0.0000 
     73 CA         -0.1350   -2.6300   11.1890 C.3       6 GLP5        0.0000 
     74 CA          1.1653    1.9233   14.1746 C.3       3 GLC5        0.0000 
     75 CA          1.2390    3.0310   15.7090 C.3       6 GLP5        0.0000 
     76 CA          9.6238   -3.0613   18.0870 C.3       3 GLC5        0.0000 
     77 CA         11.7577   -5.8985   18.6780 C.3       3 GLC5        0.0000 
     78 CA         10.5150   -4.7580   17.1720 C.3       9 GLL5        0.0000 
     79 CA         13.1380   -6.3620   20.1060 C.3       6 GLP5        0.0000 
     80 CA         11.4002   -6.1750   15.6560 C.3       3 GLC5        0.0000 
     81 CA         10.2400   -6.1120   17.3280 C.3       9 GLL5        0.0000 
     82 CA         12.4230   -6.9150   14.0620 C.3       6 GLP5        0.0000 
     83 CA         11.8926   -4.6324   16.4692 C.3       3 GLC5        0.0000 
     84 CA         13.6200   -4.0290   15.8800 C.3       6 GLP5        0.0000 
@<TRIPOS>BOND
@<TRIPOS>SUBSTRUCTURE
     1 ALC1       25 GROUP        1 X    ALC  0     ROOT ALC X 1
     2 SEC2       22 GROUP        1 X    SEC  0     **** SEC X 2
     3 GLC5        1 GROUP        1 X    GLC  0     **** GLC X 6
     4 ALP1       27 GROUP        1 Y    ALP  0     ROOT ALP Y 8
     5 SEP2       24 GROUP        1 Y    SEP  0     **** SEP Y 9
     6 GLP5        3 GROUP        1 Y    GLP  0     **** GLP Y 13
     7 ALL1       26 GROUP        1 Z    ALL  0     ROOT ALL Z 15
     8 SEL2       23 GROUP        1 Z    SEL  0     **** SEL Z 16
     9 GLL5        2 GROUP        1 Z    GLL  0     **** GLL Z 20
@<TRIPOS>SET

