#    Name: 1z1h_HBB_1_ligand
#    Modification time : Mon Apr  7 16:20:46 2014

@<TRIPOS>MOLECULE
1z1h_HBB_1_ligand
   83    85     1     0     0
SMALL
NO_CHARGES


@<TRIPOS>ATOM
      1 C1          5.6690   -0.2380   14.3420 C.3       1 HBB201      0.0000 
      2 C2          7.0830    0.3740   14.2550 C.3       1 HBB201      0.0000 
      3 C3          7.3480    1.0860   12.9450 C.ar      1 HBB201      0.0000 
      4 C7          7.7410    1.0220   10.5540 C.ar      1 HBB201      0.0000 
      5 C8          7.6060    0.3700   11.7680 C.ar      1 HBB201      0.0000 
      6 C10         6.3250    3.0840    8.7760 C.3       1 HBB201      0.0000 
      7 C11         5.4980    4.2530    9.3600 C.3       1 HBB201      0.0000 
      8 C12         4.0010    3.9610    9.4690 C.3       1 HBB201      0.0000 
      9 C13         3.5620    3.4240   10.8200 C.2       1 HBB201      0.0000 
     10 C16         2.9730    1.4640   12.1810 C.3       1 HBB201      0.0000 
     11 C19         0.5440    2.0780   11.8760 C.3       1 HBB201      0.0000 
     12 C20         3.9260    0.3660   12.6940 C.2       1 HBB201      0.0000 
     13 N26         6.3700   -2.8180   15.8170 N.pl3     1 HBB201      0.0000 
     14 C27         5.7070   -3.5950   16.8920 C.3       1 HBB201      0.0000 
     15 C30         2.9350   -2.8440   16.3270 C.3       1 HBB201      0.0000 
     16 C31         2.5690   -5.0460   15.2300 C.3       1 HBB201      0.0000 
     17 C35         8.5290   -4.5040   15.7960 C.ar      1 HBB201      0.0000 
     18 C4          7.2450    2.4740   12.8640 C.ar      1 HBB201      0.0000 
     19 C5          7.3790    3.1270   11.6580 C.ar      1 HBB201      0.0000 
     20 C6          7.6180    2.3990   10.5040 C.ar      1 HBB201      0.0000 
     21 O9          7.6630    3.0550    9.2910 O.3       1 HBB201      0.0000 
     22 O14         3.4350    4.1870   11.7850 O.2       1 HBB201      0.0000 
     23 N15         3.3970    2.1030   10.9100 N.am      1 HBB201      0.0000 
     24 C17         1.5280    0.9200   12.0730 C.3       1 HBB201      0.0000 
     25 C18         1.1470    0.1320   13.3060 C.3       1 HBB201      0.0000 
     26 O21         3.9570   -0.7550   12.1550 O.2       1 HBB201      0.0000 
     27 N22         4.6820    0.6980   13.7470 N.am      1 HBB201      0.0000 
     28 C23         5.3120   -0.5480   15.8090 C.3       1 HBB201      0.0000 
     29 O24         5.2570    0.6650   16.5620 O.3       1 HBB201      0.0000 
     30 C25         6.3430   -1.4910   16.4480 C.3       1 HBB201      0.0000 
     31 C28         4.7980   -4.5350   16.1180 C.3       1 HBB201      0.0000 
     32 C29         3.3010   -4.3200   16.3450 C.3       1 HBB201      0.0000 
     33 S32         7.5240   -3.5430   14.8840 S.o2      1 HBB201      0.0000 
     34 O33         8.3440   -2.5090   14.2480 O.2       1 HBB201      0.0000 
     35 O34         6.8690   -4.3280   13.8480 O.2       1 HBB201      0.0000 
     36 C36         9.6660   -3.9610   16.4060 C.ar      1 HBB201      0.0000 
     37 C37        10.5150   -4.7580   17.1720 C.ar      1 HBB201      0.0000 
     38 C38        10.2400   -6.1120   17.3280 C.ar      1 HBB201      0.0000 
     39 C39         9.1120   -6.6680   16.7230 C.ar      1 HBB201      0.0000 
     40 C40         8.2660   -5.8630   15.9600 C.ar      1 HBB201      0.0000 
     41 H           5.6740   -1.1668   13.7908 H         1 HBB201      0.0000 
     42 H           7.8189   -0.4311   14.3917 H         1 HBB201      0.0000 
     43 H           7.2082    1.0791   15.0890 H         1 HBB201      0.0000 
     44 H           7.9308    0.4874    9.6983 H         1 HBB201      0.0000 
     45 H           7.6955   -0.6589   11.8147 H         1 HBB201      0.0000 
     46 H           6.3141    3.1945    7.6775 H         1 HBB201      0.0000 
     47 H           5.7797    2.1522    9.0071 H         1 HBB201      0.0000 
     48 H           5.6484    5.1387    8.7248 H         1 HBB201      0.0000 
     49 H           5.8927    4.4957   10.3579 H         1 HBB201      0.0000 
     50 H           3.7239    3.2341    8.6836 H         1 HBB201      0.0000 
     51 H           3.4423    4.8894    9.2501 H         1 HBB201      0.0000 
     52 H           2.9369    2.2489   12.9740 H         1 HBB201      0.0000 
     53 H           5.1168   -2.9617   17.5086 H         1 HBB201      0.0000 
     54 H           6.4169   -4.1638   17.4416 H         1 HBB201      0.0000 
     55 H           7.0646    3.0171   13.7288 H         1 HBB201      0.0000 
     56 H           7.3022    4.1529   11.6113 H         1 HBB201      0.0000 
     57 H           3.5508    1.4575   10.1179 H         1 HBB201      0.0000 
     58 H           1.4726    0.2765   11.2075 H         1 HBB201      0.0000 
     59 H           4.6223    1.6280   14.2083 H         1 HBB201      0.0000 
     60 H           4.3523   -1.0507   15.8183 H         1 HBB201      0.0000 
     61 H           7.3327   -1.0087   16.3782 H         1 HBB201      0.0000 
     62 H           6.1040   -1.5774   17.5215 H         1 HBB201      0.0000 
     63 H           5.0495   -5.5806   16.3842 H         1 HBB201      0.0000 
     64 H           5.0100   -4.4318   15.0355 H         1 HBB201      0.0000 
     65 H           3.0242   -4.7552   17.2804 H         1 HBB201      0.0000 
     66 H           9.8759   -2.9578   16.2855 H         1 HBB201      0.0000 
     67 H          11.3415   -4.3446   17.6196 H         1 HBB201      0.0000 
     68 H          10.8651   -6.7045   17.8876 H         1 HBB201      0.0000 
     69 H           8.9058   -7.6658   16.8392 H         1 HBB201      0.0000 
     70 H           7.4343   -6.2797   15.5111 H         1 HBB201      0.0000 
     71 H           0.5761    2.7262   12.6368 H         1 HBB201      0.0000 
     72 H           0.7403    2.5945   11.0425 H         1 HBB201      0.0000 
     73 H          -0.3999    1.7554   11.8054 H         1 HBB201      0.0000 
     74 H           3.4052   -2.3359   17.0486 H         1 HBB201      0.0000 
     75 H           3.1775   -2.4118   15.4585 H         1 HBB201      0.0000 
     76 H           1.9541   -2.7029   16.4607 H         1 HBB201      0.0000 
     77 H           2.8012   -4.6757   14.3306 H         1 HBB201      0.0000 
     78 H           2.7922   -6.0206   15.2122 H         1 HBB201      0.0000 
     79 H           1.5765   -4.9744   15.3291 H         1 HBB201      0.0000 
     80 H           1.7516   -0.6519   13.4473 H         1 HBB201      0.0000 
     81 H           1.1941    0.6914   14.1335 H         1 HBB201      0.0000 
     82 H           0.2145   -0.2242   13.2457 H         1 HBB201      0.0000 
     83 H           4.3413    0.6789   16.9635 H         1 HBB201      0.0000 
@<TRIPOS>BOND
     1    2    1 1    
     2   27    1 1    
     3   28    1 1    
     4   41    1 1    
     5    3    2 1    
     6   42    2 1    
     7   43    2 1    
     8    5    3 ar   
     9   18    3 ar   
    10    5    4 ar   
    11   20    4 ar   
    12   44    4 1    
    13   45    5 1    
    14    7    6 1    
    15   21    6 1    
    16   46    6 1    
    17   47    6 1    
    18    8    7 1    
    19   48    7 1    
    20   49    7 1    
    21    9    8 1    
    22   50    8 1    
    23   51    8 1    
    24   22    9 2    
    25   23    9 am   
    26   12   10 1    
    27   23   10 1    
    28   24   10 1    
    29   52   10 1    
    30   24   11 1    
    31   71   11 1    
    32   72   11 1    
    33   73   11 1    
    34   26   12 2    
    35   27   12 am   
    36   14   13 1    
    37   30   13 1    
    38   33   13 1    
    39   31   14 1    
    40   53   14 1    
    41   54   14 1    
    42   32   15 1    
    43   74   15 1    
    44   75   15 1    
    45   76   15 1    
    46   32   16 1    
    47   77   16 1    
    48   78   16 1    
    49   79   16 1    
    50   33   17 1    
    51   36   17 ar   
    52   40   17 ar   
    53   19   18 ar   
    54   55   18 1    
    55   20   19 ar   
    56   56   19 1    
    57   21   20 1    
    58   57   23 1    
    59   25   24 1    
    60   58   24 1    
    61   80   25 1    
    62   81   25 1    
    63   82   25 1    
    64   59   27 1    
    65   29   28 1    
    66   30   28 1    
    67   60   28 1    
    68   83   29 1    
    69   61   30 1    
    70   62   30 1    
    71   32   31 1    
    72   63   31 1    
    73   64   31 1    
    74   65   32 1    
    75   34   33 2    
    76   35   33 2    
    77   37   36 ar   
    78   66   36 1    
    79   38   37 ar   
    80   67   37 1    
    81   39   38 ar   
    82   68   38 1    
    83   40   39 ar   
    84   69   39 1    
    85   70   40 1    
@<TRIPOS>SUBSTRUCTURE
     1 HBB201      1 GROUP   
@<TRIPOS>SET

