#    Name: 1cx4_CMP_1_INTS_M
#    Modification time : Mon Mar 24 21:06:03 2014

@<TRIPOS>MOLECULE
1cx4_CMP_1_INTS_M
   52     0    12     0     0
SMALL
NO_CHARGES


@<TRIPOS>ATOM
      1 NZ         89.5680   62.6580   -7.3735 N.4       3 LYC4        0.0000 
      2 NZ         90.8770   62.5840   -7.4830 N.4      11 LYL4        0.0000 
      3 NZ         87.2040   61.9860   -7.5640 N.4       7 LYP4        0.0000 
      4 N          91.2820   63.8045   -8.2415 N.am      2 SEC2        0.0000 
      5 N          90.8770   62.5840   -7.4830 N.am     10 SEL2        0.0000 
      6 N          91.6870   65.0250   -9.0000 N.am      6 SEP2        0.0000 
      7 N          89.5680   62.6580   -7.3735 N.am      2 SEC2        0.0000 
      8 N          88.2590   62.7320   -7.2640 N.am      6 SEP2        0.0000 
      9 N          92.9390   60.3085   -9.5715 N.am      2 SEC2        0.0000 
     10 N          92.8530   61.3280   -8.5170 N.am     10 SEL2        0.0000 
     11 N          93.0250   59.2890  -10.6260 N.am      6 SEP2        0.0000 
     12 CA         90.0770   58.3155   -6.8695 C.3       4 GLC5        0.0000 
     13 CA         91.9910   59.0810   -6.4030 C.3      12 GLL5        0.0000 
     14 CA         88.1630   57.5500   -7.3360 C.3       8 GLP5        0.0000 
     15 CA         93.2335   57.4855   -6.8510 C.3       4 GLC5        0.0000 
     16 CA         94.4760   55.8900   -7.2990 C.3       8 GLP5        0.0000 
     17 CA         91.2370   57.5815   -4.9445 C.3       4 GLC5        0.0000 
     18 CA         90.4830   56.0820   -3.4860 C.3       8 GLP5        0.0000 
     19 CA         92.0400   59.9775   -3.0700 C.3       4 GLC5        0.0000 
     20 CA         92.6540   59.6870   -5.2000 C.3      12 GLL5        0.0000 
     21 CA         91.4260   60.2680   -0.9400 C.3       8 GLP5        0.0000 
     22 CA         92.2890   57.8005   -4.1330 C.3       4 GLC5        0.0000 
     23 CA         91.9240   55.9140   -3.0660 C.3       8 GLP5        0.0000 
     24 N          92.1425   62.0340   -3.2905 N.am      2 SEC2        0.0000 
     25 N          93.5670   61.8280   -3.4070 N.am     10 SEL2        0.0000 
     26 N          90.7180   62.2400   -3.1740 N.am      6 SEP2        0.0000 
     27 O          94.1885   63.0430   -3.2745 O.2       1 ALC1        0.0000 
     28 O          93.5670   61.8280   -3.4070 O.2       9 ALL1        0.0000 
     29 O          94.8100   64.2580   -3.1420 O.2       5 ALP1        0.0000 
     30 CA         98.8210   55.8330   -4.8870 C.3       4 GLC5        0.0000 
     31 CA         98.6830   57.9380   -5.4780 C.3      12 GLL5        0.0000 
     32 CA         98.9590   53.7280   -4.2960 C.3       8 GLP5        0.0000 
     33 CA         96.7895   60.8370   -7.1590 C.3       4 GLC5        0.0000 
     34 CA         97.2360   58.8630   -7.0260 C.3      12 GLL5        0.0000 
     35 CA         96.3430   62.8110   -7.2920 C.3       8 GLP5        0.0000 
     36 CA         96.3330   59.2320   -8.7400 C.3       4 GLC5        0.0000 
     37 CA         95.4300   59.6010  -10.4540 C.3       8 GLP5        0.0000 
     38 CA         95.8560   57.3765   -7.1625 C.3       4 GLC5        0.0000 
     39 CA         98.4630   60.1905   -6.4660 C.3       4 GLC5        0.0000 
     40 CA         99.6900   61.5180   -5.9060 C.3       8 GLP5        0.0000 
     41 CA         95.5100   57.3585   -6.1185 C.3       4 GLC5        0.0000 
     42 CA         96.5440   58.8270   -4.9380 C.3      12 GLL5        0.0000 
     43 CA         91.5010   61.4567   -4.8315 C.3       4 GLC5        0.0000 
     44 CA         93.6140   60.7820   -5.5900 C.3      12 GLL5        0.0000 
     45 CA         89.8680   62.6790   -4.2680 C.3       8 GLP5        0.0000 
     46 CA         95.1602   61.8577   -6.1125 C.3       4 GLC5        0.0000 
     47 CA         92.9082   60.2888   -2.4710 C.3       4 GLC5        0.0000 
     48 CA         94.3410   61.0270   -4.2760 C.3      12 GLL5        0.0000 
     49 CA         96.3450   56.6475   -4.1143 C.3       4 GLC5        0.0000 
     50 CA         95.5640   54.7740   -3.5060 C.3       8 GLP5        0.0000 
     51 CA         98.5299   59.9849   -5.4356 C.3       4 GLC5        0.0000 
     52 CA         97.7080   58.2150   -4.5070 C.3      12 GLL5        0.0000 
@<TRIPOS>BOND
@<TRIPOS>SUBSTRUCTURE
     1 ALC1       27 GROUP        1 X    ALC  0     ROOT ALC X 1
     2 SEC2        4 GROUP        1 X    SEC  0     **** SEC X 2
     3 LYC4        1 GROUP        1 X    LYC  0     **** LYC X 4
     4 GLC5       12 GROUP        1 X    GLC  0     **** GLC X 6
     5 ALP1       29 GROUP        1 Y    ALP  0     ROOT ALP Y 8
     6 SEP2        6 GROUP        1 Y    SEP  0     **** SEP Y 9
     7 LYP4        3 GROUP        1 Y    LYP  0     **** LYP Y 11
     8 GLP5       14 GROUP        1 Y    GLP  0     **** GLP Y 13
     9 ALL1       28 GROUP        1 Z    ALL  0     ROOT ALL Z 15
    10 SEL2        5 GROUP        1 Z    SEL  0     **** SEL Z 16
    11 LYL4        2 GROUP        1 Z    LYL  0     **** LYL Z 18
    12 GLL5       13 GROUP        1 Z    GLL  0     **** GLL Z 20
@<TRIPOS>SET

