#    Name: 1cx4_CMP_1_ligand
#    Modification time : Mon Mar 24 21:06:03 2014

@<TRIPOS>MOLECULE
1cx4_CMP_1_ligand
   33    36     1     0     0
SMALL
NO_CHARGES


@<TRIPOS>ATOM
      1 P          91.9170   61.5340   -7.3910 P.3       1 CMP440      0.0000 
      2 O1P        90.8770   62.5840   -7.4830 O.co2     1 CMP440      0.0000 
      3 O2P        92.8530   61.3280   -8.5170 O.co2     1 CMP440      0.0000 
      4 O5'        91.2430   60.1130   -7.0720 O.3       1 CMP440      0.0000 
      5 C5'        91.9910   59.0810   -6.4030 C.3       1 CMP440      0.0000 
      6 C4'        92.6540   59.6870   -5.2000 C.3       1 CMP440      0.0000 
      7 O4'        93.5130   58.7940   -4.4550 O.3       1 CMP440      0.0000 
      8 C3'        93.6140   60.7820   -5.5900 C.3       1 CMP440      0.0000 
      9 O3'        92.8030   61.8260   -6.0850 O.3       1 CMP440      0.0000 
     10 C2'        94.3410   61.0270   -4.2760 C.3       1 CMP440      0.0000 
     11 O2'        93.5670   61.8280   -3.4070 O.3       1 CMP440      0.0000 
     12 C1'        94.4400   59.5920   -3.7280 C.3       1 CMP440      0.0000 
     13 N9         95.7660   58.9860   -3.8170 N.pl3     1 CMP440      0.0000 
     14 C8         96.4970   58.4620   -2.7790 C.2       1 CMP440      0.0000 
     15 N7         97.6660   57.9900   -3.1400 N.2       1 CMP440      0.0000 
     16 C5         97.7080   58.2150   -4.5070 C.ar      1 CMP440      0.0000 
     17 C6         98.6830   57.9380   -5.4780 C.ar      1 CMP440      0.0000 
     18 N6         99.8610   57.3690   -5.2040 N.pl3     1 CMP440      0.0000 
     19 N1         98.4100   58.2780   -6.7570 N.ar      1 CMP440      0.0000 
     20 C2         97.2360   58.8630   -7.0260 C.ar      1 CMP440      0.0000 
     21 N3         96.2420   59.1850   -6.1970 N.ar      1 CMP440      0.0000 
     22 C4         96.5440   58.8270   -4.9380 C.ar      1 CMP440      0.0000 
     23 H          92.7606   58.6647   -7.0548 H         1 CMP440      0.0000 
     24 H          91.3390   58.2708   -6.0729 H         1 CMP440      0.0000 
     25 H          91.9233   60.1276   -4.5408 H         1 CMP440      0.0000 
     26 H          94.2836   60.3695   -6.2945 H         1 CMP440      0.0000 
     27 H          95.3041   61.3688   -4.4764 H         1 CMP440      0.0000 
     28 H          94.1224   59.6323   -2.6773 H         1 CMP440      0.0000 
     29 H          96.1404   58.4561   -1.8409 H         1 CMP440      0.0000 
     30 H         100.4522   57.1816   -5.9884 H         1 CMP440      0.0000 
     31 H         100.0454   57.1817   -4.2392 H         1 CMP440      0.0000 
     32 H          97.0673   59.1159   -8.0943 H         1 CMP440      0.0000 
     33 H          94.0786   62.6827   -3.3185 H         1 CMP440      0.0000 
@<TRIPOS>BOND
     1    2    1 ar   
     2    3    1 ar   
     3    4    1 1    
     4    9    1 1    
     5    5    4 1    
     6    6    5 1    
     7   23    5 1    
     8   24    5 1    
     9    7    6 1    
    10    8    6 1    
    11   25    6 1    
    12   12    7 1    
    13    9    8 1    
    14   10    8 1    
    15   26    8 1    
    16   11   10 1    
    17   12   10 1    
    18   27   10 1    
    19   33   11 1    
    20   13   12 1    
    21   28   12 1    
    22   14   13 1    
    23   22   13 1    
    24   15   14 2    
    25   29   14 1    
    26   16   15 1    
    27   17   16 ar   
    28   22   16 ar   
    29   18   17 1    
    30   19   17 ar   
    31   30   18 1    
    32   31   18 1    
    33   20   19 ar   
    34   21   20 ar   
    35   32   20 1    
    36   22   21 ar   
@<TRIPOS>SUBSTRUCTURE
     1 CMP440      1 GROUP   
@<TRIPOS>SET

