#    Name: 1YZQ_1_CAVITY_N1_6.mol2
#    Modification time : Mon Mar 10 21:41:48 2014

@<TRIPOS>MOLECULE
1YZQ_1_CAVITY_N1_6.mol2
   95     0     7     0     0
SMALL
NO_CHARGES


@<TRIPOS>ATOM
      1 OD1        28.2773   24.9495   10.7638 O.3       3 ASP3        0.0000 
      2 CA         27.2026   24.7168   11.7840 C.3       6 GLY6        0.0000 
      3 CA         26.2008   25.3681   10.8772 C.3       6 GLY6        0.0000 
      4 N          27.9020   22.7345   12.0687 N.2       2 ALA2        0.0000 
      5 DU         26.9003   23.3858   11.1619 H         7 CUB7        0.0000 
      6 CA         25.8985   24.0371   10.2551 C.3       6 GLY6        0.0000 
      7 N          28.6015   20.7521   12.3534 N.2       2 ALA2        0.0000 
      8 N          27.5997   21.4034   11.4466 N.2       2 ALA2        0.0000 
      9 DU         26.5980   22.0548   10.5398 H         7 CUB7        0.0000 
     10 N          28.2992   19.4211   11.7313 N.2       2 ALA2        0.0000 
     11 N          27.2974   20.0724   10.8245 N.2       2 ALA2        0.0000 
     12 DU         26.2957   20.7237    9.9177 H         7 CUB7        0.0000 
     13 N          27.9969   18.0901   11.1092 N.2       2 ALA2        0.0000 
     14 N          26.9951   18.7414   10.2024 N.2       2 ALA2        0.0000 
     15 NZ         26.1278   24.4841   12.8041 N.2       4 LYS4        0.0000 
     16 NZ         25.1261   25.1354   11.8974 N.2       4 LYS4        0.0000 
     17 CZ         26.8273   22.5018   13.0888 C.ar      5 PHE5        0.0000 
     18 DU         25.8255   23.1531   12.1821 H         7 CUB7        0.0000 
     19 CA         24.8238   23.8044   11.2753 C.3       6 GLY6        0.0000 
     20 CZ         26.5250   21.1707   12.4668 C.ar      5 PHE5        0.0000 
     21 OD1        25.5232   21.8221   11.5600 O.3       3 ASP3        0.0000 
     22 CA         24.5215   22.4734   10.6532 C.3       6 GLY6        0.0000 
     23 N          28.2262   18.5371   13.6583 N.2       2 ALA2        0.0000 
     24 N          27.2244   19.1884   12.7515 N.2       2 ALA2        0.0000 
     25 OD1        26.2227   19.8397   11.8447 O.3       3 ASP3        0.0000 
     26 OD1        25.2209   20.4910   10.9379 O.3       3 ASP3        0.0000 
     27 N          30.9292   15.2521   15.7565 N.2       2 ALA2        0.0000 
     28 N          28.9256   16.5547   13.9430 N.2       2 ALA2        0.0000 
     29 CA         27.9239   17.2060   13.0362 C.3       6 GLY6        0.0000 
     30 DU         26.9221   17.8574   12.1294 H         7 CUB7        0.0000 
     31 OD1        25.9204   18.5087   11.2226 O.3       3 ASP3        0.0000 
     32 OD1        24.9186   19.1600   10.3158 O.3       3 ASP3        0.0000 
     33 CA         31.6286   13.2697   16.0412 C.3       6 GLY6        0.0000 
     34 N          30.6269   13.9210   15.1344 N.2       2 ALA2        0.0000 
     35 CA         27.6216   15.8750   12.4141 C.3       6 GLY6        0.0000 
     36 CA         26.6198   16.5263   11.5073 C.3       6 GLY6        0.0000 
     37 OG         25.6181   17.1777   10.6005 O.2       1 SER1        0.0000 
     38 NZ         25.0531   24.2514   13.8243 N.2       4 LYS4        0.0000 
     39 NZ         24.0513   24.9027   12.9175 N.2       4 LYS4        0.0000 
     40 CZ         25.7525   22.2691   14.1090 C.ar      5 PHE5        0.0000 
     41 CA         24.7508   22.9204   13.2022 C.3       6 GLY6        0.0000 
     42 CA         23.7490   23.5717   12.2955 C.3       6 GLY6        0.0000 
     43 CZ         26.4520   20.2867   14.3937 C.ar      5 PHE5        0.0000 
     44 CZ         25.4502   20.9380   13.4869 C.ar      5 PHE5        0.0000 
     45 CA         24.4485   21.5894   12.5802 C.3       6 GLY6        0.0000 
     46 CA         30.1567   16.3504   17.3988 C.3       6 GLY6        0.0000 
     47 OG         29.1550   17.0017   16.4920 O.2       1 SER1        0.0000 
     48 OG         27.1514   18.3044   14.6784 O.2       1 SER1        0.0000 
     49 OG         26.1497   18.9557   13.7717 O.2       1 SER1        0.0000 
     50 OD1        25.1479   19.6070   12.8649 O.3       3 ASP3        0.0000 
     51 DU         30.8562   14.3680   17.6835 H         7 CUB7        0.0000 
     52 N          29.8544   15.0194   16.7767 N.2       2 ALA2        0.0000 
     53 OG         28.8527   15.6707   15.8699 O.2       1 SER1        0.0000 
     54 OG         27.8509   16.3220   14.9631 O.2       1 SER1        0.0000 
     55 OG         26.8491   16.9733   14.0564 O.2       1 SER1        0.0000 
     56 DU         25.8474   17.6247   13.1496 H         7 CUB7        0.0000 
     57 OD1        24.8456   18.2760   12.2428 O.3       3 ASP3        0.0000 
     58 CA         30.5539   13.0370   17.0614 C.3       6 GLY6        0.0000 
     59 O          29.5521   13.6883   16.1546 O.2       2 ALA2        0.0000 
     60 O          28.5503   14.3397   15.2478 O.2       2 ALA2        0.0000 
     61 CZ         27.5486   14.9910   14.3411 C.ar      5 PHE5        0.0000 
     62 CZ         26.5468   15.6423   13.4343 C.ar      5 PHE5        0.0000 
     63 OG         25.5451   16.2936   12.5275 O.2       1 SER1        0.0000 
     64 O          24.9801   23.3674   15.7513 O.2       2 ALA2        0.0000 
     65 NZ         23.9783   24.0187   14.8445 N.2       4 LYS4        0.0000 
     66 CZ         24.6778   22.0364   15.1292 C.ar      5 PHE5        0.0000 
     67 CA         23.6760   22.6877   14.2224 C.3       6 GLY6        0.0000 
     68 CZ         25.3772   20.0540   15.4139 C.ar      5 PHE5        0.0000 
     69 CA         24.3755   20.7053   14.5071 C.3       6 GLY6        0.0000 
     70 OG         30.0837   15.4664   19.3257 O.2       1 SER1        0.0000 
     71 OG         29.0820   16.1177   18.4190 O.2       1 SER1        0.0000 
     72 OG         25.0749   18.7230   14.7918 O.2       1 SER1        0.0000 
     73 CA         24.0732   19.3743   13.8850 C.3       6 GLY6        0.0000 
     74 CA         29.7814   14.1353   18.7037 C.3       6 GLY6        0.0000 
     75 CA         28.7797   14.7867   17.7969 C.3       6 GLY6        0.0000 
     76 CA         24.7726   17.3920   14.1697 C.3       6 GLY6        0.0000 
     77 N          23.7709   18.0433   13.2630 N.2       2 ALA2        0.0000 
     78 CA         29.4791   12.8043   18.0816 C.3       6 GLY6        0.0000 
     79 CA         28.4774   13.4556   17.1748 C.3       6 GLY6        0.0000 
     80 CA         27.4756   14.1070   16.2680 C.3       6 GLY6        0.0000 
     81 OG         26.4738   14.7583   15.3612 O.2       1 SER1        0.0000 
     82 OG         25.4721   15.4096   14.4545 O.2       1 SER1        0.0000 
     83 CA         24.4703   16.0609   13.5477 C.3       6 GLY6        0.0000 
     84 N          29.1768   11.4733   17.4595 N.2       2 ALA2        0.0000 
     85 N          27.1733   12.7759   15.6459 N.2       2 ALA2        0.0000 
     86 CZ         26.1715   13.4273   14.7392 C.ar      5 PHE5        0.0000 
     87 CZ         25.1698   14.0786   13.8324 C.ar      5 PHE5        0.0000 
     88 CA         24.1680   14.7299   12.9256 C.3       6 GLY6        0.0000 
     89 CA         25.3991   14.5256   16.3814 C.3       6 GLY6        0.0000 
     90 CA         24.3973   15.1769   15.4746 C.3       6 GLY6        0.0000 
     91 OD1        25.0968   13.1946   15.7593 O.3       3 ASP3        0.0000 
     92 OD1        24.0950   13.8459   14.8526 O.3       3 ASP3        0.0000 
     93 CA         23.0933   14.4972   13.9458 C.3       6 GLY6        0.0000 
     94 CZ         23.7927   12.5149   14.2305 C.ar      5 PHE5        0.0000 
     95 O          23.0203   13.6132   15.8727 O.2       2 ALA2        0.0000 
@<TRIPOS>BOND
@<TRIPOS>SUBSTRUCTURE
     1 SER1       37 GROUP   
     2 ALA2        4 GROUP   
     3 ASP3        1 GROUP   
     4 LYS4       15 GROUP   
     5 PHE5       17 GROUP   
     6 GLY6        2 GROUP   
     7 CUB7        5 GROUP   
@<TRIPOS>SET

