#    Name: 1yzq_GNP_1_INTS_M
#    Modification time : Mon Apr  7 16:19:28 2014

@<TRIPOS>MOLECULE
1yzq_GNP_1_INTS_M
   83     0    15     0     0
SMALL
NO_CHARGES


@<TRIPOS>ATOM
      1 N          23.7565   10.3290   11.7850 N.am      2 SEC2        0.0000 
      2 N          23.2500   10.0060   12.8910 N.am     12 SEL2        0.0000 
      3 N          24.2630   10.6520   10.6790 N.am      7 SEP2        0.0000 
      4 Zn         23.9710   10.5665   16.1850 Zn        4 ZIC7        0.0000 
      5 Zn         23.6670   10.2380   15.3920 Zn       14 ZIL7        0.0000 
      6 Zn         24.2750   10.8950   16.9780 Zn        9 ZIP7        0.0000 
      7 N          24.8140    9.2015   15.1625 N.am      2 SEC2        0.0000 
      8 N          23.6670   10.2380   15.3920 N.am     12 SEL2        0.0000 
      9 N          25.9610    8.1650   14.9330 N.am      7 SEP2        0.0000 
     10 NZ         20.4045   11.0090   14.9150 N.4       3 LYC4        0.0000 
     11 NZ         21.3460   10.3030   14.2990 N.4      13 LYL4        0.0000 
     12 NZ         19.4630   11.7150   15.5310 N.4       8 LYP4        0.0000 
     13 N          20.4045   11.0090   14.9150 N.am      2 SEC2        0.0000 
     14 N          21.3460   10.3030   14.2990 N.am     12 SEL2        0.0000 
     15 N          19.4630   11.7150   15.5310 N.am      7 SEP2        0.0000 
     16 N          20.5820    9.1405   14.3490 N.am      2 SEC2        0.0000 
     17 N          19.8180    7.9780   14.3990 N.am      7 SEP2        0.0000 
     18 NZ         20.4635   12.7210   15.4615 N.4       3 LYC4        0.0000 
     19 NZ         21.4640   13.7270   15.3920 N.4      13 LYL4        0.0000 
     20 N          21.4360   15.2195   15.3150 N.am      2 SEC2        0.0000 
     21 N          21.4640   13.7270   15.3920 N.am     12 SEL2        0.0000 
     22 N          21.4080   16.7120   15.2380 N.am      7 SEP2        0.0000 
     23 N          21.4660   14.6030   16.5835 N.am      2 SEC2        0.0000 
     24 N          21.4680   15.4790   17.7750 N.am      7 SEP2        0.0000 
     25 N          20.4635   12.7210   15.4615 N.am      2 SEC2        0.0000 
     26 Zn         23.9195   11.8125   16.6965 Zn        4 ZIC7        0.0000 
     27 Zn         23.5640   12.7300   16.4150 Zn       14 ZIL7        0.0000 
     28 N          23.5690   13.3890   17.7905 N.am      2 SEC2        0.0000 
     29 N          23.5640   12.7300   16.4150 N.am     12 SEL2        0.0000 
     30 N          23.5740   14.0480   19.1660 N.am      7 SEP2        0.0000 
     31 N          22.5125   15.6205   15.0110 N.am      2 SEC2        0.0000 
     32 N          23.6170   14.5290   14.7840 N.am     12 SEL2        0.0000 
     33 N          25.3280   15.8190   17.8625 N.am      2 SEC2        0.0000 
     34 N          25.1940   15.5250   16.4610 N.am     12 SEL2        0.0000 
     35 N          25.4620   16.1130   19.2640 N.am      7 SEP2        0.0000 
     36 N          25.9660   16.5875   16.8080 N.am      2 SEC2        0.0000 
     37 N          26.7380   17.6500   17.1550 N.am      7 SEP2        0.0000 
     38 CA         23.5790   15.3810   12.1410 C.3       5 GLC5        0.0000 
     39 CA         25.0770   16.1170   12.7660 C.3      15 GLL5        0.0000 
     40 CA         22.0810   14.6450   11.5160 C.3      10 GLP5        0.0000 
     41 N          23.8700   19.0990   11.7680 N.am      2 SEC2        0.0000 
     42 N          25.1800   18.4920   12.3520 N.am     12 SEL2        0.0000 
     43 N          22.5600   19.7060   11.1840 N.am      7 SEP2        0.0000 
     44 CA         27.9110   15.8915   11.3630 C.3       5 GLC5        0.0000 
     45 CA         27.2900   17.3620   12.4200 C.3      15 GLL5        0.0000 
     46 CA         28.5320   14.4210   10.3060 C.3      10 GLP5        0.0000 
     47 O          29.3985   18.2415   11.2320 O.2       1 ALC1        0.0000 
     48 O          28.0810   17.6680   11.2610 O.2      11 ALL1        0.0000 
     49 O          30.7160   18.8150   11.2030 O.2       6 ALP1        0.0000 
     50 O          29.6165   18.9965   14.2285 O.2       1 ALC1        0.0000 
     51 O          28.5250   19.2180   13.3900 O.2      11 ALL1        0.0000 
     52 O          30.7080   18.7750   15.0670 O.2       6 ALP1        0.0000 
     53 O          28.8705   17.9205   14.4450 O.2       1 ALC1        0.0000 
     54 O          29.2160   16.6230   15.5000 O.2       6 ALP1        0.0000 
     55 CA         24.0600   19.8400   12.6895 C.3       5 GLC5        0.0000 
     56 CA         26.1220   19.3680   12.9400 C.3      15 GLL5        0.0000 
     57 CA         21.9980   20.3120   12.4390 C.3      10 GLP5        0.0000 
     58 N          22.7735   20.6035   16.3660 N.am      2 SEC2        0.0000 
     59 N          24.2920   20.5020   15.9050 N.am     12 SEL2        0.0000 
     60 N          21.2550   20.7050   16.8270 N.am      7 SEP2        0.0000 
     61 CA         22.8630   22.0485   14.3920 C.3       5 GLC5        0.0000 
     62 CA         24.4700   21.6910   15.1970 C.3      15 GLL5        0.0000 
     63 CA         21.2560   22.4060   13.5870 C.3      10 GLP5        0.0000 
     64 CA         24.5415   21.5695   17.2790 C.3       5 GLC5        0.0000 
     65 CA         24.6130   21.4480   19.3610 C.3      10 GLP5        0.0000 
     66 N          24.7420   23.7980   17.3685 N.am      2 SEC2        0.0000 
     67 N          23.4480   23.4480   16.4820 N.am     12 SEL2        0.0000 
     68 N          26.0360   24.1480   18.2550 N.am      7 SEP2        0.0000 
     69 O          24.8095   25.5490   13.9740 O.2       1 ALC1        0.0000 
     70 O          24.4460   23.9270   14.5020 O.2      11 ALL1        0.0000 
     71 O          25.1730   27.1710   13.4460 O.2       6 ALP1        0.0000 
     72 O          24.0590   25.2220   14.7135 O.2       1 ALC1        0.0000 
     73 O          23.6720   26.5170   14.9250 O.2       6 ALP1        0.0000 
     74 O          25.2875   25.8915   12.9830 O.2       1 ALC1        0.0000 
     75 O          25.4020   24.6120   12.5200 O.2      11 ALL1        0.0000 
     76 CA         23.5765   20.8830   13.2275 C.3       5 GLC5        0.0000 
     77 CA         25.1550   21.4540   14.0160 C.3      15 GLL5        0.0000 
     78 CA         26.1133   14.9112   12.0285 C.3       5 GLC5        0.0000 
     79 CA         25.8160   17.2260   12.0440 C.3      15 GLL5        0.0000 
     80 CA         26.7800   13.1510   11.6520 C.3      10 GLP5        0.0000 
     81 CA         27.5990   20.3947   14.2192 C.3       5 GLC5        0.0000 
     82 CA         27.2980   18.5150   13.4250 C.3      15 GLL5        0.0000 
     83 CA         28.4880   21.8480   15.2560 C.3      10 GLP5        0.0000 
@<TRIPOS>BOND
@<TRIPOS>SUBSTRUCTURE
     1 ALC1       47 GROUP        1 X    ALC  0     ROOT ALC X 1
     2 SEC2        1 GROUP        1 X    SEC  0     **** SEC X 2
     3 LYC4       10 GROUP        1 X    LYC  0     **** LYC X 4
     4 ZIC7        4 GROUP        1 X    ZIC  0     **** ZIC X 5
     5 GLC5       38 GROUP        1 X    GLC  0     **** GLC X 6
     6 ALP1       49 GROUP        1 Y    ALP  0     ROOT ALP Y 8
     7 SEP2        3 GROUP        1 Y    SEP  0     **** SEP Y 9
     8 LYP4       12 GROUP        1 Y    LYP  0     **** LYP Y 11
     9 ZIP7        6 GROUP        1 Y    ZIP  0     **** ZIP Y 12
    10 GLP5       40 GROUP        1 Y    GLP  0     **** GLP Y 13
    11 ALL1       48 GROUP        1 Z    ALL  0     ROOT ALL Z 15
    12 SEL2        2 GROUP        1 Z    SEL  0     **** SEL Z 16
    13 LYL4       11 GROUP        1 Z    LYL  0     **** LYL Z 18
    14 ZIL7        5 GROUP        1 Z    ZIL  0     **** ZIL Z 19
    15 GLL5       39 GROUP        1 Z    GLL  0     **** GLL Z 20
@<TRIPOS>SET

