#    Name: 1yzq_GNP_1_ligand
#    Modification time : Mon Apr  7 16:19:28 2014

@<TRIPOS>MOLECULE
1yzq_GNP_1_ligand
   44    46     1     0     0
SMALL
NO_CHARGES


@<TRIPOS>ATOM
      1 PG         22.8160   10.6040   14.2100 P.3       1 GNP900      0.0000 
      2 O1G        23.2500   10.0060   12.8910 O.co2     1 GNP900      0.0000 
      3 O2G        23.6670   10.2380   15.3920 O.co2     1 GNP900      0.0000 
      4 O3G        21.3460   10.3030   14.2990 O.co2     1 GNP900      0.0000 
      5 N3B        22.9320   12.1910   14.0590 N.4       1 GNP900      0.0000 
      6 PB         22.8670   13.2660   15.2390 P.3       1 GNP900      0.0000 
      7 O1B        21.4640   13.7270   15.3920 O.co2     1 GNP900      0.0000 
      8 O2B        23.5640   12.7300   16.4150 O.co2     1 GNP900      0.0000 
      9 O3A        23.6170   14.5290   14.7840 O.3       1 GNP900      0.0000 
     10 PA         25.0640   14.9920   15.0890 P.3       1 GNP900      0.0000 
     11 O1A        25.1940   15.5250   16.4610 O.co2     1 GNP900      0.0000 
     12 O2A        26.0510   13.9310   14.7460 O.co2     1 GNP900      0.0000 
     13 O5'        25.2910   16.2380   14.1740 O.3       1 GNP900      0.0000 
     14 C5'        25.0770   16.1170   12.7660 C.3       1 GNP900      0.0000 
     15 C4'        25.8160   17.2260   12.0440 C.3       1 GNP900      0.0000 
     16 O4'        25.1800   18.4920   12.3520 O.3       1 GNP900      0.0000 
     17 C3'        27.2900   17.3620   12.4200 C.3       1 GNP900      0.0000 
     18 O3'        28.0810   17.6680   11.2610 O.3       1 GNP900      0.0000 
     19 C2'        27.2980   18.5150   13.4250 C.3       1 GNP900      0.0000 
     20 O2'        28.5250   19.2180   13.3900 O.3       1 GNP900      0.0000 
     21 C1'        26.1220   19.3680   12.9400 C.3       1 GNP900      0.0000 
     22 N9         25.4130   20.1000   13.9960 N.pl3     1 GNP900      0.0000 
     23 C8         24.8640   19.5940   15.1570 C.2       1 GNP900      0.0000 
     24 N7         24.2920   20.5020   15.9050 N.2       1 GNP900      0.0000 
     25 C5         24.4700   21.6910   15.1970 C.2       1 GNP900      0.0000 
     26 C6         24.0760   23.0210   15.5020 C.2       1 GNP900      0.0000 
     27 O6         23.4480   23.4480   16.4820 O.2       1 GNP900      0.0000 
     28 N1         24.4460   23.9270   14.5020 N.am      1 GNP900      0.0000 
     29 C2         25.1290   23.5940   13.3520 C.2       1 GNP900      0.0000 
     30 N2         25.4020   24.6120   12.5200 N.pl3     1 GNP900      0.0000 
     31 N3         25.5170   22.3540   13.0540 N.2       1 GNP900      0.0000 
     32 C4         25.1550   21.4540   14.0160 C.2       1 GNP900      0.0000 
     33 H          24.0135   16.1948   12.5116 H         1 GNP900      0.0000 
     34 H          25.4445   15.1577   12.3833 H         1 GNP900      0.0000 
     35 H          25.7551   17.0523   10.9729 H         1 GNP900      0.0000 
     36 H          27.5887   16.4789   12.9200 H         1 GNP900      0.0000 
     37 H          27.0419   18.1163   14.3747 H         1 GNP900      0.0000 
     38 H          26.4920   20.0591   12.1939 H         1 GNP900      0.0000 
     39 H          24.9184   18.6172   15.3723 H         1 GNP900      0.0000 
     40 H          24.1768   24.9450   14.6475 H         1 GNP900      0.0000 
     41 H          25.0446   25.5068   12.7874 H         1 GNP900      0.0000 
     42 H          25.9384   24.3843   11.7073 H         1 GNP900      0.0000 
     43 H          28.6629   18.4321   11.5393 H         1 GNP900      0.0000 
     44 H          29.0942   18.7797   14.0856 H         1 GNP900      0.0000 
@<TRIPOS>BOND
     1    2    1 ar   
     2    3    1 ar   
     3    4    1 ar   
     4    5    1 1    
     5    6    5 1    
     6    7    6 ar   
     7    8    6 ar   
     8    9    6 1    
     9   10    9 1    
    10   11   10 ar   
    11   12   10 ar   
    12   13   10 1    
    13   14   13 1    
    14   15   14 1    
    15   33   14 1    
    16   34   14 1    
    17   16   15 1    
    18   17   15 1    
    19   35   15 1    
    20   21   16 1    
    21   18   17 1    
    22   19   17 1    
    23   36   17 1    
    24   43   18 1    
    25   20   19 1    
    26   21   19 1    
    27   37   19 1    
    28   44   20 1    
    29   22   21 1    
    30   38   21 1    
    31   23   22 1    
    32   32   22 1    
    33   24   23 2    
    34   39   23 1    
    35   25   24 1    
    36   26   25 1    
    37   32   25 2    
    38   27   26 2    
    39   28   26 am   
    40   29   28 1    
    41   40   28 1    
    42   30   29 1    
    43   31   29 2    
    44   41   30 1    
    45   42   30 1    
    46   32   31 1    
@<TRIPOS>SUBSTRUCTURE
     1 GNP900      1 GROUP   
@<TRIPOS>SET

