#    Name: 3mkh_FAD_2_INTS_M
#    Modification time : Mon Mar 24 23:19:55 2014

@<TRIPOS>MOLECULE
3mkh_FAD_2_INTS_M
  141     0    12     0     0
SMALL
NO_CHARGES


@<TRIPOS>ATOM
      1 N          57.0665   24.7470   52.1700 N.am      2 SEC2        0.0000 
      2 N          57.5030   24.7120   53.6570 N.am     10 SEL2        0.0000 
      3 N          56.6300   24.7820   50.6830 N.am      6 SEP2        0.0000 
      4 N          57.3160   23.5615   52.8090 N.am      2 SEC2        0.0000 
      5 N          57.1290   22.4110   51.9610 N.am      6 SEP2        0.0000 
      6 NZ         57.6500   27.8310   54.1360 N.4       3 LYC4        0.0000 
      7 NZ         58.6980   26.8280   54.3110 N.4      11 LYL4        0.0000 
      8 NZ         55.4130   29.0650   54.5030 N.4       7 LYP4        0.0000 
      9 N          57.6500   27.8310   54.1360 N.am      2 SEC2        0.0000 
     10 N          58.6980   26.8280   54.3110 N.am     10 SEL2        0.0000 
     11 N          56.6020   28.8340   53.9610 N.am      6 SEP2        0.0000 
     12 CA         60.1805   22.1235   60.8705 C.3       4 GLC5        0.0000 
     13 CA         59.1140   23.1260   59.5940 C.3      12 GLL5        0.0000 
     14 CA         61.2470   21.1210   62.1470 C.3       8 GLP5        0.0000 
     15 O          59.2845   24.8445   61.2195 O.2       1 ALC1        0.0000 
     16 O          59.4560   23.5220   60.9170 O.2       9 ALL1        0.0000 
     17 O          59.1130   26.1670   61.5220 O.2       5 ALP1        0.0000 
     18 CA         55.8935   23.6525   59.6785 C.3       4 GLC5        0.0000 
     19 CA         57.6110   23.3280   59.3930 C.3      12 GLL5        0.0000 
     20 CA         54.1760   23.9770   59.9640 C.3       8 GLP5        0.0000 
     21 CA         57.1320   24.2315   61.3600 C.3       4 GLC5        0.0000 
     22 CA         56.6530   25.1350   63.3270 C.3       8 GLP5        0.0000 
     23 N          54.7685   20.9930   56.1480 N.am      2 SEC2        0.0000 
     24 N          55.9640   21.0320   57.1240 N.am     10 SEL2        0.0000 
     25 N          53.5730   20.9540   55.1720 N.am      6 SEP2        0.0000 
     26 CA         57.0080   20.9100   56.1355 C.3       4 GLC5        0.0000 
     27 CA         56.4080   20.1650   58.0240 C.3      12 GLL5        0.0000 
     28 CA         57.6080   21.6550   54.2470 C.3       8 GLP5        0.0000 
     29 O          54.9360   18.4135   56.1140 O.2       1 ALC1        0.0000 
     30 O          55.6900   18.0290   57.2540 O.2       9 ALL1        0.0000 
     31 O          54.1820   18.7980   54.9740 O.2       5 ALP1        0.0000 
     32 N          56.9875   16.8245   59.8800 N.am      2 SEC2        0.0000 
     33 N          56.8990   18.2060   59.2150 N.am     10 SEL2        0.0000 
     34 N          57.0760   15.4430   60.5450 N.am      6 SEP2        0.0000 
     35 CA         56.0415   19.1770   61.0785 C.3       4 GLC5        0.0000 
     36 CA         57.5310   18.9330   60.1200 C.3      12 GLL5        0.0000 
     37 CA         54.5520   19.4210   62.0370 C.3       8 GLP5        0.0000 
     38 CA         58.3960   18.7300   61.7640 C.3       4 GLC5        0.0000 
     39 CA         59.2610   18.5270   63.4080 C.3       8 GLP5        0.0000 
     40 CA         58.9990   19.5330   58.9260 C.3       4 GLC5        0.0000 
     41 CA         60.4670   20.1330   57.7320 C.3       8 GLP5        0.0000 
     42 CA         55.6285   22.4345   59.4755 C.3       4 GLC5        0.0000 
     43 CA         57.0810   20.8920   58.9870 C.3      12 GLL5        0.0000 
     44 CA         55.4290   20.4075   59.9105 C.3       4 GLC5        0.0000 
     45 CA         53.7770   19.9230   60.8340 C.3       8 GLP5        0.0000 
     46 N          63.3055   27.2260   47.3115 N.am      2 SEC2        0.0000 
     47 N          64.5640   27.6380   46.7590 N.am     10 SEL2        0.0000 
     48 N          62.0470   26.8140   47.8640 N.am      6 SEP2        0.0000 
     49 N          62.8030   26.3610   43.8230 N.am      2 SEC2        0.0000 
     50 N          63.6880   26.6200   44.9430 N.am     10 SEL2        0.0000 
     51 N          61.9180   26.1020   42.7030 N.am      6 SEP2        0.0000 
     52 N          62.2540   26.5515   45.1670 N.am      2 SEC2        0.0000 
     53 N          60.8200   26.4830   45.3910 N.am      6 SEP2        0.0000 
     54 N          62.8675   26.7170   46.4035 N.am      2 SEC2        0.0000 
     55 O          65.4990   27.0920   43.4525 O.2       1 ALC1        0.0000 
     56 O          65.8390   27.3290   44.7290 O.2       9 ALL1        0.0000 
     57 O          65.1590   26.8550   42.1760 O.2       5 ALP1        0.0000 
     58 N          67.4260   29.6825   44.2960 N.am      2 SEC2        0.0000 
     59 N          67.9730   28.1030   44.6750 N.am     10 SEL2        0.0000 
     60 N          66.8790   31.2620   43.9170 N.am      6 SEP2        0.0000 
     61 N          68.4665   28.1305   43.3615 N.am      2 SEC2        0.0000 
     62 N          68.9600   28.1580   42.0480 N.am      6 SEP2        0.0000 
     63 N          68.4475   30.2850   46.5325 N.am      2 SEC2        0.0000 
     64 N          67.9280   29.0620   47.2230 N.am     10 SEL2        0.0000 
     65 N          68.9670   31.5080   45.8420 N.am      6 SEP2        0.0000 
     66 CA         70.8090   31.2290   48.7850 C.3       4 GLC5        0.0000 
     67 CA         68.6630   30.7530   48.7780 C.3      12 GLL5        0.0000 
     68 CA         72.9550   31.7050   48.7920 C.3       8 GLP5        0.0000 
     69 CA         68.9720   31.1755   46.6085 C.3       4 GLC5        0.0000 
     70 CA         69.2810   31.5980   44.4390 C.3       8 GLP5        0.0000 
     71 CA         71.2225   32.1180   49.5810 C.3       4 GLC5        0.0000 
     72 CA         69.4900   32.5310   50.3700 C.3      12 GLL5        0.0000 
     73 CA         70.1125   33.7235   48.6525 C.3       4 GLC5        0.0000 
     74 CA         70.7350   34.9160   46.9350 C.3       8 GLP5        0.0000 
     75 CA         69.3305   31.9135   52.5015 C.3       4 GLC5        0.0000 
     76 CA         69.1710   31.2960   54.6330 C.3       8 GLP5        0.0000 
     77 CA         69.8635   30.6670   50.9320 C.3       4 GLC5        0.0000 
     78 CA         70.2370   28.8030   51.4940 C.3       8 GLP5        0.0000 
     79 CA         67.5335   33.4145   53.1850 C.3       4 GLC5        0.0000 
     80 CA         67.0200   32.2090   51.8780 C.3      12 GLL5        0.0000 
     81 CA         68.0470   34.6200   54.4920 C.3       8 GLP5        0.0000 
     82 CA         65.6195   32.7810   51.2360 C.3       4 GLC5        0.0000 
     83 CA         64.2190   33.3530   50.5940 C.3       8 GLP5        0.0000 
     84 CA         62.7335   27.9690   48.5475 C.3       4 GLC5        0.0000 
     85 CA         64.5020   28.2710   49.5450 C.3      12 GLL5        0.0000 
     86 CA         60.9650   27.6670   47.5500 C.3       8 GLP5        0.0000 
     87 CA         63.8145   29.6950   48.9705 C.3       4 GLC5        0.0000 
     88 CA         63.1270   31.1190   48.3960 C.3       8 GLP5        0.0000 
     89 CA         66.6265   25.6640   50.5710 C.3       4 GLC5        0.0000 
     90 CA         65.0280   27.2040   50.5060 C.3      12 GLL5        0.0000 
     91 CA         68.2250   24.1240   50.6360 C.3       8 GLP5        0.0000 
     92 CA         63.4725   28.0775   52.7120 C.3       4 GLC5        0.0000 
     93 CA         63.9650   26.7320   51.5190 C.3      12 GLL5        0.0000 
     94 CA         62.9800   29.4230   53.9050 C.3       8 GLP5        0.0000 
     95 N          65.3660   24.4400   51.9835 N.am      2 SEC2        0.0000 
     96 N          64.5340   25.7330   52.3620 N.am     10 SEL2        0.0000 
     97 N          66.1980   23.1470   51.6050 N.am      6 SEP2        0.0000 
     98 O          64.9690   26.0105   53.6180 O.2       1 ALC1        0.0000 
     99 O          64.5340   25.7330   52.3620 O.2       9 ALL1        0.0000 
    100 O          65.4040   26.2880   54.8740 O.2       5 ALP1        0.0000 
    101 CA         61.8350   26.9115   49.2095 C.3       4 GLC5        0.0000 
    102 CA         62.7050   26.1560   50.8690 C.3      12 GLL5        0.0000 
    103 O          61.9475   27.0115   49.1620 O.2       1 ALC1        0.0000 
    104 O          61.8480   27.2090   50.4600 O.2       9 ALL1        0.0000 
    105 O          62.0470   26.8140   47.8640 O.2       5 ALP1        0.0000 
    106 CA         60.4360   24.6680   50.4440 C.3       4 GLC5        0.0000 
    107 CA         61.9480   25.2960   51.8790 C.3      12 GLL5        0.0000 
    108 CA         58.9240   24.0400   49.0090 C.3       8 GLP5        0.0000 
    109 CA         61.7610   23.1870   52.0800 C.3       4 GLC5        0.0000 
    110 CA         61.5740   21.0780   52.2810 C.3       8 GLP5        0.0000 
    111 N          63.5630   23.5245   54.5815 N.am      2 SEC2        0.0000 
    112 N          62.2900   24.1060   54.6290 N.am     10 SEL2        0.0000 
    113 N          64.8360   22.9430   54.5340 N.am      6 SEP2        0.0000 
    114 N          61.7760   27.5635   55.8770 N.am      2 SEC2        0.0000 
    115 N          61.2040   26.2300   55.5180 N.am     10 SEL2        0.0000 
    116 N          62.3480   28.8970   56.2360 N.am      6 SEP2        0.0000 
    117 CA         57.2265   26.3487   56.9150 C.3       4 GLC5        0.0000 
    118 CA         58.7670   25.8430   57.0450 C.3      12 GLL5        0.0000 
    119 CA         55.7020   27.1790   56.0840 C.3       8 GLP5        0.0000 
    120 CA         60.5175   26.3271   58.2482 C.3       4 GLC5        0.0000 
    121 CA         61.7830   27.8630   58.3390 C.3       8 GLP5        0.0000 
    122 CA         59.9502   21.8640   58.4068 C.3       4 GLC5        0.0000 
    123 CA         59.7530   24.0640   58.5690 C.3      12 GLL5        0.0000 
    124 CA         54.8830   19.1195   59.0098 C.3       4 GLC5        0.0000 
    125 CA         53.4000   18.7660   59.9300 C.3       8 GLP5        0.0000 
    126 CA         58.5953   20.1578   58.1351 C.3       4 GLC5        0.0000 
    127 CA         68.1577   31.5412   52.9435 C.3       4 GLC5        0.0000 
    128 CA         67.7925   29.8974   51.8561 C.3       4 GLC5        0.0000 
    129 CA         68.1470   27.9690   52.6380 C.3       8 GLP5        0.0000 
    130 CA         66.0579   30.5946   52.1248 C.3       4 GLC5        0.0000 
    131 CA         67.2690   31.3640   50.6300 C.3      12 GLL5        0.0000 
    132 CA         65.3870   30.0740   53.5150 C.3       8 GLP5        0.0000 
    133 CA         64.7750   30.5892   49.0220 C.3       4 GLC5        0.0000 
    134 CA         66.3130   30.4440   50.2150 C.3      12 GLL5        0.0000 
    135 CA         67.2850   29.0143   51.1430 C.3       4 GLC5        0.0000 
    136 CA         64.3555   29.0057   51.5563 C.3       4 GLC5        0.0000 
    137 CA         63.9460   30.2740   53.0870 C.3       8 GLP5        0.0000 
    138 CA         65.9932   26.8370   52.1347 C.3       4 GLC5        0.0000 
    139 CA         67.4900   26.7060   53.2570 C.3       8 GLP5        0.0000 
    140 CA         61.9472   27.5825   52.3620 C.3       4 GLC5        0.0000 
    141 CA         61.5680   29.4390   53.3500 C.3       8 GLP5        0.0000 
@<TRIPOS>BOND
@<TRIPOS>SUBSTRUCTURE
     1 ALC1       15 GROUP        1 X    ALC  0     ROOT ALC X 1
     2 SEC2        1 GROUP        1 X    SEC  0     **** SEC X 2
     3 LYC4        6 GROUP        1 X    LYC  0     **** LYC X 4
     4 GLC5       12 GROUP        1 X    GLC  0     **** GLC X 6
     5 ALP1       17 GROUP        1 Y    ALP  0     ROOT ALP Y 8
     6 SEP2        3 GROUP        1 Y    SEP  0     **** SEP Y 9
     7 LYP4        8 GROUP        1 Y    LYP  0     **** LYP Y 11
     8 GLP5       14 GROUP        1 Y    GLP  0     **** GLP Y 13
     9 ALL1       16 GROUP        1 Z    ALL  0     ROOT ALL Z 15
    10 SEL2        2 GROUP        1 Z    SEL  0     **** SEL Z 16
    11 LYL4        7 GROUP        1 Z    LYL  0     **** LYL Z 18
    12 GLL5       13 GROUP        1 Z    GLL  0     **** GLL Z 20
@<TRIPOS>SET

