#    Name: 3mkh_FAD_2_ligand
#    Modification time : Mon Mar 24 23:19:55 2014

@<TRIPOS>MOLECULE
3mkh_FAD_2_ligand
   84    89     1     0     0
SMALL
NO_CHARGES


@<TRIPOS>ATOM
      1 PA         58.5530   25.3740   54.4270 P.3       1 FAD500      0.0000 
      2 O1A        57.5030   24.7120   53.6570 O.co2     1 FAD500      0.0000 
      3 O2A        58.6980   26.8280   54.3110 O.co2     1 FAD500      0.0000 
      4 O5B        58.3730   24.9530   55.9880 O.3       1 FAD500      0.0000 
      5 C5B        58.7670   25.8430   57.0450 C.3       1 FAD500      0.0000 
      6 C4B        58.7350   25.1940   58.4470 C.3       1 FAD500      0.0000 
      7 O4B        57.4420   24.5890   58.6660 O.3       1 FAD500      0.0000 
      8 C3B        59.7530   24.0640   58.5690 C.3       1 FAD500      0.0000 
      9 O3B        60.9940   24.5720   59.0660 O.3       1 FAD500      0.0000 
     10 C2B        59.1140   23.1260   59.5940 C.3       1 FAD500      0.0000 
     11 O2B        59.4560   23.5220   60.9170 O.3       1 FAD500      0.0000 
     12 C1B        57.6110   23.3280   59.3930 C.3       1 FAD500      0.0000 
     13 N9A        57.0230   22.1740   58.6390 N.pl3     1 FAD500      0.0000 
     14 C8A        56.3360   22.2510   57.5030 C.2       1 FAD500      0.0000 
     15 N7A        55.9640   21.0320   57.1240 N.2       1 FAD500      0.0000 
     16 C5A        56.4080   20.1650   58.0240 C.ar      1 FAD500      0.0000 
     17 C6A        56.3240   18.7810   58.1550 C.ar      1 FAD500      0.0000 
     18 N6A        55.6900   18.0290   57.2540 N.pl3     1 FAD500      0.0000 
     19 N1A        56.8990   18.2060   59.2150 N.ar      1 FAD500      0.0000 
     20 C2A        57.5310   18.9330   60.1200 C.ar      1 FAD500      0.0000 
     21 N3A        57.6290   20.2490   60.0230 N.ar      1 FAD500      0.0000 
     22 C4A        57.0810   20.8920   58.9870 C.ar      1 FAD500      0.0000 
     23 N1         64.5640   27.6380   46.7590 N.2       1 FAD500      0.0000 
     24 C2         64.6550   27.1700   45.4520 C.2       1 FAD500      0.0000 
     25 O2         63.6880   26.6200   44.9430 O.2       1 FAD500      0.0000 
     26 N3         65.8390   27.3290   44.7290 N.am      1 FAD500      0.0000 
     27 C4         66.9340   27.9610   45.3140 C.2       1 FAD500      0.0000 
     28 O4         67.9730   28.1030   44.6750 O.2       1 FAD500      0.0000 
     29 C4X        66.8410   28.4270   46.6190 C.2       1 FAD500      0.0000 
     30 N5         67.9280   29.0620   47.2230 N.2       1 FAD500      0.0000 
     31 C5X        67.7080   29.8350   48.3640 C.ar      1 FAD500      0.0000 
     32 C6         68.6630   30.7530   48.7780 C.ar      1 FAD500      0.0000 
     33 C7         68.4430   31.5210   49.9110 C.ar      1 FAD500      0.0000 
     34 C7M        69.4900   32.5310   50.3700 C.3       1 FAD500      0.0000 
     35 C8         67.2690   31.3640   50.6300 C.ar      1 FAD500      0.0000 
     36 C8M        67.0200   32.2090   51.8780 C.3       1 FAD500      0.0000 
     37 C9         66.3130   30.4440   50.2150 C.ar      1 FAD500      0.0000 
     38 C9A        66.5330   29.6750   49.0810 C.ar      1 FAD500      0.0000 
     39 N10        65.5810   28.7450   48.6460 N.pl3     1 FAD500      0.0000 
     40 C10        65.6610   28.2670   47.3380 C.2       1 FAD500      0.0000 
     41 C1'        64.5020   28.2710   49.5450 C.3       1 FAD500      0.0000 
     42 C2'        65.0280   27.2040   50.5060 C.3       1 FAD500      0.0000 
     43 O2'        65.5320   26.1000   49.7610 O.3       1 FAD500      0.0000 
     44 C3'        63.9650   26.7320   51.5190 C.3       1 FAD500      0.0000 
     45 O3'        64.5340   25.7330   52.3620 O.3       1 FAD500      0.0000 
     46 C4'        62.7050   26.1560   50.8690 C.3       1 FAD500      0.0000 
     47 O4'        61.8480   27.2090   50.4600 O.3       1 FAD500      0.0000 
     48 C5'        61.9480   25.2960   51.8790 C.3       1 FAD500      0.0000 
     49 O5'        61.7590   26.0070   53.1060 O.3       1 FAD500      0.0000 
     50 P          61.3600   25.2380   54.4480 P.3       1 FAD500      0.0000 
     51 O1P        62.2900   24.1060   54.6290 O.co2     1 FAD500      0.0000 
     52 O2P        61.2040   26.2300   55.5180 O.co2     1 FAD500      0.0000 
     53 O3P        59.9230   24.6630   54.0530 O.3       1 FAD500      0.0000 
     54 H          58.1113   26.7378   57.0853 H         1 FAD500      0.0000 
     55 H          59.7965   26.2269   56.8873 H         1 FAD500      0.0000 
     56 H          58.9429   25.9312   59.1829 H         1 FAD500      0.0000 
     57 H          59.8232   23.5671   57.6500 H         1 FAD500      0.0000 
     58 H          59.3570   22.1370   59.3584 H         1 FAD500      0.0000 
     59 H          57.1572   23.4000   60.3664 H         1 FAD500      0.0000 
     60 H          56.1347   23.0798   57.0191 H         1 FAD500      0.0000 
     61 H          55.2601   18.5193   56.4959 H         1 FAD500      0.0000 
     62 H          55.7016   17.0426   57.4177 H         1 FAD500      0.0000 
     63 H          57.9764   18.4440   60.9553 H         1 FAD500      0.0000 
     64 H          65.9012   26.9792   43.7652 H         1 FAD500      0.0000 
     65 H          69.5358   30.8633   48.2425 H         1 FAD500      0.0000 
     66 H          65.4406   30.3338   50.7506 H         1 FAD500      0.0000 
     67 H          63.6829   27.8402   48.9628 H         1 FAD500      0.0000 
     68 H          64.1039   29.1021   50.1335 H         1 FAD500      0.0000 
     69 H          65.8435   27.6633   51.0857 H         1 FAD500      0.0000 
     70 H          63.6692   27.5955   52.1158 H         1 FAD500      0.0000 
     71 H          62.9952   25.5343   50.0477 H         1 FAD500      0.0000 
     72 H          62.5251   24.3724   52.0311 H         1 FAD500      0.0000 
     73 H          60.9882   25.0120   51.4238 H         1 FAD500      0.0000 
     74 H          70.3640   32.0916   50.5776 H         1 FAD500      0.0000 
     75 H          69.6689   33.2239   49.6715 H         1 FAD500      0.0000 
     76 H          69.2018   33.0152   51.1962 H         1 FAD500      0.0000 
     77 H          67.7202   32.0567   52.5755 H         1 FAD500      0.0000 
     78 H          67.0210   33.1872   51.6704 H         1 FAD500      0.0000 
     79 H          66.1372   31.9994   52.2983 H         1 FAD500      0.0000 
     80 H          61.0340   24.2705   60.0186 H         1 FAD500      0.0000 
     81 H          58.8574   24.2975   61.1178 H         1 FAD500      0.0000 
     82 H          65.5759   25.3449   50.4152 H         1 FAD500      0.0000 
     83 H          64.7622   26.2100   53.2107 H         1 FAD500      0.0000 
     84 H          62.1001   27.3936   49.5101 H         1 FAD500      0.0000 
@<TRIPOS>BOND
     1    2    1 ar   
     2    3    1 ar   
     3    4    1 1    
     4   53    1 1    
     5    5    4 1    
     6    6    5 1    
     7   54    5 1    
     8   55    5 1    
     9    7    6 1    
    10    8    6 1    
    11   56    6 1    
    12   12    7 1    
    13    9    8 1    
    14   10    8 1    
    15   57    8 1    
    16   80    9 1    
    17   11   10 1    
    18   12   10 1    
    19   58   10 1    
    20   81   11 1    
    21   13   12 1    
    22   59   12 1    
    23   14   13 1    
    24   22   13 1    
    25   15   14 2    
    26   60   14 1    
    27   16   15 1    
    28   17   16 ar   
    29   22   16 ar   
    30   18   17 1    
    31   19   17 ar   
    32   61   18 1    
    33   62   18 1    
    34   20   19 ar   
    35   21   20 ar   
    36   63   20 1    
    37   22   21 ar   
    38   24   23 1    
    39   40   23 2    
    40   25   24 2    
    41   26   24 am   
    42   27   26 am   
    43   64   26 1    
    44   28   27 2    
    45   29   27 1    
    46   30   29 2    
    47   40   29 1    
    48   31   30 1    
    49   32   31 ar   
    50   38   31 ar   
    51   33   32 ar   
    52   65   32 1    
    53   34   33 1    
    54   35   33 ar   
    55   74   34 1    
    56   75   34 1    
    57   76   34 1    
    58   36   35 1    
    59   37   35 ar   
    60   77   36 1    
    61   78   36 1    
    62   79   36 1    
    63   38   37 ar   
    64   66   37 1    
    65   39   38 1    
    66   40   39 1    
    67   41   39 1    
    68   42   41 1    
    69   67   41 1    
    70   68   41 1    
    71   43   42 1    
    72   44   42 1    
    73   69   42 1    
    74   82   43 1    
    75   45   44 1    
    76   46   44 1    
    77   70   44 1    
    78   83   45 1    
    79   47   46 1    
    80   48   46 1    
    81   71   46 1    
    82   84   47 1    
    83   49   48 1    
    84   72   48 1    
    85   73   48 1    
    86   50   49 1    
    87   51   50 ar   
    88   52   50 ar   
    89   53   50 1    
@<TRIPOS>SUBSTRUCTURE
     1 FAD500      1 GROUP   
@<TRIPOS>SET

