#    Name: 1u2r_SO1_1_INTS_M
#    Modification time : Tue Mar 25 06:04:03 2014

@<TRIPOS>MOLECULE
1u2r_SO1_1_INTS_M
   80     0     6     0     0
SMALL
NO_CHARGES


@<TRIPOS>ATOM
      1 N          74.1225   58.1135   18.6550 N.am      1 SEC2        0.0000 
      2 N          73.3700   56.6840   18.3690 N.am      5 SEL2        0.0000 
      3 N          74.8750   59.5430   18.9410 N.am      3 SEP2        0.0000 
      4 N          75.2150   58.3100   18.5635 N.am      1 SEC2        0.0000 
      5 N          75.5550   57.0770   18.1860 N.am      5 SEL2        0.0000 
      6 CA         74.6845   51.0605   16.5050 C.3       2 GLC5        0.0000 
      7 CA         75.3050   52.8270   17.0330 C.3       6 GLL5        0.0000 
      8 CA         74.0640   49.2940   15.9770 C.3       4 GLP5        0.0000 
      9 CA         76.7460   51.6925   16.7635 C.3       2 GLC5        0.0000 
     10 CA         78.1870   50.5580   16.4940 C.3       4 GLP5        0.0000 
     11 CA         73.9905   50.8085   17.7685 C.3       2 GLC5        0.0000 
     12 CA         74.6680   52.6030   18.4140 C.3       6 GLL5        0.0000 
     13 CA         73.3130   49.0140   17.1230 C.3       4 GLP5        0.0000 
     14 CA         73.3805   51.4515   19.7720 C.3       2 GLC5        0.0000 
     15 CA         72.0930   50.3000   21.1300 C.3       4 GLP5        0.0000 
     16 CA         75.0740   51.5175   20.9015 C.3       2 GLC5        0.0000 
     17 CA         75.8390   52.7310   19.4630 C.3       6 GLL5        0.0000 
     18 CA         74.3090   50.3040   22.3400 C.3       4 GLP5        0.0000 
     19 N          79.4055   55.2030   19.2625 N.am      1 SEC2        0.0000 
     20 N          78.2130   54.4320   19.1550 N.am      5 SEL2        0.0000 
     21 N          80.5980   55.9740   19.3700 N.am      3 SEP2        0.0000 
     22 CA         75.3575   52.5820   22.9135 C.3       2 GLC5        0.0000 
     23 CA         75.6260   54.6210   22.3670 C.3       6 GLL5        0.0000 
     24 CA         75.0890   50.5430   23.4600 C.3       4 GLP5        0.0000 
     25 CA         75.4390   57.0255   22.8065 C.3       2 GLC5        0.0000 
     26 CA         74.4390   55.0720   23.2420 C.3       6 GLL5        0.0000 
     27 CA         76.4390   58.9790   22.3710 C.3       4 GLP5        0.0000 
     28 CA         73.7925   53.2215   23.9355 C.3       2 GLC5        0.0000 
     29 CA         73.1460   51.3710   24.6290 C.3       4 GLP5        0.0000 
     30 CA         72.7485   52.9085   22.9880 C.3       2 GLC5        0.0000 
     31 CA         73.1290   54.6900   22.4830 C.3       6 GLL5        0.0000 
     32 CA         72.3680   51.1270   23.4930 C.3       4 GLP5        0.0000 
     33 CA         73.3065   52.3080   21.7730 C.3       2 GLC5        0.0000 
     34 CA         73.6720   54.0240   21.2050 C.3       6 GLL5        0.0000 
     35 CA         72.9410   50.5920   22.3410 C.3       4 GLP5        0.0000 
     36 CA         72.4450   52.1440   20.5275 C.3       2 GLC5        0.0000 
     37 CA         72.7970   53.9880   19.9250 C.3       6 GLL5        0.0000 
     38 CA         71.7500   55.2745   16.3600 C.3       2 GLC5        0.0000 
     39 CA         72.4460   53.7630   17.5160 C.3       6 GLL5        0.0000 
     40 CA         71.0540   56.7860   15.2040 C.3       4 GLP5        0.0000 
     41 CA         70.8415   54.0200   15.4965 C.3       2 GLC5        0.0000 
     42 CA         70.7940   52.3110   16.6770 C.3       6 GLL5        0.0000 
     43 CA         70.8890   55.7290   14.3160 C.3       4 GLP5        0.0000 
     44 CA         65.9310   52.7250   14.0225 C.3       2 GLC5        0.0000 
     45 CA         65.5640   51.6040   15.7510 C.3       6 GLL5        0.0000 
     46 CA         66.2980   53.8460   12.2940 C.3       4 GLP5        0.0000 
     47 N          70.0285   51.4470   13.1135 N.am      1 SEC2        0.0000 
     48 N          69.5150   50.9390   14.4330 N.am      5 SEL2        0.0000 
     49 N          70.5420   51.9550   11.7940 N.am      3 SEP2        0.0000 
     50 N          70.3095   49.5920   18.9370 N.am      1 SEC2        0.0000 
     51 N          69.6950   50.5980   18.0720 N.am      5 SEL2        0.0000 
     52 N          70.9240   48.5860   19.8020 N.am      3 SEP2        0.0000 
     53 CA         77.7025   52.4365   15.7915 C.3       2 GLC5        0.0000 
     54 CA         77.2180   54.3150   15.0890 C.3       6 GLL5        0.0000 
     55 CA         72.9685   55.6360   14.5465 C.3       2 GLC5        0.0000 
     56 CA         75.0480   55.5430   14.7770 C.3       6 GLL5        0.0000 
     57 CA         74.2795   56.9145   13.6820 C.3       2 GLC5        0.0000 
     58 CA         73.5110   58.2860   12.5870 C.3       4 GLP5        0.0000 
     59 CA         76.2207   50.9625   18.6553 C.3       2 GLC5        0.0000 
     60 CA         77.1880   49.2580   18.3720 C.3       4 GLP5        0.0000 
     61 CA         77.0487   52.2835   20.4718 C.3       2 GLC5        0.0000 
     62 CA         78.2820   51.0480   21.3840 C.3       4 GLP5        0.0000 
     63 CA         75.6192   56.7115   21.3250 C.3       2 GLC5        0.0000 
     64 CA         75.0430   54.7930   20.9790 C.3       6 GLL5        0.0000 
     65 CA         75.9040   58.7160   20.9770 C.3       4 GLP5        0.0000 
     66 CA         76.2873   54.5678   24.0643 C.3       2 GLC5        0.0000 
     67 CA         77.5420   54.2890   25.3240 C.3       4 GLP5        0.0000 
     68 CA         71.9027   50.2957   16.9202 C.3       2 GLC5        0.0000 
     69 CA         67.2203   53.8323   14.2365 C.3       2 GLC5        0.0000 
     70 CA         68.6340   53.2550   16.0040 C.3       6 GLL5        0.0000 
     71 CA         68.9502   54.7447   14.8445 C.3       2 GLC5        0.0000 
     72 CA         67.6510   54.3820   16.3540 C.3       6 GLL5        0.0000 
     73 CA         69.7580   55.6710   13.5100 C.3       4 GLP5        0.0000 
     74 CA         69.5745   49.0048   17.2850 C.3       2 GLC5        0.0000 
     75 CA         69.0190   50.7370   15.7580 C.3       6 GLL5        0.0000 
     76 CA         69.5440   47.2190   18.3120 C.3       4 GLP5        0.0000 
     77 CA         75.3002   57.2747   15.6190 C.3       2 GLC5        0.0000 
     78 CA         75.0320   59.2390   15.9360 C.3       4 GLP5        0.0000 
     79 CA         76.8699   55.6029   13.4778 C.3       2 GLC5        0.0000 
     80 CA         77.8890   56.0860   11.8380 C.3       4 GLP5        0.0000 
@<TRIPOS>BOND
@<TRIPOS>SUBSTRUCTURE
     1 SEC2        1 GROUP        1 X    SEC  0     ROOT SEC X 2
     2 GLC5        6 GROUP        1 X    GLC  0     **** GLC X 6
     3 SEP2        3 GROUP        1 Y    SEP  0     ROOT SEP Y 9
     4 GLP5        8 GROUP        1 Y    GLP  0     **** GLP Y 13
     5 SEL2        2 GROUP        1 Z    SEL  0     ROOT SEL Z 16
     6 GLL5        7 GROUP        1 Z    GLL  0     **** GLL Z 20
@<TRIPOS>SET

