#    Name: 1u2r_SO1_1_ligand
#    Modification time : Tue Mar 25 06:04:04 2014

@<TRIPOS>MOLECULE
1u2r_SO1_1_ligand
   76    80     1     0     0
SMALL
NO_CHARGES


@<TRIPOS>ATOM
      1 O14        73.3700   56.6840   18.3690 O.co2     1 SO11700     0.0000 
      2 C5         74.5610   56.3240   18.3050 C.2       1 SO11700     0.0000 
      3 O15        75.5550   57.0770   18.1860 O.co2     1 SO11700     0.0000 
      4 C1         74.8290   54.7540   18.3530 C.3       1 SO11700     0.0000 
      5 C4         75.4630   54.2380   16.9500 C.3       1 SO11700     0.0000 
      6 C12        75.3050   52.8270   17.0330 C.3       1 SO11700     0.0000 
      7 C6         74.6680   52.6030   18.4140 C.3       1 SO11700     0.0000 
      8 C10        75.8390   52.7310   19.4630 C.3       1 SO11700     0.0000 
      9 C3         75.7920   54.3070   19.6560 C.3       1 SO11700     0.0000 
     10 C11        77.1750   54.9950   19.4510 C.2       1 SO11700     0.0000 
     11 O19        78.2130   54.4320   19.1550 O.2       1 SO11700     0.0000 
     12 C9         75.0430   54.7930   20.9790 C.3       1 SO11700     0.0000 
     13 C18        75.6260   54.6210   22.3670 C.3       1 SO11700     0.0000 
     14 C24        74.4390   55.0720   23.2420 C.3       1 SO11700     0.0000 
     15 C22        73.1290   54.6900   22.4830 C.3       1 SO11700     0.0000 
     16 C25        72.2780   55.9570   22.2690 C.3       1 SO11700     0.0000 
     17 C16        73.6720   54.0240   21.2050 C.3       1 SO11700     0.0000 
     18 C7         72.7970   53.9880   19.9250 C.3       1 SO11700     0.0000 
     19 C2         73.6420   53.7740   18.5380 C.3       1 SO11700     0.0000 
     20 C8         72.4460   53.7630   17.5160 C.3       1 SO11700     0.0000 
     21 O17        71.8550   52.4780   17.5550 O.3       1 SO11700     0.0000 
     22 C52        70.7940   52.3110   16.6770 C.3       1 SO11700     0.0000 
     23 O56        69.7540   53.3390   16.9200 O.3       1 SO11700     0.0000 
     24 C56        68.6340   53.2550   16.0040 C.3       1 SO11700     0.0000 
     25 C61        67.6510   54.3820   16.3540 C.3       1 SO11700     0.0000 
     26 C55        67.9620   51.8270   16.0830 C.3       1 SO11700     0.0000 
     27 O64        66.8570   51.7240   15.1480 O.3       1 SO11700     0.0000 
     28 C65        65.5640   51.6040   15.7510 C.3       1 SO11700     0.0000 
     29 C54        69.0190   50.7370   15.7580 C.3       1 SO11700     0.0000 
     30 O60        69.5150   50.9390   14.4330 O.3       1 SO11700     0.0000 
     31 C53        70.1910   50.8440   16.7580 C.3       1 SO11700     0.0000 
     32 O57        69.6950   50.5980   18.0720 O.3       1 SO11700     0.0000 
     33 C13        76.0890   55.0780   15.8270 C.3       1 SO11700     0.0000 
     34 C20        77.2180   54.3150   15.0890 C.3       1 SO11700     0.0000 
     35 C21        75.0480   55.5430   14.7770 C.3       1 SO11700     0.0000 
     36 H          74.1338   54.3386   16.3921 H         1 SO11700     0.0000 
     37 H          76.2426   52.3046   17.0135 H         1 SO11700     0.0000 
     38 H          74.6300   52.4427   16.2920 H         1 SO11700     0.0000 
     39 H          74.2125   51.6958   18.4590 H         1 SO11700     0.0000 
     40 H          76.7281   52.4728   19.0194 H         1 SO11700     0.0000 
     41 H          75.5651   52.2762   20.3417 H         1 SO11700     0.0000 
     42 H          77.0651   56.0572   19.6144 H         1 SO11700     0.0000 
     43 H          74.7318   55.8386   20.8659 H         1 SO11700     0.0000 
     44 H          76.4332   55.2764   22.5103 H         1 SO11700     0.0000 
     45 H          75.8334   53.6096   22.5557 H         1 SO11700     0.0000 
     46 H          74.4685   56.1327   23.3719 H         1 SO11700     0.0000 
     47 H          74.4623   54.5542   24.1770 H         1 SO11700     0.0000 
     48 H          72.6245   53.9731   23.0713 H         1 SO11700     0.0000 
     49 H          73.9810   53.0021   21.4762 H         1 SO11700     0.0000 
     50 H          72.2510   54.9253   19.8176 H         1 SO11700     0.0000 
     51 H          72.0796   53.1694   19.9841 H         1 SO11700     0.0000 
     52 H          72.8654   54.0082   16.5448 H         1 SO11700     0.0000 
     53 H          71.7669   54.5522   17.8244 H         1 SO11700     0.0000 
     54 H          71.1352   52.4203   15.6270 H         1 SO11700     0.0000 
     55 H          68.9678   53.4017   14.9863 H         1 SO11700     0.0000 
     56 H          67.6365   51.6801   17.0966 H         1 SO11700     0.0000 
     57 H          68.5605   49.7812   15.8761 H         1 SO11700     0.0000 
     58 H          70.9519   50.1662   16.4663 H         1 SO11700     0.0000 
     59 H          76.5352   55.9736   16.2626 H         1 SO11700     0.0000 
     60 H          72.7668   56.6469   21.7351 H         1 SO11700     0.0000 
     61 H          71.4288   55.7559   21.7806 H         1 SO11700     0.0000 
     62 H          72.0231   56.3841   23.1365 H         1 SO11700     0.0000 
     63 H          68.0760   55.2837   16.2741 H         1 SO11700     0.0000 
     64 H          66.8532   54.3796   15.7510 H         1 SO11700     0.0000 
     65 H          67.3106   54.3004   17.2907 H         1 SO11700     0.0000 
     66 H          65.4974   50.7901   16.3281 H         1 SO11700     0.0000 
     67 H          65.3492   52.3914   16.3288 H         1 SO11700     0.0000 
     68 H          64.8392   51.5372   15.0653 H         1 SO11700     0.0000 
     69 H          77.6212   54.8648   14.3575 H         1 SO11700     0.0000 
     70 H          77.9610   54.0611   15.7083 H         1 SO11700     0.0000 
     71 H          76.8836   53.4705   14.6707 H         1 SO11700     0.0000 
     72 H          75.4698   56.0867   14.0514 H         1 SO11700     0.0000 
     73 H          74.5934   54.7688   14.3366 H         1 SO11700     0.0000 
     74 H          74.3325   56.1077   15.1882 H         1 SO11700     0.0000 
     75 H          70.4074   50.4881   14.4193 H         1 SO11700     0.0000 
     76 H          70.2511   51.1745   18.6706 H         1 SO11700     0.0000 
@<TRIPOS>BOND
     1    2    1 ar   
     2    3    2 ar   
     3    4    2 1    
     4    5    4 1    
     5    9    4 1    
     6   19    4 1    
     7    6    5 1    
     8   33    5 1    
     9   36    5 1    
    10    7    6 1    
    11   37    6 1    
    12   38    6 1    
    13    8    7 1    
    14   19    7 1    
    15   39    7 1    
    16    9    8 1    
    17   40    8 1    
    18   41    8 1    
    19   10    9 1    
    20   12    9 1    
    21   11   10 2    
    22   42   10 1    
    23   13   12 1    
    24   17   12 1    
    25   43   12 1    
    26   14   13 1    
    27   44   13 1    
    28   45   13 1    
    29   15   14 1    
    30   46   14 1    
    31   47   14 1    
    32   16   15 1    
    33   17   15 1    
    34   48   15 1    
    35   60   16 1    
    36   61   16 1    
    37   62   16 1    
    38   18   17 1    
    39   49   17 1    
    40   19   18 1    
    41   50   18 1    
    42   51   18 1    
    43   20   19 1    
    44   21   20 1    
    45   52   20 1    
    46   53   20 1    
    47   22   21 1    
    48   23   22 1    
    49   31   22 1    
    50   54   22 1    
    51   24   23 1    
    52   25   24 1    
    53   26   24 1    
    54   55   24 1    
    55   63   25 1    
    56   64   25 1    
    57   65   25 1    
    58   27   26 1    
    59   29   26 1    
    60   56   26 1    
    61   28   27 1    
    62   66   28 1    
    63   67   28 1    
    64   68   28 1    
    65   30   29 1    
    66   31   29 1    
    67   57   29 1    
    68   75   30 1    
    69   32   31 1    
    70   58   31 1    
    71   76   32 1    
    72   34   33 1    
    73   35   33 1    
    74   59   33 1    
    75   69   34 1    
    76   70   34 1    
    77   71   34 1    
    78   72   35 1    
    79   73   35 1    
    80   74   35 1    
@<TRIPOS>SUBSTRUCTURE
     1 SO11700     1 GROUP   
@<TRIPOS>SET

