#    Name: 4br0_AU1_1_INTS_M
#    Modification time : Tue Mar 25 08:08:40 2014

@<TRIPOS>MOLECULE
4br0_AU1_1_INTS_M
   60     0     9     0     0
SMALL
NO_CHARGES


@<TRIPOS>ATOM
      1 N          22.6160   36.8500   24.9595 N.am      2 SEC2        0.0000 
      2 N          23.2500   35.9660   24.0890 N.am      8 SEL2        0.0000 
      3 N          21.9820   37.7340   25.8300 N.am      5 SEP2        0.0000 
      4 N          24.0145   36.3835   25.1130 N.am      2 SEC2        0.0000 
      5 N          24.7790   36.8010   26.1370 N.am      5 SEP2        0.0000 
      6 N          20.7195   35.3970   24.1445 N.am      2 SEC2        0.0000 
      7 N          21.5470   33.9230   24.2940 N.am      8 SEL2        0.0000 
      8 N          19.8920   36.8710   23.9950 N.am      5 SEP2        0.0000 
      9 N          21.9345   32.9200   25.1395 N.am      2 SEC2        0.0000 
     10 N          22.3220   31.9170   25.9850 N.am      5 SEP2        0.0000 
     11 N          20.7285   33.5515   20.8610 N.am      2 SEC2        0.0000 
     12 N          20.7150   32.6100   22.1980 N.am      8 SEL2        0.0000 
     13 N          20.7420   34.4930   19.5240 N.am      5 SEP2        0.0000 
     14 N          19.6445   32.1100   25.7505 N.am      2 SEC2        0.0000 
     15 N          19.4930   32.2550   24.2540 N.am      8 SEL2        0.0000 
     16 N          19.7960   31.9650   27.2470 N.am      5 SEP2        0.0000 
     17 N          18.8295   31.1230   25.2155 N.am      2 SEC2        0.0000 
     18 N          18.1660   29.9910   26.1770 N.am      5 SEP2        0.0000 
     19 N          18.5335   31.9290   23.4065 N.am      2 SEC2        0.0000 
     20 N          17.5740   31.6030   22.5590 N.am      5 SEP2        0.0000 
     21 N          19.5300   35.6480   23.5610 N.am      2 SEC2        0.0000 
     22 N          19.1680   34.4250   23.1270 N.am      8 SEL2        0.0000 
     23 N          18.7710   34.5845   21.9195 N.am      2 SEC2        0.0000 
     24 N          18.3740   34.7440   20.7120 N.am      5 SEP2        0.0000 
     25 N          17.5120   34.1950   22.9310 N.am      2 SEC2        0.0000 
     26 N          15.8560   33.9650   22.7350 N.am      5 SEP2        0.0000 
     27 CA         26.9385   30.7160   25.8155 C.3       3 GLC5        0.0000 
     28 CA         26.1370   32.6870   25.4270 C.3       9 GLL5        0.0000 
     29 CA         27.7400   28.7450   26.2040 C.3       6 GLP5        0.0000 
     30 CA         24.9915   35.5240   26.9385 C.3       3 GLC5        0.0000 
     31 CA         25.9590   33.6380   26.6440 C.3       9 GLL5        0.0000 
     32 CA         24.0240   37.4100   27.2330 C.3       6 GLP5        0.0000 
     33 O          25.2365   33.3610   29.3865 O.2       1 ALC1        0.0000 
     34 O          25.5710   32.9450   27.8330 O.2       7 ALL1        0.0000 
     35 O          24.9020   33.7770   30.9400 O.2       4 ALP1        0.0000 
     36 O          24.6005   33.8905   28.7040 O.2       1 ALC1        0.0000 
     37 O          23.6300   34.8360   29.5750 O.2       4 ALP1        0.0000 
     38 N          28.9800   35.5350   28.1085 N.am      2 SEC2        0.0000 
     39 N          27.5630   34.6870   28.2330 N.am      8 SEL2        0.0000 
     40 N          30.3970   36.3830   27.9840 N.am      5 SEP2        0.0000 
     41 CA         27.7785   31.6905   28.1580 C.3       3 GLC5        0.0000 
     42 CA         28.1840   32.9360   26.5460 C.3       9 GLL5        0.0000 
     43 CA         27.3730   30.4450   29.7700 C.3       6 GLP5        0.0000 
     44 CA         27.9620   30.8405   26.3750 C.3       3 GLC5        0.0000 
     45 CA         32.3905   30.5560   26.9150 C.3       3 GLC5        0.0000 
     46 CA         32.0140   31.3430   28.4670 C.3       9 GLL5        0.0000 
     47 CA         32.7670   29.7690   25.3630 C.3       6 GLP5        0.0000 
     48 CA         31.8890   32.7360   29.4855 C.3       3 GLC5        0.0000 
     49 CA         31.7640   34.1290   30.5040 C.3       6 GLP5        0.0000 
     50 N          34.1360   31.7270   29.1030 N.am      2 SEC2        0.0000 
     51 N          33.1340   31.9950   27.9930 N.am      8 SEL2        0.0000 
     52 N          35.1380   31.4590   30.2130 N.am      5 SEP2        0.0000 
     53 CA         24.3320   31.6450   24.5042 C.3       3 GLC5        0.0000 
     54 CA         22.7690   30.2720   24.2320 C.3       6 GLP5        0.0000 
     55 CA         24.1415   32.7758   26.6922 C.3       3 GLC5        0.0000 
     56 CA         22.2350   32.3890   27.3490 C.3       6 GLP5        0.0000 
     57 CA         32.4528   31.3950   26.1311 C.3       3 GLC5        0.0000 
     58 CA         30.6600   32.7170   27.0160 C.3       9 GLL5        0.0000 
     59 CA         31.9512   33.5750   28.7016 C.3       3 GLC5        0.0000 
     60 CA         33.0470   32.9960   27.0300 C.3       9 GLL5        0.0000 
@<TRIPOS>BOND
@<TRIPOS>SUBSTRUCTURE
     1 ALC1       33 GROUP        1 X    ALC  0     ROOT ALC X 1
     2 SEC2        1 GROUP        1 X    SEC  0     **** SEC X 2
     3 GLC5       27 GROUP        1 X    GLC  0     **** GLC X 6
     4 ALP1       35 GROUP        1 Y    ALP  0     ROOT ALP Y 8
     5 SEP2        3 GROUP        1 Y    SEP  0     **** SEP Y 9
     6 GLP5       29 GROUP        1 Y    GLP  0     **** GLP Y 13
     7 ALL1       34 GROUP        1 Z    ALL  0     ROOT ALL Z 15
     8 SEL2        2 GROUP        1 Z    SEL  0     **** SEL Z 16
     9 GLL5       28 GROUP        1 Z    GLL  0     **** GLL Z 20
@<TRIPOS>SET

