#    Name: 4br0_AU1_1_ligand
#    Modification time : Tue Mar 25 08:08:40 2014

@<TRIPOS>MOLECULE
4br0_AU1_1_ligand
   39    41     1     0     0
SMALL
NO_CHARGES


@<TRIPOS>ATOM
      1 O1A        23.2340   34.4790   22.0170 O.co2     1 AU11462     0.0000 
      2 PA         23.1230   34.5430   23.5730 P.3       1 AU11462     0.0000 
      3 O2A        23.2500   35.9660   24.0890 O.co2     1 AU11462     0.0000 
      4 N3A        21.5470   33.9230   24.2940 N.3       1 AU11462     0.0000 
      5 PB         20.1860   33.3180   23.4080 P.3       1 AU11462     0.0000 
      6 O2B        20.7150   32.6100   22.1980 O.co2     1 AU11462     0.0000 
      7 O1B        19.4930   32.2550   24.2540 O.co2     1 AU11462     0.0000 
      8 O3B        19.1680   34.4250   23.1270 O.co2     1 AU11462     0.0000 
      9 O5'        24.1910   33.4730   24.2360 O.3       1 AU11462     0.0000 
     10 C5'        25.6530   33.3490   24.1260 C.3       1 AU11462     0.0000 
     11 C4'        26.1370   32.6870   25.4270 C.3       1 AU11462     0.0000 
     12 C3'        25.9590   33.6380   26.6440 C.3       1 AU11462     0.0000 
     13 O3'        25.5710   32.9450   27.8330 O.3       1 AU11462     0.0000 
     14 C2'        27.3530   34.1770   26.9020 C.3       1 AU11462     0.0000 
     15 O2'        27.5630   34.6870   28.2330 O.3       1 AU11462     0.0000 
     16 C1'        28.1840   32.9360   26.5460 C.3       1 AU11462     0.0000 
     17 O4'        27.5460   32.4410   25.3400 O.3       1 AU11462     0.0000 
     18 N9         29.6200   33.3050   26.3570 N.pl3     1 AU11462     0.0000 
     19 C4         30.6600   32.7170   27.0160 C.ar      1 AU11462     0.0000 
     20 C5         31.8000   33.3750   26.5210 C.ar      1 AU11462     0.0000 
     21 N7         31.4280   34.3170   25.5900 N.2       1 AU11462     0.0000 
     22 C8         30.0740   34.2650   25.4890 C.2       1 AU11462     0.0000 
     23 N3         30.7880   31.7060   27.9840 N.ar      1 AU11462     0.0000 
     24 C2         32.0140   31.3430   28.4670 C.ar      1 AU11462     0.0000 
     25 N1         33.1340   31.9950   27.9930 N.ar      1 AU11462     0.0000 
     26 C6         33.0470   32.9960   27.0300 C.ar      1 AU11462     0.0000 
     27 N6         34.1230   33.6730   26.5060 N.pl3     1 AU11462     0.0000 
     28 H          26.1203   34.3154   24.0403 H         1 AU11462     0.0000 
     29 H          25.9290   32.7176   23.2984 H         1 AU11462     0.0000 
     30 H          25.5916   31.8020   25.6102 H         1 AU11462     0.0000 
     31 H          25.3331   34.4285   26.3787 H         1 AU11462     0.0000 
     32 H          27.5518   34.9055   26.1244 H         1 AU11462     0.0000 
     33 H          28.0659   32.2380   27.3474 H         1 AU11462     0.0000 
     34 H          29.5265   34.8009   24.9153 H         1 AU11462     0.0000 
     35 H          32.1062   30.6008   29.1686 H         1 AU11462     0.0000 
     36 H          35.0250   33.3742   26.8176 H         1 AU11462     0.0000 
     37 H          33.9096   34.4051   25.8590 H         1 AU11462     0.0000 
     38 H          25.0082   33.5973   28.3406 H         1 AU11462     0.0000 
     39 H          26.7252   35.1862   28.4539 H         1 AU11462     0.0000 
@<TRIPOS>BOND
     1    2    1 ar   
     2    3    2 ar   
     3    4    2 1    
     4    9    2 1    
     5    5    4 1    
     6    6    5 ar   
     7    7    5 ar   
     8    8    5 ar   
     9   10    9 1    
    10   11   10 1    
    11   28   10 1    
    12   29   10 1    
    13   12   11 1    
    14   17   11 1    
    15   30   11 1    
    16   13   12 1    
    17   14   12 1    
    18   31   12 1    
    19   38   13 1    
    20   15   14 1    
    21   16   14 1    
    22   32   14 1    
    23   39   15 1    
    24   17   16 1    
    25   18   16 1    
    26   33   16 1    
    27   19   18 1    
    28   22   18 1    
    29   20   19 ar   
    30   23   19 ar   
    31   21   20 1    
    32   26   20 ar   
    33   22   21 2    
    34   34   22 1    
    35   24   23 ar   
    36   25   24 ar   
    37   35   24 1    
    38   26   25 ar   
    39   27   26 1    
    40   36   27 1    
    41   37   27 1    
@<TRIPOS>SUBSTRUCTURE
     1 AU11462     1 GROUP   
@<TRIPOS>SET

