#    Name: 3k4s_0MO_1_INTS_M
#    Modification time : Mon Mar 24 18:20:27 2014

@<TRIPOS>MOLECULE
3k4s_0MO_1_INTS_M
   55     0     6     0     0
SMALL
NO_CHARGES


@<TRIPOS>ATOM
      1 CA         25.4930  -12.5810   15.8730 C.3       2 GLC5        0.0000 
      2 CA         24.7640  -12.6900   14.3700 C.3       6 GLL5        0.0000 
      3 CA         26.2220  -12.4720   17.3760 C.3       4 GLP5        0.0000 
      4 CA         24.6020  -14.6155   15.2120 C.3       2 GLC5        0.0000 
      5 CA         24.4400  -16.5410   16.0540 C.3       4 GLP5        0.0000 
      6 N          22.8195  -10.1685   12.1060 N.am      1 SEC2        0.0000 
      7 N          23.0100   -9.7190   13.6320 N.am      5 SEL2        0.0000 
      8 N          22.6290  -10.6180   10.5800 N.am      3 SEP2        0.0000 
      9 N          23.2260   -9.2990   11.0965 N.am      1 SEC2        0.0000 
     10 N          23.8230   -7.9800   11.6130 N.am      5 SEL2        0.0000 
     11 CA         20.4440  -11.0765   13.6930 C.3       2 GLC5        0.0000 
     12 CA         22.3190  -12.0160   14.0530 C.3       6 GLL5        0.0000 
     13 CA         18.5690  -10.1370   13.3330 C.3       4 GLP5        0.0000 
     14 CA         20.8375   -9.7235   14.1920 C.3       2 GLC5        0.0000 
     15 CA         22.4710  -10.6090   14.6010 C.3       6 GLL5        0.0000 
     16 CA         19.2040   -8.8380   13.7830 C.3       4 GLP5        0.0000 
     17 CA         23.6525   -5.0650   10.2345 C.3       2 GLC5        0.0000 
     18 CA         24.0330   -7.0530   10.5320 C.3       6 GLL5        0.0000 
     19 CA         23.2720   -3.0770    9.9370 C.3       4 GLP5        0.0000 
     20 CA         22.7705   -6.8725    9.0350 C.3       2 GLC5        0.0000 
     21 CA         21.5080   -6.6920    7.5380 C.3       4 GLP5        0.0000 
     22 CA         25.3215   -5.7060    9.4930 C.3       2 GLC5        0.0000 
     23 CA         26.6100   -4.3590    8.4540 C.3       4 GLP5        0.0000 
     24 CA         25.2015   -7.9575    9.3185 C.3       2 GLC5        0.0000 
     25 CA         26.3700   -8.8620    8.1050 C.3       4 GLP5        0.0000 
     26 CA         25.3850   -8.3885   11.2885 C.3       2 GLC5        0.0000 
     27 CA         26.7370   -9.7240   12.0450 C.3       4 GLP5        0.0000 
     28 CA         22.2705   -6.9615   11.8885 C.3       2 GLC5        0.0000 
     29 CA         20.5080   -6.8700   13.2450 C.3       4 GLP5        0.0000 
     30 CA         26.0160   -7.5730   13.0680 C.3       2 GLC5        0.0000 
     31 CA         24.2990   -6.2170   13.2250 C.3       6 GLL5        0.0000 
     32 CA         27.7330   -8.9290   12.9110 C.3       4 GLP5        0.0000 
     33 CA         22.3835   -4.7400   17.2105 C.3       2 GLC5        0.0000 
     34 CA         23.7760   -6.2730   17.0370 C.3       6 GLL5        0.0000 
     35 CA         20.9910   -3.2070   17.3840 C.3       4 GLP5        0.0000 
     36 CA         22.1135   -6.3680   15.8265 C.3       2 GLC5        0.0000 
     37 CA         20.4510   -6.4630   14.6160 C.3       4 GLP5        0.0000 
     38 CA         26.1220   -9.4780   17.9385 C.3       2 GLC5        0.0000 
     39 CA         25.5550   -7.6990   17.9840 C.3       6 GLL5        0.0000 
     40 CA         26.6890  -11.2570   17.8930 C.3       4 GLP5        0.0000 
     41 CA         25.4335   -8.5760   14.8605 C.3       2 GLC5        0.0000 
     42 CA         23.4210   -7.9920   15.2830 C.3       6 GLL5        0.0000 
     43 CA         27.4460   -9.1600   14.4380 C.3       4 GLP5        0.0000 
     44 CA         25.4570  -11.1790   12.9677 C.3       2 GLC5        0.0000 
     45 CA         25.3245  -13.2145   12.6578 C.3       2 GLC5        0.0000 
     46 CA         26.4720  -13.7950   11.4250 C.3       4 GLP5        0.0000 
     47 CA         22.3878  -13.8800   14.7045 C.3       2 GLC5        0.0000 
     48 CA         23.5900  -12.5780   13.4110 C.3       6 GLL5        0.0000 
     49 CA         21.8210  -15.4630   15.6770 C.3       4 GLP5        0.0000 
     50 CA         22.0182  -13.8295   12.8485 C.3       2 GLC5        0.0000 
     51 CA         21.0820  -15.3620   11.9650 C.3       4 GLP5        0.0000 
     52 CA         25.1900   -8.8550   12.7375 C.3       2 GLC5        0.0000 
     53 CA         23.4150   -8.4470   13.9620 C.3       6 GLL5        0.0000 
     54 CA         26.8143   -7.5830   16.5750 C.3       2 GLC5        0.0000 
     55 CA         28.2780   -8.1800   15.3430 C.3       4 GLP5        0.0000 
@<TRIPOS>BOND
@<TRIPOS>SUBSTRUCTURE
     1 SEC2        6 GROUP        1 X    SEC  0     ROOT SEC X 2
     2 GLC5        1 GROUP        1 X    GLC  0     **** GLC X 6
     3 SEP2        8 GROUP        1 Y    SEP  0     ROOT SEP Y 9
     4 GLP5        3 GROUP        1 Y    GLP  0     **** GLP Y 13
     5 SEL2        7 GROUP        1 Z    SEL  0     ROOT SEL Z 16
     6 GLL5        2 GROUP        1 Z    GLL  0     **** GLL Z 20
@<TRIPOS>SET

