#    Name: 3k4s_0MO_1_ligand
#    Modification time : Mon Mar 24 18:20:27 2014

@<TRIPOS>MOLECULE
3k4s_0MO_1_ligand
   42    43     1     0     0
SMALL
NO_CHARGES


@<TRIPOS>ATOM
      1 C1         24.7640  -12.6900   14.3700 C.3       1 0MO414      0.0000 
      2 N1         25.9090   -7.5750   19.3900 N.am      1 0MO414      0.0000 
      3 O1         23.0100   -9.7190   13.6320 O.3       1 0MO414      0.0000 
      4 C2         23.5900  -12.5780   13.4110 C.3       1 0MO414      0.0000 
      5 N2         25.0830   -5.5860   18.9030 N.am      1 0MO414      0.0000 
      6 O2         23.8230   -7.9800   11.6130 O.3       1 0MO414      0.0000 
      7 C3         22.3190  -12.0160   14.0530 C.3       1 0MO414      0.0000 
      8 O3         25.6150   -6.0320   21.0380 O.2       1 0MO414      0.0000 
      9 C4         22.4710  -10.6090   14.6010 C.3       1 0MO414      0.0000 
     10 C5         23.4150   -8.4470   13.9620 C.ar      1 0MO414      0.0000 
     11 C6         23.8710   -7.5250   12.8980 C.ar      1 0MO414      0.0000 
     12 C7         24.0330   -7.0530   10.5320 C.3       1 0MO414      0.0000 
     13 C8         24.2990   -6.2170   13.2250 C.ar      1 0MO414      0.0000 
     14 C9         24.2680   -5.8010   14.5720 C.ar      1 0MO414      0.0000 
     15 C10        23.8440   -6.6950   15.5820 C.ar      1 0MO414      0.0000 
     16 C11        23.7760   -6.2730   17.0370 C.3       1 0MO414      0.0000 
     17 C12        25.1460   -6.2730   17.6300 C.3       1 0MO414      0.0000 
     18 C13        25.5550   -7.6990   17.9840 C.3       1 0MO414      0.0000 
     19 C14        25.5380   -6.3770   19.8680 C.2       1 0MO414      0.0000 
     20 C15        23.4210   -7.9920   15.2830 C.ar      1 0MO414      0.0000 
     21 H          26.3493   -8.2914   19.8592 H         1 0MO414      0.0000 
     22 H          23.3661  -13.5739   12.9952 H         1 0MO414      0.0000 
     23 H          23.8746  -11.9320   12.5645 H         1 0MO414      0.0000 
     24 H          24.7487   -4.6860   18.9704 H         1 0MO414      0.0000 
     25 H          22.0069  -12.6912   14.8686 H         1 0MO414      0.0000 
     26 H          21.5094  -12.0276   13.3027 H         1 0MO414      0.0000 
     27 H          21.4751  -10.2747   14.9493 H         1 0MO414      0.0000 
     28 H          23.1130  -10.6664   15.5007 H         1 0MO414      0.0000 
     29 H          24.6238   -5.5876   12.4981 H         1 0MO414      0.0000 
     30 H          24.5524   -4.8511   14.8206 H         1 0MO414      0.0000 
     31 H          23.1346   -6.9674   17.5795 H         1 0MO414      0.0000 
     32 H          23.3429   -5.2747   17.0984 H         1 0MO414      0.0000 
     33 H          25.8484   -5.8504   16.9914 H         1 0MO414      0.0000 
     34 H          24.7194   -8.3409   17.8435 H         1 0MO414      0.0000 
     35 H          26.3925   -7.9736   17.3899 H         1 0MO414      0.0000 
     36 H          23.1118   -8.6165   16.0401 H         1 0MO414      0.0000 
     37 H          25.5764  -13.0615   13.9207 H         1 0MO414      0.0000 
     38 H          25.0197  -11.8008   14.7495 H         1 0MO414      0.0000 
     39 H          24.5564  -13.2897   15.1428 H         1 0MO414      0.0000 
     40 H          24.9329   -6.6200   10.5836 H         1 0MO414      0.0000 
     41 H          23.9747   -7.5025    9.6406 H         1 0MO414      0.0000 
     42 H          23.3539   -6.3189   10.5351 H         1 0MO414      0.0000 
@<TRIPOS>BOND
     1    4    1 1    
     2   37    1 1    
     3   38    1 1    
     4   39    1 1    
     5   18    2 1    
     6   19    2 am   
     7   21    2 1    
     8    9    3 1    
     9   10    3 1    
    10    7    4 1    
    11   22    4 1    
    12   23    4 1    
    13   17    5 1    
    14   19    5 am   
    15   24    5 1    
    16   11    6 1    
    17   12    6 1    
    18    9    7 1    
    19   25    7 1    
    20   26    7 1    
    21   19    8 2    
    22   27    9 1    
    23   28    9 1    
    24   11   10 ar   
    25   20   10 ar   
    26   13   11 ar   
    27   40   12 1    
    28   41   12 1    
    29   42   12 1    
    30   14   13 ar   
    31   29   13 1    
    32   15   14 ar   
    33   30   14 1    
    34   16   15 1    
    35   20   15 ar   
    36   17   16 1    
    37   31   16 1    
    38   32   16 1    
    39   18   17 1    
    40   33   17 1    
    41   34   18 1    
    42   35   18 1    
    43   36   20 1    
@<TRIPOS>SUBSTRUCTURE
     1 0MO414      1 GROUP   
@<TRIPOS>SET

