#    Name: 3ppm_JG1_2_INTS_M
#    Modification time : Tue Mar 25 08:17:09 2014

@<TRIPOS>MOLECULE
3ppm_JG1_2_INTS_M
   64     0     6     0     0
SMALL
NO_CHARGES


@<TRIPOS>ATOM
      1 N          32.6095  -41.7535   41.7715 N.am      1 SEC2        0.0000 
      2 N          33.4450  -42.5950   41.1120 N.am      5 SEL2        0.0000 
      3 N          31.7740  -40.9120   42.4310 N.am      3 SEP2        0.0000 
      4 CA         32.3255  -41.7575   41.1315 C.3       2 GLC5        0.0000 
      5 CA         33.0190  -43.7760   40.6400 C.3       6 GLL5        0.0000 
      6 CA         31.6320  -39.7390   41.6230 C.3       4 GLP5        0.0000 
      7 CA         34.8900  -41.3100   42.5025 C.3       2 GLC5        0.0000 
      8 CA         34.6040  -42.0680   40.7550 C.3       6 GLL5        0.0000 
      9 CA         35.1760  -40.5520   44.2500 C.3       4 GLP5        0.0000 
     10 CA         33.7135  -40.4380   41.3025 C.3       2 GLC5        0.0000 
     11 CA         32.8230  -38.8080   41.8500 C.3       4 GLP5        0.0000 
     12 N          30.7400  -42.8660   43.2475 N.am      1 SEC2        0.0000 
     13 N          30.8140  -43.7890   41.8030 N.am      5 SEL2        0.0000 
     14 N          30.6660  -41.9430   44.6920 N.am      3 SEP2        0.0000 
     15 N          31.2940  -42.3505   42.1170 N.am      1 SEC2        0.0000 
     16 CA         29.0000  -48.6125   42.1915 C.3       2 GLC5        0.0000 
     17 CA         27.9420  -46.9720   41.4550 C.3       6 GLL5        0.0000 
     18 CA         30.0580  -50.2530   42.9280 C.3       4 GLP5        0.0000 
     19 CA         27.5280  -45.0300   42.4105 C.3       2 GLC5        0.0000 
     20 CA         27.1140  -43.0880   43.3660 C.3       4 GLP5        0.0000 
     21 CA         28.4705  -49.5330   40.5805 C.3       2 GLC5        0.0000 
     22 CA         27.3010  -48.3560   41.3800 C.3       6 GLL5        0.0000 
     23 CA         29.6400  -50.7100   39.7810 C.3       4 GLP5        0.0000 
     24 CA         26.5695  -51.2195   39.6130 C.3       2 GLC5        0.0000 
     25 CA         25.1640  -50.4020   40.5210 C.3       6 GLL5        0.0000 
     26 CA         27.9750  -52.0370   38.7050 C.3       4 GLP5        0.0000 
     27 CA         26.2540  -52.3510   40.2415 C.3       2 GLC5        0.0000 
     28 CA         24.4930  -51.7680   40.7260 C.3       6 GLL5        0.0000 
     29 CA         28.0150  -52.9340   39.7570 C.3       4 GLP5        0.0000 
     30 CA         22.1190  -51.0645   38.6295 C.3       2 GLC5        0.0000 
     31 CA         24.0470  -52.0320   38.2410 C.3       6 GLL5        0.0000 
     32 CA         20.1910  -50.0970   39.0180 C.3       4 GLP5        0.0000 
     33 CA         24.2775  -55.0515   35.1085 C.3       2 GLC5        0.0000 
     34 CA         24.3290  -54.1480   37.1360 C.3       6 GLL5        0.0000 
     35 CA         24.2260  -55.9550   33.0810 C.3       4 GLP5        0.0000 
     36 CA         34.2550  -44.5100   41.5692 C.3       2 GLC5        0.0000 
     37 CA         35.1130  -44.8960   42.9700 C.3       4 GLP5        0.0000 
     38 CA         32.5370  -42.9630   39.0703 C.3       2 GLC5        0.0000 
     39 CA         31.6770  -41.8020   37.9720 C.3       4 GLP5        0.0000 
     40 CA         36.6923  -44.3955   39.8708 C.3       2 GLC5        0.0000 
     41 CA         34.9960  -43.9280   39.2950 C.3       6 GLL5        0.0000 
     42 CA         38.1740  -45.4710   40.1770 C.3       4 GLP5        0.0000 
     43 CA         36.3922  -40.7315   39.9748 C.3       2 GLC5        0.0000 
     44 CA         35.4250  -42.7120   39.8340 C.3       6 GLL5        0.0000 
     45 CA         37.7700  -39.0730   39.6550 C.3       4 GLP5        0.0000 
     46 CA         35.0101  -43.7950   41.5649 C.3       2 GLC5        0.0000 
     47 CA         34.4406  -42.0120   38.6254 C.3       2 GLC5        0.0000 
     48 CA         33.9740  -41.3300   37.0910 C.3       4 GLP5        0.0000 
     49 CA         28.2067  -46.7100   39.7752 C.3       2 GLC5        0.0000 
     50 CA         28.7920  -45.7560   38.1330 C.3       4 GLP5        0.0000 
     51 CA         26.5199  -49.6256   43.5475 C.3       2 GLC5        0.0000 
     52 CA         27.1630  -50.2520   45.3600 C.3       4 GLP5        0.0000 
     53 CA         22.8619  -50.2884   41.1818 C.3       2 GLC5        0.0000 
     54 CA         20.8900  -49.6730   41.4050 C.3       4 GLP5        0.0000 
     55 CA         25.2400  -51.2200   36.4475 C.3       2 GLC5        0.0000 
     56 CA         26.4610  -50.0240   35.2330 C.3       4 GLP5        0.0000 
     57 CA         22.6445  -53.5645   38.8615 C.3       2 GLC5        0.0000 
     58 CA         23.9910  -52.8000   37.0830 C.3       6 GLL5        0.0000 
     59 CA         21.2700  -54.7130   40.0610 C.3       4 GLP5        0.0000 
     60 CA         23.2395  -50.8385   36.7890 C.3       2 GLC5        0.0000 
     61 CA         22.4600  -49.2610   35.9160 C.3       4 GLP5        0.0000 
     62 CA         22.8963  -54.5743   38.9002 C.3       2 GLC5        0.0000 
     63 CA         22.9447  -53.8909   39.9266 C.3       2 GLC5        0.0000 
     64 CA         24.7750  -53.9520   39.4980 C.3       6 GLL5        0.0000 
@<TRIPOS>BOND
@<TRIPOS>SUBSTRUCTURE
     1 SEC2        1 GROUP        1 X    SEC  0     ROOT SEC X 2
     2 GLC5        4 GROUP        1 X    GLC  0     **** GLC X 6
     3 SEP2        3 GROUP        1 Y    SEP  0     ROOT SEP Y 9
     4 GLP5        6 GROUP        1 Y    GLP  0     **** GLP Y 13
     5 SEL2        2 GROUP        1 Z    SEL  0     ROOT SEL Z 16
     6 GLL5        5 GROUP        1 Z    GLL  0     **** GLL Z 20
@<TRIPOS>SET

