#    Name: 3ppm_JG1_2_ligand
#    Modification time : Tue Mar 25 08:17:09 2014

@<TRIPOS>MOLECULE
3ppm_JG1_2_ligand
   46    48     1     0     0
SMALL
NO_CHARGES


@<TRIPOS>ATOM
      1 N1         33.4450  -42.5950   41.1120 N.ar      1 JG1600      0.0000 
      2 C2         33.0190  -43.7760   40.6400 C.ar      1 JG1600      0.0000 
      3 C3         33.7750  -44.4720   39.6970 C.ar      1 JG1600      0.0000 
      4 C4         34.9960  -43.9280   39.2950 C.ar      1 JG1600      0.0000 
      5 C5         35.4250  -42.7120   39.8340 C.ar      1 JG1600      0.0000 
      6 C6         34.6040  -42.0680   40.7550 C.ar      1 JG1600      0.0000 
      7 C7         31.7960  -44.3040   41.0440 C.2       1 JG1600      0.0000 
      8 N8         30.8140  -43.7890   41.8030 N.2       1 JG1600      0.0000 
      9 N9         29.8710  -44.5960   41.8850 N.2       1 JG1600      0.0000 
     10 C10        30.2260  -45.7000   41.2190 C.2       1 JG1600      0.0000 
     11 O11        31.4230  -45.5270   40.6100 O.3       1 JG1600      0.0000 
     12 C12        29.4080  -46.9450   40.9830 C.2       1 JG1600      0.0000 
     13 C13        27.9420  -46.9720   41.4550 C.3       1 JG1600      0.0000 
     14 O14        29.9710  -47.9340   40.5000 O.2       1 JG1600      0.0000 
     15 C15        27.3010  -48.3560   41.3800 C.3       1 JG1600      0.0000 
     16 C16        25.8360  -48.2870   41.8380 C.3       1 JG1600      0.0000 
     17 C17        25.1850  -49.6770   41.8610 C.3       1 JG1600      0.0000 
     18 C18        25.1640  -50.4020   40.5210 C.3       1 JG1600      0.0000 
     19 C19        24.4930  -51.7680   40.7260 C.3       1 JG1600      0.0000 
     20 C20        24.4350  -52.6030   39.4470 C.ar      1 JG1600      0.0000 
     21 C21        24.0470  -52.0320   38.2410 C.ar      1 JG1600      0.0000 
     22 C22        23.9910  -52.8000   37.0830 C.ar      1 JG1600      0.0000 
     23 C23        24.3290  -54.1480   37.1360 C.ar      1 JG1600      0.0000 
     24 C24        24.7160  -54.7230   38.3430 C.ar      1 JG1600      0.0000 
     25 C25        24.7750  -53.9520   39.4980 C.ar      1 JG1600      0.0000 
     26 H          33.4461  -45.3518   39.3125 H         1 JG1600      0.0000 
     27 H          35.5763  -44.4179   38.6072 H         1 JG1600      0.0000 
     28 H          36.3164  -42.3095   39.5581 H         1 JG1600      0.0000 
     29 H          34.9347  -41.1593   41.1512 H         1 JG1600      0.0000 
     30 H          27.3611  -46.2710   40.8386 H         1 JG1600      0.0000 
     31 H          27.8997  -46.6101   42.4924 H         1 JG1600      0.0000 
     32 H          27.8426  -49.0411   42.0241 H         1 JG1600      0.0000 
     33 H          27.3367  -48.7165   40.3571 H         1 JG1600      0.0000 
     34 H          25.2794  -47.6426   41.1570 H         1 JG1600      0.0000 
     35 H          25.7951  -47.8563   42.8388 H         1 JG1600      0.0000 
     36 H          24.1469  -49.5736   42.2310 H         1 JG1600      0.0000 
     37 H          25.7185  -50.3035   42.6013 H         1 JG1600      0.0000 
     38 H          26.1723  -50.5504   40.1719 H         1 JG1600      0.0000 
     39 H          24.5948  -49.8303   39.8071 H         1 JG1600      0.0000 
     40 H          23.4733  -51.6098   41.0989 H         1 JG1600      0.0000 
     41 H          25.0465  -52.3234   41.4934 H         1 JG1600      0.0000 
     42 H          23.7986  -51.0314   38.2040 H         1 JG1600      0.0000 
     43 H          23.7023  -52.3751   36.1956 H         1 JG1600      0.0000 
     44 H          24.2931  -54.7210   36.2827 H         1 JG1600      0.0000 
     45 H          24.9592  -55.7229   38.3796 H         1 JG1600      0.0000 
     46 H          25.0682  -54.3751   40.3862 H         1 JG1600      0.0000 
@<TRIPOS>BOND
     1    2    1 ar   
     2    6    1 ar   
     3    3    2 ar   
     4    7    2 1    
     5    4    3 ar   
     6   26    3 1    
     7    5    4 ar   
     8   27    4 1    
     9    6    5 ar   
    10   28    5 1    
    11   29    6 1    
    12    8    7 2    
    13   11    7 1    
    14    9    8 1    
    15   10    9 2    
    16   11   10 1    
    17   12   10 1    
    18   13   12 1    
    19   14   12 2    
    20   15   13 1    
    21   30   13 1    
    22   31   13 1    
    23   16   15 1    
    24   32   15 1    
    25   33   15 1    
    26   17   16 1    
    27   34   16 1    
    28   35   16 1    
    29   18   17 1    
    30   36   17 1    
    31   37   17 1    
    32   19   18 1    
    33   38   18 1    
    34   39   18 1    
    35   20   19 1    
    36   40   19 1    
    37   41   19 1    
    38   21   20 ar   
    39   25   20 ar   
    40   22   21 ar   
    41   42   21 1    
    42   23   22 ar   
    43   43   22 1    
    44   24   23 ar   
    45   44   23 1    
    46   25   24 ar   
    47   45   24 1    
    48   46   25 1    
@<TRIPOS>SUBSTRUCTURE
     1 JG1600      1 GROUP   
@<TRIPOS>SET

