#    Name: 3bhi_NAP_1_INTS_M
#    Modification time : Mon Mar 24 19:34:00 2014

@<TRIPOS>MOLECULE
3bhi_NAP_1_INTS_M
  103     0    12     0     0
SMALL
NO_CHARGES


@<TRIPOS>ATOM
      1 N           6.9555   34.7905   54.7365 N.am      2 SEC2        0.0000 
      2 N           5.8830   36.1660   54.8540 N.am     10 SEL2        0.0000 
      3 N           8.0280   33.4150   54.6190 N.am      6 SEP2        0.0000 
      4 CA          3.9185   39.5635   53.3330 C.3       4 GLC5        0.0000 
      5 CA          4.8280   38.2270   54.4210 C.3      12 GLL5        0.0000 
      6 CA          3.0090   40.9000   52.2450 C.3       8 GLP5        0.0000 
      7 CA          4.2990   36.0815   56.2305 C.3       4 GLC5        0.0000 
      8 CA          5.9290   36.9110   56.0420 C.3      12 GLL5        0.0000 
      9 CA          2.6690   35.2520   56.4190 C.3       8 GLP5        0.0000 
     10 CA          5.9290   34.9490   56.6350 C.3       4 GLC5        0.0000 
     11 CA          5.9290   32.9870   57.2280 C.3       8 GLP5        0.0000 
     12 CA          8.4205   33.9955   60.4570 C.3       4 GLC5        0.0000 
     13 CA          8.3590   36.0320   60.1140 C.3      12 GLL5        0.0000 
     14 CA          8.4820   31.9590   60.8000 C.3       8 GLP5        0.0000 
     15 O           9.2470   36.2310   62.1390 O.2       1 ALC1        0.0000 
     16 O           9.5570   35.9710   60.8070 O.2       9 ALL1        0.0000 
     17 O           8.9370   36.4910   63.4710 O.2       5 ALP1        0.0000 
     18 N           7.1525   34.7370   61.9670 N.am      2 SEC2        0.0000 
     19 N           7.1760   35.7740   60.7170 N.am     10 SEL2        0.0000 
     20 N           7.1290   33.7000   63.2170 N.am      6 SEP2        0.0000 
     21 CA          5.7870   37.3855   61.1410 C.3       4 GLC5        0.0000 
     22 CA          5.9960   35.8030   60.1270 C.3      12 GLL5        0.0000 
     23 CA          5.5780   38.9680   62.1550 C.3       8 GLP5        0.0000 
     24 CA          6.1360   35.8065   62.1150 C.3       4 GLC5        0.0000 
     25 CA          6.2760   35.8100   64.1030 C.3       8 GLP5        0.0000 
     26 CA          6.0025   33.7540   60.7560 C.3       4 GLC5        0.0000 
     27 CA          6.0090   31.7050   61.3850 C.3       8 GLP5        0.0000 
     28 CA          5.9625   34.3950   58.6775 C.3       4 GLC5        0.0000 
     29 N           6.2215   36.8420   46.8235 N.am      2 SEC2        0.0000 
     30 N           6.2260   35.5690   47.5620 N.am     10 SEL2        0.0000 
     31 N           6.2170   38.1150   46.0850 N.am      6 SEP2        0.0000 
     32 N           2.8105   36.0110   48.7265 N.am      2 SEC2        0.0000 
     33 N           4.1490   36.0170   49.0430 N.am     10 SEL2        0.0000 
     34 N           1.4720   36.0050   48.4100 N.am      6 SEP2        0.0000 
     35 CA          5.4280   30.4305   49.8415 C.3       4 GLC5        0.0000 
     36 CA          5.9130   32.2270   50.2900 C.3      12 GLL5        0.0000 
     37 CA          4.9430   28.6340   49.3930 C.3       8 GLP5        0.0000 
     38 CA          8.3710   32.7790   52.5365 C.3       4 GLC5        0.0000 
     39 CA          7.3410   32.2890   50.8060 C.3      12 GLL5        0.0000 
     40 CA          9.4010   33.2690   54.2670 C.3       8 GLP5        0.0000 
     41 N           8.7660   30.1340   51.3450 N.am      2 SEC2        0.0000 
     42 N           7.6200   31.0650   51.4450 N.am     10 SEL2        0.0000 
     43 N           9.9120   29.2030   51.2450 N.am      6 SEP2        0.0000 
     44 O           6.5820   31.3000   52.2720 O.2       1 ALC1        0.0000 
     45 O           7.6200   31.0650   51.4450 O.2       9 ALL1        0.0000 
     46 O           5.5440   31.5350   53.0990 O.2       5 ALP1        0.0000 
     47 CA          9.5950   30.6865   49.8495 C.3       4 GLC5        0.0000 
     48 CA          8.1630   32.2590   49.5050 C.3      12 GLL5        0.0000 
     49 CA         11.0270   29.1140   50.1940 C.3       8 GLP5        0.0000 
     50 N          10.3550   31.4455   48.7220 N.am      2 SEC2        0.0000 
     51 N           9.4020   31.5900   49.7810 N.am     10 SEL2        0.0000 
     52 N          11.3080   31.3010   47.6630 N.am      6 SEP2        0.0000 
     53 N           9.6570   30.3965   50.5130 N.am      2 SEC2        0.0000 
     54 CA          5.5420   32.2015   47.4760 C.3       4 GLC5        0.0000 
     55 CA          7.2530   31.3490   48.6140 C.3      12 GLL5        0.0000 
     56 CA          3.8310   33.0540   46.3380 C.3       8 GLP5        0.0000 
     57 CA          6.0980   29.9915   49.0035 C.3       4 GLC5        0.0000 
     58 CA          6.0045   30.4340   47.0800 C.3       4 GLC5        0.0000 
     59 CA          4.7560   29.5190   45.5460 C.3       8 GLP5        0.0000 
     60 CA          8.8440   33.8180   47.4475 C.3       4 GLC5        0.0000 
     61 CA          7.4130   32.6070   46.4760 C.3      12 GLL5        0.0000 
     62 CA         10.2750   35.0290   48.4190 C.3       8 GLP5        0.0000 
     63 CA          6.8915   29.3005   45.2905 C.3       4 GLC5        0.0000 
     64 CA          8.3630   30.4360   45.1480 C.3      12 GLL5        0.0000 
     65 CA          5.4200   28.1650   45.4330 C.3       8 GLP5        0.0000 
     66 CA          6.4335   29.9160   46.0335 C.3       4 GLC5        0.0000 
     67 CA          8.1110   30.3130   46.5210 C.3      12 GLL5        0.0000 
     68 NZ          8.3975   40.6890   56.8350 N.4       3 LYC4        0.0000 
     69 NZ          7.3000   40.7810   55.8440 N.4      11 LYL4        0.0000 
     70 NZ          9.2290   40.1370   59.0290 N.4       7 LYP4        0.0000 
     71 N           8.3975   40.6890   56.8350 N.am      2 SEC2        0.0000 
     72 N           7.3000   40.7810   55.8440 N.am     10 SEL2        0.0000 
     73 N           9.4950   40.5970   57.8260 N.am      6 SEP2        0.0000 
     74 NZ          6.9845   40.7670   58.7080 N.4       3 LYC4        0.0000 
     75 NZ          5.9980   41.4290   57.9360 N.4      11 LYL4        0.0000 
     76 NZ          6.0410   42.6980   58.5235 N.4       3 LYC4        0.0000 
     77 NZ          5.2700   44.8390   58.5440 N.4       7 LYP4        0.0000 
     78 N           6.9845   40.7670   58.7080 N.am      2 SEC2        0.0000 
     79 N           5.9980   41.4290   57.9360 N.am     10 SEL2        0.0000 
     80 N           7.9710   40.1050   59.4800 N.am      6 SEP2        0.0000 
     81 N           5.1600   42.9380   57.8165 N.am      2 SEC2        0.0000 
     82 N           4.3220   44.4470   57.6970 N.am      6 SEP2        0.0000 
     83 N           6.0410   42.6980   58.5235 N.am      2 SEC2        0.0000 
     84 N           6.0840   43.9670   59.1110 N.am      6 SEP2        0.0000 
     85 NZ          5.5790   42.4425   53.9195 N.4       3 LYC4        0.0000 
     86 NZ          4.8920   41.8430   55.6020 N.4      11 LYL4        0.0000 
     87 NZ          6.2660   43.0420   52.2370 N.4       7 LYP4        0.0000 
     88 N           3.5265   41.8165   55.6285 N.am      2 SEC2        0.0000 
     89 N           4.8920   41.8430   55.6020 N.am     10 SEL2        0.0000 
     90 N           2.1610   41.7900   55.6550 N.am      6 SEP2        0.0000 
     91 N           4.6070   43.1450   56.6495 N.am      2 SEC2        0.0000 
     92 CA          3.8230   36.4000   55.2780 C.3       4 GLC5        0.0000 
     93 CA          6.7877   34.6668   57.8285 C.3       4 GLC5        0.0000 
     94 CA          8.2810   36.3320   58.7120 C.3      12 GLL5        0.0000 
     95 CA          7.6180   37.9367   59.7892 C.3       4 GLC5        0.0000 
     96 CA          7.0120   36.3610   58.1460 C.3      12 GLL5        0.0000 
     97 CA          7.5700   39.6020   60.7990 C.3       8 GLP5        0.0000 
     98 CA          8.7620   33.8050   50.1317 C.3       4 GLC5        0.0000 
     99 CA          9.7720   35.3360   50.1080 C.3       8 GLP5        0.0000 
    100 CA          5.6988   32.8590   46.0742 C.3       4 GLC5        0.0000 
    101 CA          6.3186   30.8305   45.3369 C.3       4 GLC5        0.0000 
    102 CA          9.6140   29.0723   45.9718 C.3       4 GLC5        0.0000 
    103 CA         10.9910   27.7700   46.1090 C.3       8 GLP5        0.0000 
@<TRIPOS>BOND
@<TRIPOS>SUBSTRUCTURE
     1 ALC1       15 GROUP        1 X    ALC  0     ROOT ALC X 1
     2 SEC2        1 GROUP        1 X    SEC  0     **** SEC X 2
     3 LYC4       68 GROUP        1 X    LYC  0     **** LYC X 4
     4 GLC5        4 GROUP        1 X    GLC  0     **** GLC X 6
     5 ALP1       17 GROUP        1 Y    ALP  0     ROOT ALP Y 8
     6 SEP2        3 GROUP        1 Y    SEP  0     **** SEP Y 9
     7 LYP4       70 GROUP        1 Y    LYP  0     **** LYP Y 11
     8 GLP5        6 GROUP        1 Y    GLP  0     **** GLP Y 13
     9 ALL1       16 GROUP        1 Z    ALL  0     ROOT ALL Z 15
    10 SEL2        2 GROUP        1 Z    SEL  0     **** SEL Z 16
    11 LYL4       69 GROUP        1 Z    LYL  0     **** LYL Z 18
    12 GLL5        5 GROUP        1 Z    GLL  0     **** GLL Z 20
@<TRIPOS>SET

