#    Name: 3bhi_NAP_1_ligand
#    Modification time : Mon Mar 24 19:34:00 2014

@<TRIPOS>MOLECULE
3bhi_NAP_1_ligand
   73    77     1     0     0
SMALL
NO_CHARGES


@<TRIPOS>ATOM
      1 PA          6.1070   38.3430   50.3220 P.3       1 NAP309      0.0000 
      2 O1A         5.3050   39.2700   49.5440 O.co2     1 NAP309      0.0000 
      3 O2A         7.3890   38.8670   50.8280 O.co2     1 NAP309      0.0000 
      4 O5B         5.3500   37.8430   51.6140 O.3       1 NAP309      0.0000 
      5 C5B         6.0130   36.9680   52.5800 C.3       1 NAP309      0.0000 
      6 C4B         5.1260   36.8690   53.8530 C.3       1 NAP309      0.0000 
      7 O4B         5.8830   36.1660   54.8540 O.3       1 NAP309      0.0000 
      8 C3B         4.8280   38.2270   54.4210 C.3       1 NAP309      0.0000 
      9 O3B         3.5060   38.3070   55.0120 O.3       1 NAP309      0.0000 
     10 C2B         5.8570   38.3640   55.5640 C.3       1 NAP309      0.0000 
     11 O2B         5.3820   39.3680   56.5720 O.3       1 NAP309      0.0000 
     12 C1B         5.9290   36.9110   56.0420 C.3       1 NAP309      0.0000 
     13 N9A         7.1490   36.7350   56.8910 N.pl3     1 NAP309      0.0000 
     14 C8A         8.4640   36.9190   56.6640 C.2       1 NAP309      0.0000 
     15 N7A         9.1790   36.6140   57.7470 N.2       1 NAP309      0.0000 
     16 C5A         8.2810   36.3320   58.7120 C.ar      1 NAP309      0.0000 
     17 C6A         8.3590   36.0320   60.1140 C.ar      1 NAP309      0.0000 
     18 N6A         9.5570   35.9710   60.8070 N.pl3     1 NAP309      0.0000 
     19 N1A         7.1760   35.7740   60.7170 N.ar      1 NAP309      0.0000 
     20 C2A         5.9960   35.8030   60.1270 C.ar      1 NAP309      0.0000 
     21 N3A         5.8920   36.1240   58.8550 N.ar      1 NAP309      0.0000 
     22 C4A         7.0120   36.3610   58.1460 C.ar      1 NAP309      0.0000 
     23 O3          6.4900   37.0350   49.4670 O.3       1 NAP309      0.0000 
     24 PN          5.6430   35.7830   48.8770 P.3       1 NAP309      0.0000 
     25 O1N         6.2260   35.5690   47.5620 O.co2     1 NAP309      0.0000 
     26 O2N         4.1490   36.0170   49.0430 O.co2     1 NAP309      0.0000 
     27 O5D         6.2150   34.6000   49.8360 O.3       1 NAP309      0.0000 
     28 C5D         5.4150   33.6290   50.5320 C.3       1 NAP309      0.0000 
     29 C4D         5.9130   32.2270   50.2900 C.3       1 NAP309      0.0000 
     30 O4D         5.9840   31.9850   48.8430 O.3       1 NAP309      0.0000 
     31 C3D         7.3410   32.2890   50.8060 C.3       1 NAP309      0.0000 
     32 O3D         7.6200   31.0650   51.4450 O.3       1 NAP309      0.0000 
     33 C2D         8.1630   32.2590   49.5050 C.3       1 NAP309      0.0000 
     34 O2D         9.4020   31.5900   49.7810 O.3       1 NAP309      0.0000 
     35 C1D         7.2530   31.3490   48.6140 C.3       1 NAP309      0.0000 
     36 N1N         7.5750   31.4000   47.1700 N.pl3     1 NAP309      0.0000 
     37 C2N         7.4130   32.6070   46.4760 C.ar      1 NAP309      0.0000 
     38 C3N         7.7200   32.7210   45.1450 C.ar      1 NAP309      0.0000 
     39 C7N         7.5250   34.0190   44.3990 C.2       1 NAP309      0.0000 
     40 O7N         6.9180   35.1090   44.8900 O.2       1 NAP309      0.0000 
     41 N7N         7.9980   34.0020   43.1800 N.am      1 NAP309      0.0000 
     42 C4N         8.1960   31.6200   44.4450 C.ar      1 NAP309      0.0000 
     43 C5N         8.3630   30.4360   45.1480 C.ar      1 NAP309      0.0000 
     44 C6N         8.1110   30.3130   46.5210 C.ar      1 NAP309      0.0000 
     45 P2B         5.9500   40.8600   56.4950 P.3       1 NAP309      0.0000 
     46 O1X         7.3000   40.7810   55.8440 O.co2     1 NAP309      0.0000 
     47 O2X         5.9980   41.4290   57.9360 O.co2     1 NAP309      0.0000 
     48 O3X         4.8920   41.8430   55.6020 O.co2     1 NAP309      0.0000 
     49 H           6.9774   37.3646   52.8788 H         1 NAP309      0.0000 
     50 H           6.1396   35.9652   52.1862 H         1 NAP309      0.0000 
     51 H           4.2334   36.3623   53.6139 H         1 NAP309      0.0000 
     52 H           5.0248   38.9738   53.7181 H         1 NAP309      0.0000 
     53 H           6.7810   38.6264   55.1194 H         1 NAP309      0.0000 
     54 H           5.0372   36.7566   56.6421 H         1 NAP309      0.0000 
     55 H           8.8388   37.2363   55.8105 H         1 NAP309      0.0000 
     56 H          10.3620   35.7137   60.2724 H         1 NAP309      0.0000 
     57 H           9.5131   36.1896   61.7819 H         1 NAP309      0.0000 
     58 H           5.1289   35.5664   60.6816 H         1 NAP309      0.0000 
     59 H           4.3601   33.6811   50.2098 H         1 NAP309      0.0000 
     60 H           5.4241   33.8155   51.6204 H         1 NAP309      0.0000 
     61 H           5.3711   31.5394   50.8093 H         1 NAP309      0.0000 
     62 H           7.5211   33.1305   51.3198 H         1 NAP309      0.0000 
     63 H           8.2175   33.1883   49.1045 H         1 NAP309      0.0000 
     64 H           7.2652   30.3853   49.0167 H         1 NAP309      0.0000 
     65 H           7.0485   33.4323   46.9978 H         1 NAP309      0.0000 
     66 H           7.9232   34.8572   42.6670 H         1 NAP309      0.0000 
     67 H           8.3911   33.1354   42.8726 H         1 NAP309      0.0000 
     68 H           8.4128   31.6802   43.4582 H         1 NAP309      0.0000 
     69 H           8.6953   29.5843   44.6298 H         1 NAP309      0.0000 
     70 H           8.3205   29.4494   47.0062 H         1 NAP309      0.0000 
     71 H           3.6254   38.8553   55.8397 H         1 NAP309      0.0000 
     72 H           6.9547   31.0041   52.1891 H         1 NAP309      0.0000 
     73 H          10.0275   32.3137   50.0724 H         1 NAP309      0.0000 
@<TRIPOS>BOND
     1    2    1 ar   
     2    3    1 ar   
     3    4    1 1    
     4   23    1 1    
     5    5    4 1    
     6    6    5 1    
     7   49    5 1    
     8   50    5 1    
     9    7    6 1    
    10    8    6 1    
    11   51    6 1    
    12   12    7 1    
    13    9    8 1    
    14   10    8 1    
    15   52    8 1    
    16   71    9 1    
    17   11   10 1    
    18   12   10 1    
    19   53   10 1    
    20   45   11 1    
    21   13   12 1    
    22   54   12 1    
    23   14   13 1    
    24   22   13 1    
    25   15   14 2    
    26   55   14 1    
    27   16   15 1    
    28   17   16 ar   
    29   22   16 ar   
    30   18   17 1    
    31   19   17 ar   
    32   56   18 1    
    33   57   18 1    
    34   20   19 ar   
    35   21   20 ar   
    36   58   20 1    
    37   22   21 ar   
    38   24   23 1    
    39   25   24 ar   
    40   26   24 ar   
    41   27   24 1    
    42   28   27 1    
    43   29   28 1    
    44   59   28 1    
    45   60   28 1    
    46   30   29 1    
    47   31   29 1    
    48   61   29 1    
    49   35   30 1    
    50   32   31 1    
    51   33   31 1    
    52   62   31 1    
    53   72   32 1    
    54   34   33 1    
    55   35   33 1    
    56   63   33 1    
    57   73   34 1    
    58   36   35 1    
    59   64   35 1    
    60   37   36 ar   
    61   44   36 ar   
    62   38   37 ar   
    63   65   37 1    
    64   39   38 1    
    65   42   38 ar   
    66   40   39 2    
    67   41   39 am   
    68   66   41 1    
    69   67   41 1    
    70   43   42 ar   
    71   68   42 1    
    72   44   43 ar   
    73   69   43 1    
    74   70   44 1    
    75   46   45 ar   
    76   47   45 ar   
    77   48   45 ar   
@<TRIPOS>SUBSTRUCTURE
     1 NAP309      1 GROUP   
@<TRIPOS>SET

