#    Name: 3gu6_ADP_1_INTS_M
#    Modification time : Tue Mar 25 12:57:50 2014

@<TRIPOS>MOLECULE
3gu6_ADP_1_INTS_M
   68     0    12     0     0
SMALL
NO_CHARGES


@<TRIPOS>ATOM
      1 NZ         17.6660   -0.2305    8.3240 N.4       3 LYC4        0.0000 
      2 NZ         16.8230   -0.7920    9.3430 N.4      11 LYL4        0.0000 
      3 NZ         18.5090    0.3310    7.3050 N.4       7 LYP4        0.0000 
      4 N          17.6660   -0.2305    8.3240 N.am      2 SEC2        0.0000 
      5 N          16.8230   -0.7920    9.3430 N.am     10 SEL2        0.0000 
      6 N          18.5090    0.3310    7.3050 N.am      6 SEP2        0.0000 
      7 NZ         19.0785    0.8785    8.4555 N.4       3 LYC4        0.0000 
      8 NZ         19.6480    1.4260    9.6060 N.4      11 LYL4        0.0000 
      9 N          19.0785    0.8785    8.4555 N.am      2 SEC2        0.0000 
     10 N          19.6480    1.4260    9.6060 N.am     10 SEL2        0.0000 
     11 NZ         19.4755   -0.3495    8.6870 N.4       3 LYC4        0.0000 
     12 NZ         20.4420   -1.0300   10.0690 N.4      11 LYL4        0.0000 
     13 CA         23.7220   -0.3470   14.0565 C.3       4 GLC5        0.0000 
     14 CA         22.1840    0.6350   13.5750 C.3      12 GLL5        0.0000 
     15 CA         25.2600   -1.3290   14.5380 C.3       8 GLP5        0.0000 
     16 O          21.8290    2.2660   16.5025 O.2       1 ALC1        0.0000 
     17 O          21.0370    2.0960   15.2020 O.2       9 ALL1        0.0000 
     18 O          22.6210    2.4360   17.8030 O.2       5 ALP1        0.0000 
     19 CA         23.0415    3.7490   16.0335 C.3       4 GLC5        0.0000 
     20 CA         23.1820    2.7080   14.1140 C.3      12 GLL5        0.0000 
     21 CA         22.9010    4.7900   17.9530 C.3       8 GLP5        0.0000 
     22 CA         23.5075    4.6615   14.5115 C.3       4 GLC5        0.0000 
     23 CA         23.8330    6.6150   14.9090 C.3       8 GLP5        0.0000 
     24 O          23.1970    2.4200   16.5950 O.2       1 ALC1        0.0000 
     25 O          23.7730    2.4040   15.3870 O.2       9 ALL1        0.0000 
     26 CA         26.1870    1.7140   12.8580 C.3       4 GLC5        0.0000 
     27 CA         23.9760    2.0390   12.9900 C.3      12 GLL5        0.0000 
     28 CA         28.3980    1.3890   12.7260 C.3       8 GLP5        0.0000 
     29 CA         24.6180    0.3550   13.7640 C.3       4 GLC5        0.0000 
     30 CA         24.6895    0.7695   11.4845 C.3       4 GLC5        0.0000 
     31 CA         25.4030   -0.5000    9.9790 C.3       8 GLP5        0.0000 
     32 CA         24.6440    7.2405    8.5080 C.3       4 GLC5        0.0000 
     33 CA         25.2650    5.4520    9.5670 C.3      12 GLL5        0.0000 
     34 CA         24.0230    9.0290    7.4490 C.3       8 GLP5        0.0000 
     35 CA         25.4490    7.6005    9.8435 C.3       4 GLC5        0.0000 
     36 CA         25.6330    9.7490   10.1200 C.3       8 GLP5        0.0000 
     37 CA         23.4425    6.5715   10.0665 C.3       4 GLC5        0.0000 
     38 CA         21.6200    7.6910   10.5660 C.3       8 GLP5        0.0000 
     39 O          25.6890    6.8290    7.6230 O.2       1 ALC1        0.0000 
     40 O          24.9120    6.0510    8.4040 O.2       9 ALL1        0.0000 
     41 O          26.4660    7.6070    6.8420 O.2       5 ALP1        0.0000 
     42 N          27.2405    7.1245   10.0875 N.am      2 SEC2        0.0000 
     43 N          26.3890    5.8130   10.2170 N.am     10 SEL2        0.0000 
     44 N          28.0920    8.4360    9.9580 N.am      6 SEP2        0.0000 
     45 CA         28.0640    3.9270   11.1050 C.3       4 GLC5        0.0000 
     46 CA         26.7430    5.2220   11.3850 C.3      12 GLL5        0.0000 
     47 CA         29.3850    2.6320   10.8250 C.3       8 GLP5        0.0000 
     48 CA         27.2095    4.4605    9.4970 C.3       4 GLC5        0.0000 
     49 CA         27.6760    3.6990    7.6090 C.3       8 GLP5        0.0000 
     50 CA         28.7020    5.5280   10.5735 C.3       4 GLC5        0.0000 
     51 CA         30.6610    5.8340    9.7620 C.3       8 GLP5        0.0000 
     52 CA         27.3230    7.2815   11.2330 C.3       4 GLC5        0.0000 
     53 CA         27.9030    9.3410   11.0810 C.3       8 GLP5        0.0000 
     54 CA         26.1775    5.9190   13.0575 C.3       4 GLC5        0.0000 
     55 CA         25.6120    6.6160   14.7300 C.3       8 GLP5        0.0000 
     56 CA         26.6300    2.5955   12.0755 C.3       4 GLC5        0.0000 
     57 CA         24.8620    3.8020   11.4250 C.3      12 GLL5        0.0000 
     58 CA         25.2370    5.2090   13.0775 C.3       4 GLC5        0.0000 
     59 CA         22.7715   -0.1280   11.4207 C.3       4 GLC5        0.0000 
     60 CA         23.9210   -0.5470    9.6400 C.3       8 GLP5        0.0000 
     61 CA         22.0785    3.6448   13.0026 C.3       4 GLC5        0.0000 
     62 CA         21.8220    2.0480   14.0030 C.3      12 GLL5        0.0000 
     63 CA         20.9180    5.0810   12.4810 C.3       8 GLP5        0.0000 
     64 CA         25.3493    2.4205   10.0585 C.3       4 GLC5        0.0000 
     65 CA         26.0610    0.7380    9.3220 C.3       8 GLP5        0.0000 
     66 CA         26.2575    4.3135    8.7375 C.3       4 GLC5        0.0000 
     67 CA         24.4130    4.4040   10.1650 C.3      12 GLL5        0.0000 
     68 CA         22.7778    4.5920   11.6380 C.3       4 GLC5        0.0000 
@<TRIPOS>BOND
@<TRIPOS>SUBSTRUCTURE
     1 ALC1       16 GROUP        1 X    ALC  0     ROOT ALC X 1
     2 SEC2        4 GROUP        1 X    SEC  0     **** SEC X 2
     3 LYC4        1 GROUP        1 X    LYC  0     **** LYC X 4
     4 GLC5       13 GROUP        1 X    GLC  0     **** GLC X 6
     5 ALP1       18 GROUP        1 Y    ALP  0     ROOT ALP Y 8
     6 SEP2        6 GROUP        1 Y    SEP  0     **** SEP Y 9
     7 LYP4        3 GROUP        1 Y    LYP  0     **** LYP Y 11
     8 GLP5       15 GROUP        1 Y    GLP  0     **** GLP Y 13
     9 ALL1       17 GROUP        1 Z    ALL  0     ROOT ALL Z 15
    10 SEL2        5 GROUP        1 Z    SEL  0     **** SEL Z 16
    11 LYL4        2 GROUP        1 Z    LYL  0     **** LYL Z 18
    12 GLL5       14 GROUP        1 Z    GLL  0     **** GLL Z 20
@<TRIPOS>SET

