#    Name: 3gu6_ADP_1_ligand
#    Modification time : Tue Mar 25 12:57:50 2014

@<TRIPOS>MOLECULE
3gu6_ADP_1_ligand
   39    41     1     0     0
SMALL
NO_CHARGES


@<TRIPOS>ATOM
      1 PB         17.4020   -1.3210   10.6390 P.3       1 ADP296      0.0000 
      2 O1B        18.2810   -2.5290   10.4330 O.co2     1 ADP296      0.0000 
      3 O2B        16.3810   -1.4800   11.7480 O.co2     1 ADP296      0.0000 
      4 O3B        16.8230   -0.7920    9.3430 O.co2     1 ADP296      0.0000 
      5 PA         19.7890    0.2520   10.5420 P.3       1 ADP296      0.0000 
      6 O1A        19.6480    1.4260    9.6060 O.co2     1 ADP296      0.0000 
      7 O2A        20.4420   -1.0300   10.0690 O.co2     1 ADP296      0.0000 
      8 O3A        18.3710   -0.1440   11.2050 O.3       1 ADP296      0.0000 
      9 O5'        20.6700    0.8050   11.7620 O.3       1 ADP296      0.0000 
     10 C5'        21.0600   -0.0530   12.8280 C.3       1 ADP296      0.0000 
     11 C4'        22.1840    0.6350   13.5750 C.3       1 ADP296      0.0000 
     12 O4'        23.3340    0.7890   12.7290 O.3       1 ADP296      0.0000 
     13 C3'        21.8220    2.0480   14.0030 C.3       1 ADP296      0.0000 
     14 O3'        21.0370    2.0960   15.2020 O.3       1 ADP296      0.0000 
     15 C2'        23.1820    2.7080   14.1140 C.3       1 ADP296      0.0000 
     16 O2'        23.7730    2.4040   15.3870 O.3       1 ADP296      0.0000 
     17 C1'        23.9760    2.0390   12.9900 C.3       1 ADP296      0.0000 
     18 N9         23.9470    2.8880   11.7640 N.pl3     1 ADP296      0.0000 
     19 C8         22.9990    2.8760   10.8000 C.2       1 ADP296      0.0000 
     20 N7         23.2750    3.7880    9.8280 N.2       1 ADP296      0.0000 
     21 C5         24.4130    4.4040   10.1650 C.ar      1 ADP296      0.0000 
     22 C6         25.2650    5.4520    9.5670 C.ar      1 ADP296      0.0000 
     23 N6         24.9120    6.0510    8.4040 N.pl3     1 ADP296      0.0000 
     24 N1         26.3890    5.8130   10.2170 N.ar      1 ADP296      0.0000 
     25 C2         26.7430    5.2220   11.3850 C.ar      1 ADP296      0.0000 
     26 N3         26.0140    4.2510   11.9770 N.ar      1 ADP296      0.0000 
     27 C4         24.8620    3.8020   11.4250 C.ar      1 ADP296      0.0000 
     28 H          21.4288   -1.0108   12.4654 H         1 ADP296      0.0000 
     29 H          20.2448   -0.2296   13.5274 H         1 ADP296      0.0000 
     30 H          22.4384    0.0730   14.4527 H         1 ADP296      0.0000 
     31 H          21.3182    2.5066   13.1538 H         1 ADP296      0.0000 
     32 H          23.0926    3.7269   13.9089 H         1 ADP296      0.0000 
     33 H          24.9772    1.9014   13.3240 H         1 ADP296      0.0000 
     34 H          22.2135    2.2890   10.7969 H         1 ADP296      0.0000 
     35 H          25.5269    6.7670    8.0735 H         1 ADP296      0.0000 
     36 H          24.0678    5.7240    7.9792 H         1 ADP296      0.0000 
     37 H          27.6411    5.5408   11.8576 H         1 ADP296      0.0000 
     38 H          21.6970    2.2500   15.9373 H         1 ADP296      0.0000 
     39 H          23.0417    2.5501   16.0532 H         1 ADP296      0.0000 
@<TRIPOS>BOND
     1    2    1 ar   
     2    3    1 ar   
     3    4    1 ar   
     4    8    1 1    
     5    6    5 ar   
     6    7    5 ar   
     7    8    5 1    
     8    9    5 1    
     9   10    9 1    
    10   11   10 1    
    11   28   10 1    
    12   29   10 1    
    13   12   11 1    
    14   13   11 1    
    15   30   11 1    
    16   17   12 1    
    17   14   13 1    
    18   15   13 1    
    19   31   13 1    
    20   38   14 1    
    21   16   15 1    
    22   17   15 1    
    23   32   15 1    
    24   39   16 1    
    25   18   17 1    
    26   33   17 1    
    27   19   18 1    
    28   27   18 1    
    29   20   19 2    
    30   34   19 1    
    31   21   20 1    
    32   22   21 ar   
    33   27   21 ar   
    34   23   22 1    
    35   24   22 ar   
    36   35   23 1    
    37   36   23 1    
    38   25   24 ar   
    39   26   25 ar   
    40   37   25 1    
    41   27   26 ar   
@<TRIPOS>SUBSTRUCTURE
     1 ADP296      1 GROUP   
@<TRIPOS>SET

