#    Name: 3da2_4MD_2_INTS_M
#    Modification time : Mon Mar 24 22:58:10 2014

@<TRIPOS>MOLECULE
3da2_4MD_2_INTS_M
   46     0    12     0     0
SMALL
NO_CHARGES


@<TRIPOS>ATOM
      1 CA         22.6160  -12.3175   14.1615 C.3       4 GLC5        0.0000 
      2 CA         23.0710  -10.4110   13.1350 C.3      12 GLL5        0.0000 
      3 CA         22.1610  -14.2240   15.1880 C.3       8 GLP5        0.0000 
      4 CA         18.9350  -10.1650   10.4270 C.3       4 GLC5        0.0000 
      5 CA         19.4180  -10.9950   11.7110 C.3      12 GLL5        0.0000 
      6 CA         18.4520   -9.3350    9.1430 C.3       8 GLP5        0.0000 
      7 CA         24.3525   -8.7580   13.7825 C.3       4 GLC5        0.0000 
      8 CA         24.1160  -10.0860   15.3890 C.3      12 GLL5        0.0000 
      9 CA         24.5890   -7.4300   12.1760 C.3       8 GLP5        0.0000 
     10 CA         23.4665  -11.8325   15.8675 C.3       4 GLC5        0.0000 
     11 CA         22.8170  -13.5790   16.3460 C.3       8 GLP5        0.0000 
     12 N          25.4375   -5.9455   17.4180 N.am      2 SEC2        0.0000 
     13 N          24.9110   -7.1610   17.7280 N.am     10 SEL2        0.0000 
     14 N          25.9640   -4.7300   17.1080 N.am      6 SEP2        0.0000 
     15 N          30.8620  -12.9000   17.5745 N.am      2 SEC2        0.0000 
     16 N          31.4890  -11.6640   17.2940 N.am     10 SEL2        0.0000 
     17 N          30.2350  -14.1360   17.8550 N.am      6 SEP2        0.0000 
     18 O          31.2675  -11.6445   19.7425 O.2       1 ALC1        0.0000 
     19 O          30.8830  -10.4000   19.3750 O.2       9 ALL1        0.0000 
     20 O          31.6520  -12.8890   20.1100 O.2       5 ALP1        0.0000 
     21 Zn         31.0540   -9.7025   19.6345 Zn        3 ZIC7        0.0000 
     22 Zn         30.8830  -10.4000   19.3750 Zn       11 ZIL7        0.0000 
     23 Zn         31.2250   -9.0050   19.8940 Zn        7 ZIP7        0.0000 
     24 CA         23.2175  -10.6397   11.1215 C.3       4 GLC5        0.0000 
     25 CA         23.9000  -10.7640    9.5350 C.3       8 GLP5        0.0000 
     26 CA         21.3878  -12.4565   14.3375 C.3       4 GLC5        0.0000 
     27 CA         20.7230  -10.7350   12.8010 C.3      12 GLL5        0.0000 
     28 CA         22.4035  -12.4231   12.1238 C.3       4 GLC5        0.0000 
     29 CA         23.1780  -14.2210   11.4930 C.3       8 GLP5        0.0000 
     30 CA         22.5230  -11.9755   15.5570 C.3       4 GLC5        0.0000 
     31 CA         22.8730  -10.3080   14.5070 C.3      12 GLL5        0.0000 
     32 CA         24.8595  -11.2989   14.5445 C.3       4 GLC5        0.0000 
     33 CA         26.1750  -12.3750   14.4840 C.3       8 GLP5        0.0000 
     34 CA         27.9002   -9.9097   15.4990 C.3       4 GLC5        0.0000 
     35 CA         26.7350   -8.8080   16.9360 C.3      12 GLL5        0.0000 
     36 CA         28.5100  -11.3210   14.3360 C.3       8 GLP5        0.0000 
     37 CA         26.6665  -10.5860   18.6185 C.3       4 GLC5        0.0000 
     38 CA         26.5150  -11.8050   19.8990 C.3       8 GLP5        0.0000 
     39 CA         28.8603  -10.2918   15.6790 C.3       4 GLC5        0.0000 
     40 CA         29.1210   -8.6930   16.6380 C.3      12 GLL5        0.0000 
     41 CA         28.0275  -10.7500   16.0998 C.3       4 GLC5        0.0000 
     42 CA         28.1890  -10.4320   17.9870 C.3      12 GLL5        0.0000 
     43 CA         27.6298  -10.9685   18.7978 C.3       4 GLC5        0.0000 
     44 CA         29.7149   -7.7823   16.1728 C.3       4 GLC5        0.0000 
     45 CA         29.3000   -9.8320   17.4060 C.3      12 GLL5        0.0000 
     46 CA         30.5380   -6.4280   15.3860 C.3       8 GLP5        0.0000 
@<TRIPOS>BOND
@<TRIPOS>SUBSTRUCTURE
     1 ALC1       18 GROUP        1 X    ALC  0     ROOT ALC X 1
     2 SEC2       12 GROUP        1 X    SEC  0     **** SEC X 2
     3 ZIC7       21 GROUP        1 X    ZIC  0     **** ZIC X 5
     4 GLC5        1 GROUP        1 X    GLC  0     **** GLC X 6
     5 ALP1       20 GROUP        1 Y    ALP  0     ROOT ALP Y 8
     6 SEP2       14 GROUP        1 Y    SEP  0     **** SEP Y 9
     7 ZIP7       23 GROUP        1 Y    ZIP  0     **** ZIP Y 12
     8 GLP5        3 GROUP        1 Y    GLP  0     **** GLP Y 13
     9 ALL1       19 GROUP        1 Z    ALL  0     ROOT ALL Z 15
    10 SEL2       13 GROUP        1 Z    SEL  0     **** SEL Z 16
    11 ZIL7       22 GROUP        1 Z    ZIL  0     **** ZIL Z 19
    12 GLL5        2 GROUP        1 Z    GLL  0     **** GLL Z 20
@<TRIPOS>SET

