#    Name: 3da2_4MD_2_ligand
#    Modification time : Mon Mar 24 22:58:10 2014

@<TRIPOS>MOLECULE
3da2_4MD_2_ligand
   37    38     1     0     0
SMALL
NO_CHARGES


@<TRIPOS>ATOM
      1 C1S        23.0710  -10.4110   13.1350 C.ar      1 4MD401      0.0000 
      2 C1V        21.9990  -10.6200   12.2810 C.ar      1 4MD401      0.0000 
      3 C1Q        20.7230  -10.7350   12.8010 C.ar      1 4MD401      0.0000 
      4 CL1R       19.4180  -10.9950   11.7110 Cl        1 4MD401      0.0000 
      5 C1U        20.5060  -10.6430   14.1730 C.ar      1 4MD401      0.0000 
      6 C1T        21.5850  -10.4360   15.0290 C.ar      1 4MD401      0.0000 
      7 C1P        22.8730  -10.3080   14.5070 C.ar      1 4MD401      0.0000 
      8 C1J        24.1160  -10.0860   15.3890 C.3       1 4MD401      0.0000 
      9 N1C        23.9360   -9.1790   16.5380 N.pl3     1 4MD401      0.0000 
     10 C1W        22.7050   -8.3660   16.4690 C.3       1 4MD401      0.0000 
     11 S1A        25.1860   -8.1140   16.6010 S.o2      1 4MD401      0.0000 
     12 O1F        24.9110   -7.1610   17.7280 O.2       1 4MD401      0.0000 
     13 O1G        25.2830   -7.3750   15.3020 O.2       1 4MD401      0.0000 
     14 C1D        26.7350   -8.8080   16.9360 C.ar      1 4MD401      0.0000 
     15 C1M        27.8460   -8.1890   16.3880 C.ar      1 4MD401      0.0000 
     16 C1N        29.1210   -8.6930   16.6380 C.ar      1 4MD401      0.0000 
     17 C1L        26.9010   -9.9260   17.7400 C.ar      1 4MD401      0.0000 
     18 C1O        28.1890  -10.4320   17.9870 C.ar      1 4MD401      0.0000 
     19 C1E        29.3000   -9.8320   17.4060 C.ar      1 4MD401      0.0000 
     20 S1B        30.9150  -10.3670   17.7250 S.o2      1 4MD401      0.0000 
     21 O1H        31.8230   -9.3250   17.1330 O.2       1 4MD401      0.0000 
     22 O1I        31.4890  -11.6640   17.2940 O.2       1 4MD401      0.0000 
     23 N1K        30.8830  -10.4000   19.3750 N.pl3     1 4MD401      0.0000 
     24 H          24.0264  -10.3309   12.7497 H         1 4MD401      0.0000 
     25 H          22.1537  -10.6888   11.2673 H         1 4MD401      0.0000 
     26 H          19.5570  -10.7271   14.5517 H         1 4MD401      0.0000 
     27 H          21.4345  -10.3775   16.0427 H         1 4MD401      0.0000 
     28 H          24.9336   -9.7109   14.7292 H         1 4MD401      0.0000 
     29 H          24.4612  -11.0866   15.7412 H         1 4MD401      0.0000 
     30 H          27.7340   -7.3553   15.7947 H         1 4MD401      0.0000 
     31 H          29.9449   -8.2061   16.2421 H         1 4MD401      0.0000 
     32 H          26.0868  -10.3909   18.1594 H         1 4MD401      0.0000 
     33 H          28.3022  -11.2486   18.6003 H         1 4MD401      0.0000 
     34 H          22.6139   -7.7621   17.2608 H         1 4MD401      0.0000 
     35 H          22.6881   -7.7860   15.6545 H         1 4MD401      0.0000 
     36 H          21.8843   -8.9366   16.4396 H         1 4MD401      0.0000 
     37 H          31.1634  -11.3279   19.6207 H         1 4MD401      0.0000 
@<TRIPOS>BOND
     1    2    1 ar   
     2    7    1 ar   
     3   24    1 1    
     4    3    2 ar   
     5   25    2 1    
     6    4    3 1    
     7    5    3 ar   
     8    6    5 ar   
     9   26    5 1    
    10    7    6 ar   
    11   27    6 1    
    12    8    7 1    
    13    9    8 1    
    14   28    8 1    
    15   29    8 1    
    16   10    9 1    
    17   11    9 1    
    18   34   10 1    
    19   35   10 1    
    20   36   10 1    
    21   12   11 2    
    22   13   11 2    
    23   14   11 1    
    24   15   14 ar   
    25   17   14 ar   
    26   16   15 ar   
    27   30   15 1    
    28   19   16 ar   
    29   31   16 1    
    30   18   17 ar   
    31   32   17 1    
    32   19   18 ar   
    33   33   18 1    
    34   20   19 1    
    35   21   20 2    
    36   22   20 2    
    37   23   20 1    
    38   37   23 1    
@<TRIPOS>SUBSTRUCTURE
     1 4MD401      1 GROUP   
@<TRIPOS>SET

