#    Name: 1xdk_REA_2_INTS_M
#    Modification time : Tue Mar 25 09:47:01 2014

@<TRIPOS>MOLECULE
1xdk_REA_2_INTS_M
   82     0     6     0     0
SMALL
NO_CHARGES


@<TRIPOS>ATOM
      1 CA         24.7270   27.3940  103.4635 C.3       2 GLC5        0.0000 
      2 CA         22.5470   27.4810  103.4380 C.3       6 GLL5        0.0000 
      3 CA         26.9070   27.3070  103.4890 C.3       4 GLP5        0.0000 
      4 CA         22.6370   26.0830  101.7390 C.3       2 GLC5        0.0000 
      5 CA         22.7270   24.6850  100.0400 C.3       4 GLP5        0.0000 
      6 CA         20.9150   26.7465  105.9750 C.3       2 GLC5        0.0000 
      7 CA         21.2420   26.8780  103.9700 C.3       6 GLL5        0.0000 
      8 CA         20.5880   26.6150  107.9800 C.3       4 GLP5        0.0000 
      9 CA         18.3895   26.1775  103.7940 C.3       2 GLC5        0.0000 
     10 CA         20.0690   27.1090  103.0550 C.3       6 GLL5        0.0000 
     11 CA         16.7100   25.2460  104.5330 C.3       4 GLP5        0.0000 
     12 CA         18.7730   31.0855  100.2995 C.3       2 GLC5        0.0000 
     13 CA         20.2050   31.7740  101.6980 C.3       6 GLL5        0.0000 
     14 CA         17.3410   30.3970   98.9010 C.3       4 GLP5        0.0000 
     15 CA         16.3225   33.4530  100.6490 C.3       2 GLC5        0.0000 
     16 CA         17.0800   34.7660  102.2670 C.3       6 GLL5        0.0000 
     17 CA         15.5650   32.1400   99.0310 C.3       4 GLP5        0.0000 
     18 CA         17.3645   35.0890  104.2920 C.3       2 GLC5        0.0000 
     19 CA         17.6490   35.4120  106.3170 C.3       4 GLP5        0.0000 
     20 CA         16.7570   37.0530  103.5810 C.3       2 GLC5        0.0000 
     21 CA         15.0870   35.6900  103.0870 C.3       6 GLL5        0.0000 
     22 CA         18.4270   38.4160  104.0750 C.3       4 GLP5        0.0000 
     23 CA         24.9770   30.0585  101.4530 C.3       2 GLC5        0.0000 
     24 CA         23.7350   29.0130  101.9230 C.3       6 GLL5        0.0000 
     25 CA         26.2190   31.1040  100.9830 C.3       4 GLP5        0.0000 
     26 CA         25.3210   28.1600  102.7060 C.3       2 GLC5        0.0000 
     27 CA         21.2985   30.4710  104.8045 C.3       2 GLC5        0.0000 
     28 CA         22.9610   29.8680  104.0910 C.3       6 GLL5        0.0000 
     29 CA         19.6360   31.0740  105.5180 C.3       4 GLP5        0.0000 
     30 CA         24.4785   30.7815  104.9830 C.3       2 GLC5        0.0000 
     31 CA         25.9960   31.6950  105.8750 C.3       4 GLP5        0.0000 
     32 CA         17.1080   28.8985  103.1760 C.3       2 GLC5        0.0000 
     33 CA         18.5220   28.6120  101.8900 C.3       6 GLL5        0.0000 
     34 CA         15.6940   29.1850  104.4620 C.3       4 GLP5        0.0000 
     35 CA         17.9315   29.5045  100.3955 C.3       2 GLC5        0.0000 
     36 CA         19.6170   33.1095   99.2085 C.3       2 GLC5        0.0000 
     37 CA         21.3650   33.4670  100.2040 C.3       6 GLL5        0.0000 
     38 CA         17.8690   32.7520   98.2130 C.3       4 GLP5        0.0000 
     39 CA         21.8550   33.7800   98.5805 C.3       2 GLC5        0.0000 
     40 CA         22.3450   34.0930   96.9570 C.3       4 GLP5        0.0000 
     41 CA         22.1870   33.7545  101.7400 C.3       2 GLC5        0.0000 
     42 CA         23.0090   34.0420  103.2760 C.3       4 GLP5        0.0000 
     43 CA         14.3465   33.0345  105.5105 C.3       2 GLC5        0.0000 
     44 CA         15.3970   33.2960  103.6410 C.3       6 GLL5        0.0000 
     45 CA         13.2960   32.7730  107.3800 C.3       4 GLP5        0.0000 
     46 CA         14.9315   31.6570  103.9430 C.3       2 GLC5        0.0000 
     47 CA         14.4660   30.0180  104.2450 C.3       4 GLP5        0.0000 
     48 CA         13.9200   32.9955  102.5390 C.3       2 GLC5        0.0000 
     49 CA         12.4430   32.6950  101.4370 C.3       4 GLP5        0.0000 
     50 N          11.6870   37.2455  103.3170 N.am      1 SEC2        0.0000 
     51 N          13.0250   36.7060  102.8640 N.am      5 SEL2        0.0000 
     52 N          10.3490   37.7850  103.7700 N.am      3 SEP2        0.0000 
     53 N          12.7900   37.0410  105.5095 N.am      1 SEC2        0.0000 
     54 N          13.4800   35.8340  104.9220 N.am      5 SEL2        0.0000 
     55 N          12.1000   38.2480  106.0970 N.am      3 SEP2        0.0000 
     56 CA         20.1092   28.4473  104.8818 C.3       2 GLC5        0.0000 
     57 CA         19.5630   29.9010  106.2510 C.3       4 GLP5        0.0000 
     58 CA         20.2628   29.9540  104.0094 C.3       2 GLC5        0.0000 
     59 CA         19.9620   28.4920  102.3810 C.3       6 GLL5        0.0000 
     60 CA         21.1348   30.1430   99.9493 C.3       2 GLC5        0.0000 
     61 CA         21.0870   29.3770  102.3090 C.3       6 GLL5        0.0000 
     62 CA         21.1870   30.2270   97.9150 C.3       4 GLP5        0.0000 
     63 CA         20.1387   31.1657  103.5980 C.3       2 GLC5        0.0000 
     64 CA         21.0780   30.7410  101.6580 C.3       6 GLL5        0.0000 
     65 CA         21.2643   32.6253  102.8795 C.3       2 GLC5        0.0000 
     66 CA         21.8870   33.9930  104.0810 C.3       4 GLP5        0.0000 
     67 CA         18.3509   33.1986   99.9319 C.3       2 GLC5        0.0000 
     68 CA         20.2130   33.0640  101.0850 C.3       6 GLL5        0.0000 
     69 CA         18.2545   36.1120  101.9193 C.3       2 GLC5        0.0000 
     70 CA         17.9640   33.7980  102.1000 C.3       6 GLL5        0.0000 
     71 CA         18.9870   37.9420  101.6550 C.3       4 GLP5        0.0000 
     72 CA         20.3599   33.8191  102.8659 C.3       2 GLC5        0.0000 
     73 CA         14.0285   34.6790  101.7722 C.3       2 GLC5        0.0000 
     74 CA         15.8030   34.6060  103.0220 C.3       6 GLL5        0.0000 
     75 CA         12.6120   34.2100  100.4900 C.3       4 GLP5        0.0000 
     76 CA         19.6619   27.2366  100.7360 C.3       2 GLC5        0.0000 
     77 CA         20.0550   26.2670   99.1680 C.3       4 GLP5        0.0000 
     78 CA         20.9870   31.5850   99.3564 C.3       2 GLC5        0.0000 
     79 CA         20.3286   35.5084  100.7529 C.3       2 GLC5        0.0000 
     80 CA         20.1240   37.5370  100.8030 C.3       4 GLP5        0.0000 
     81 CA         15.8810   35.0525  104.9169 C.3       2 GLC5        0.0000 
     82 CA         16.3410   35.8830  106.4860 C.3       4 GLP5        0.0000 
@<TRIPOS>BOND
@<TRIPOS>SUBSTRUCTURE
     1 SEC2       50 GROUP        1 X    SEC  0     ROOT SEC X 2
     2 GLC5        1 GROUP        1 X    GLC  0     **** GLC X 6
     3 SEP2       52 GROUP        1 Y    SEP  0     ROOT SEP Y 9
     4 GLP5        3 GROUP        1 Y    GLP  0     **** GLP Y 13
     5 SEL2       51 GROUP        1 Z    SEL  0     ROOT SEL Z 16
     6 GLL5        2 GROUP        1 Z    GLL  0     **** GLL Z 20
@<TRIPOS>SET

