#    Name: 1xdk_REA_2_ligand
#    Modification time : Tue Mar 25 09:47:01 2014

@<TRIPOS>MOLECULE
1xdk_REA_2_ligand
   49    49     1     0     0
SMALL
NO_CHARGES


@<TRIPOS>ATOM
      1 C1         22.5470   28.9750  102.9320 C.3       1 REA600      0.0000 
      2 C2         22.5470   27.4810  103.4380 C.3       1 REA600      0.0000 
      3 C3         21.2420   26.8780  103.9700 C.3       1 REA600      0.0000 
      4 C4         20.0690   27.1090  103.0550 C.3       1 REA600      0.0000 
      5 C5         19.9620   28.4920  102.3810 C.2       1 REA600      0.0000 
      6 C6         21.0870   29.3770  102.3090 C.2       1 REA600      0.0000 
      7 C7         21.0780   30.7410  101.6580 C.2       1 REA600      0.0000 
      8 C8         20.2050   31.7740  101.6980 C.2       1 REA600      0.0000 
      9 C9         20.2130   33.0640  101.0850 C.2       1 REA600      0.0000 
     10 C10        19.1900   33.9210  101.3180 C.2       1 REA600      0.0000 
     11 C11        17.9640   33.7980  102.1000 C.2       1 REA600      0.0000 
     12 C12        17.0800   34.7660  102.2670 C.2       1 REA600      0.0000 
     13 C13        15.8030   34.6060  103.0220 C.2       1 REA600      0.0000 
     14 C14        15.0870   35.6900  103.0870 C.2       1 REA600      0.0000 
     15 C15        13.8010   36.0880  103.6760 C.2       1 REA600      0.0000 
     16 C16        23.7350   29.0130  101.9230 C.3       1 REA600      0.0000 
     17 C17        22.9610   29.8680  104.0910 C.3       1 REA600      0.0000 
     18 C18        18.5220   28.6120  101.8900 C.3       1 REA600      0.0000 
     19 C19        21.3650   33.4670  100.2040 C.3       1 REA600      0.0000 
     20 C20        15.3970   33.2960  103.6410 C.3       1 REA600      0.0000 
     21 O1         13.0250   36.7060  102.8640 O.co2     1 REA600      0.0000 
     22 O2         13.4800   35.8340  104.9220 O.co2     1 REA600      0.0000 
     23 H          23.3346   27.3989  104.2296 H         1 REA600      0.0000 
     24 H          22.9245   26.8458  102.5968 H         1 REA600      0.0000 
     25 H          21.0318   27.3149  104.9579 H         1 REA600      0.0000 
     26 H          21.3898   25.7974  104.1159 H         1 REA600      0.0000 
     27 H          19.1207   26.9294  103.6193 H         1 REA600      0.0000 
     28 H          20.0731   26.3349  102.2483 H         1 REA600      0.0000 
     29 H          21.9887   30.8731  101.0340 H         1 REA600      0.0000 
     30 H          19.2945   31.6103  102.3249 H         1 REA600      0.0000 
     31 H          19.2680   34.9210  100.8345 H         1 REA600      0.0000 
     32 H          17.8224   32.8429  102.5437 H         1 REA600      0.0000 
     33 H          17.2213   35.7319  101.8708 H         1 REA600      0.0000 
     34 H          15.5399   36.6082  102.5569 H         1 REA600      0.0000 
     35 H          24.6022   28.7764  102.3612 H         1 REA600      0.0000 
     36 H          23.6025   28.3697  101.1689 H         1 REA600      0.0000 
     37 H          23.8493   29.9201  101.5178 H         1 REA600      0.0000 
     38 H          23.8739   29.6388  104.4288 H         1 REA600      0.0000 
     39 H          22.9793   30.8327  103.8284 H         1 REA600      0.0000 
     40 H          22.3331   29.7868  104.8651 H         1 REA600      0.0000 
     41 H          18.3577   29.4851  101.4310 H         1 REA600      0.0000 
     42 H          18.2905   27.8899  101.2380 H         1 REA600      0.0000 
     43 H          17.8665   28.5486  102.6425 H         1 REA600      0.0000 
     44 H          22.2336   33.4541  100.6993 H         1 REA600      0.0000 
     45 H          21.4653   32.8540   99.4203 H         1 REA600      0.0000 
     46 H          21.2488   34.3912   99.8403 H         1 REA600      0.0000 
     47 H          15.3147   32.5715  102.9566 H         1 REA600      0.0000 
     48 H          16.0620   32.9840  104.3196 H         1 REA600      0.0000 
     49 H          14.5137   33.3625  104.1052 H         1 REA600      0.0000 
@<TRIPOS>BOND
     1    2    1 1    
     2    6    1 1    
     3   16    1 1    
     4   17    1 1    
     5    3    2 1    
     6   23    2 1    
     7   24    2 1    
     8    4    3 1    
     9   25    3 1    
    10   26    3 1    
    11    5    4 1    
    12   27    4 1    
    13   28    4 1    
    14    6    5 2    
    15   18    5 1    
    16    7    6 1    
    17    8    7 2    
    18   29    7 1    
    19    9    8 1    
    20   30    8 1    
    21   10    9 2    
    22   19    9 1    
    23   11   10 1    
    24   31   10 1    
    25   12   11 2    
    26   32   11 1    
    27   13   12 1    
    28   33   12 1    
    29   14   13 2    
    30   20   13 1    
    31   15   14 1    
    32   34   14 1    
    33   21   15 ar   
    34   22   15 ar   
    35   35   16 1    
    36   36   16 1    
    37   37   16 1    
    38   38   17 1    
    39   39   17 1    
    40   40   17 1    
    41   41   18 1    
    42   42   18 1    
    43   43   18 1    
    44   44   19 1    
    45   45   19 1    
    46   46   19 1    
    47   47   20 1    
    48   48   20 1    
    49   49   20 1    
@<TRIPOS>SUBSTRUCTURE
     1 REA600      1 GROUP   
@<TRIPOS>SET

