#    Name: 1TD7_1_CAVITY_N1_6.mol2
#    Modification time : Tue Mar 11 10:47:40 2014

@<TRIPOS>MOLECULE
1TD7_1_CAVITY_N1_6.mol2
   59     0     7     0     0
SMALL
NO_CHARGES


@<TRIPOS>ATOM
      1 CA         10.1166    9.9098    3.9189 C.3       6 GLY6        0.0000 
      2 CA         11.2791   12.7210    5.3316 C.3       6 GLY6        0.0000 
      3 OD1         9.2783   12.1662    4.8967 O.3       3 ASP3        0.0000 
      4 DU         10.6069   11.9493    4.2349 H         7 CUB7        0.0000 
      5 CA         11.9354   11.7325    3.5732 C.3       6 GLY6        0.0000 
      6 CA         13.2640   11.5156    2.9114 C.3       6 GLY6        0.0000 
      7 CA          8.6061   11.3945    3.8000 C.3       6 GLY6        0.0000 
      8 CA          9.9347   11.1777    3.1383 C.3       6 GLY6        0.0000 
      9 CA         11.7694   14.7606    5.6476 C.3       6 GLY6        0.0000 
     10 CA          9.7686   14.2058    5.2126 C.3       6 GLY6        0.0000 
     11 CA         11.0972   13.9889    4.5509 C.3       6 GLY6        0.0000 
     12 CA         12.4258   13.7720    3.8892 C.3       6 GLY6        0.0000 
     13 N          13.7543   13.5551    3.2274 N.2       2 ALA2        0.0000 
     14 CA          7.7679   13.6510    4.7777 C.3       6 GLY6        0.0000 
     15 CA          9.0964   13.4341    4.1160 C.3       6 GLY6        0.0000 
     16 DU         10.4250   13.2172    3.4543 H         7 CUB7        0.0000 
     17 CA         11.7536   13.0003    2.7925 C.3       6 GLY6        0.0000 
     18 CZ          7.0957   12.8793    3.6811 C.ar      5 PHE5        0.0000 
     19 CA          8.4242   12.6624    3.0193 C.3       6 GLY6        0.0000 
     20 CA          9.7528   12.4455    2.3576 C.3       6 GLY6        0.0000 
     21 CA          7.7520   11.8907    1.9227 C.3       6 GLY6        0.0000 
     22 CA          9.5868   15.4736    4.4320 C.3       6 GLY6        0.0000 
     23 CA         10.9153   15.2567    3.7702 C.3       6 GLY6        0.0000 
     24 OG         12.2439   15.0399    3.1085 O.2       1 SER1        0.0000 
     25 CA          7.5860   14.9188    3.9971 C.3       6 GLY6        0.0000 
     26 CZ          8.9146   14.7019    3.3353 C.ar      5 PHE5        0.0000 
     27 DU         10.2431   14.4851    2.6736 H         7 CUB7        0.0000 
     28 CA         11.5717   14.2682    2.0118 C.3       6 GLY6        0.0000 
     29 CA          6.9138   14.1471    2.9004 C.3       6 GLY6        0.0000 
     30 DU          8.2424   13.9303    2.2387 H         7 CUB7        0.0000 
     31 CA          9.5709   13.7134    1.5769 C.3       6 GLY6        0.0000 
     32 CA         10.8995   13.4965    0.9152 C.3       6 GLY6        0.0000 
     33 CZ          6.2416   13.3754    1.8038 C.ar      5 PHE5        0.0000 
     34 CA          7.5702   13.1586    1.1420 C.3       6 GLY6        0.0000 
     35 CA         11.4056   17.2963    4.0862 C.3       6 GLY6        0.0000 
     36 OG         12.7342   17.0794    3.4245 O.2       1 SER1        0.0000 
     37 CZ         10.7334   16.5246    2.9896 C.ar      5 PHE5        0.0000 
     38 DU         12.0620   16.3077    2.3278 H         7 CUB7        0.0000 
     39 N          13.3906   16.0909    1.6661 N.2       2 ALA2        0.0000 
     40 CZ         10.0612   15.7529    1.8929 C.ar      5 PHE5        0.0000 
     41 O          11.3898   15.5360    1.2312 O.2       2 ALA2        0.0000 
     42 CA          6.7319   15.4150    2.1197 C.3       6 GLY6        0.0000 
     43 CZ          8.0605   15.1981    1.4580 C.ar      5 PHE5        0.0000 
     44 CZ          9.3890   14.9812    0.7963 C.ar      5 PHE5        0.0000 
     45 O          10.7176   14.7644    0.1345 O.2       2 ALA2        0.0000 
     46 CA          6.0597   14.6433    1.0231 C.3       6 GLY6        0.0000 
     47 CA          7.3883   14.4264    0.3613 C.3       6 GLY6        0.0000 
     48 N           8.7168   14.2096   -0.3004 N.2       2 ALA2        0.0000 
     49 O          11.8801   17.5756    1.5471 O.2       2 ALA2        0.0000 
     50 NZ         13.2087   17.3587    0.8854 N.2       4 LYS4        0.0000 
     51 CZ         11.2079   16.8039    0.4505 C.ar      5 PHE5        0.0000 
     52 O          12.5365   16.5870   -0.2113 O.2       2 ALA2        0.0000 
     53 CZ          9.2072   16.2491    0.0156 C.ar      5 PHE5        0.0000 
     54 CZ         10.5357   16.0322   -0.6462 C.ar      5 PHE5        0.0000 
     55 CA         11.8643   15.8153   -1.3079 C.3       6 GLY6        0.0000 
     56 CZ          8.5350   15.4774   -1.0811 C.ar      5 PHE5        0.0000 
     57 N           9.8635   15.2605   -1.7428 N.2       2 ALA2        0.0000 
     58 O          12.3546   17.8549   -0.9919 O.2       2 ALA2        0.0000 
     59 CZ         10.3538   17.3001   -1.4268 C.ar      5 PHE5        0.0000 
@<TRIPOS>BOND
@<TRIPOS>SUBSTRUCTURE
     1 SER1       24 GROUP   
     2 ALA2       13 GROUP   
     3 ASP3        3 GROUP   
     4 LYS4       50 GROUP   
     5 PHE5       18 GROUP   
     6 GLY6        1 GROUP   
     7 CUB7        4 GROUP   
@<TRIPOS>SET

