#    Name: 1td7_NFL_1_INTS_M
#    Modification time : Tue Mar 25 04:48:16 2014

@<TRIPOS>MOLECULE
1td7_NFL_1_INTS_M
   30     0     6     0     0
SMALL
NO_CHARGES


@<TRIPOS>ATOM
      1 CA          7.5965   11.6025    6.6515 C.3       2 GLC5        0.0000 
      2 CA          9.6370   10.8690    6.7250 C.3       6 GLL5        0.0000 
      3 CA          5.5560   12.3360    6.5780 C.3       4 GLP5        0.0000 
      4 CA         11.6115   13.4395    6.8660 C.3       2 GLC5        0.0000 
      5 CA         12.8760   12.2240    5.9670 C.3       6 GLL5        0.0000 
      6 CA         10.3470   14.6550    7.7650 C.3       4 GLP5        0.0000 
      7 CA         11.6080   13.2735    1.3340 C.3       2 GLC5        0.0000 
      8 CA          9.6240   13.9240    2.1130 C.3       6 GLL5        0.0000 
      9 CA         13.5920   12.6230    0.5550 C.3       4 GLP5        0.0000 
     10 N          12.4220   14.4940   -0.2015 N.am      1 SEC2        0.0000 
     11 N          11.4180   15.5370    0.2140 N.am      5 SEL2        0.0000 
     12 N          13.4260   13.4510   -0.6170 N.am      3 SEP2        0.0000 
     13 CA          5.8715   13.7265    3.7665 C.3       2 GLC5        0.0000 
     14 CA          7.3530   13.2680    2.3120 C.3       6 GLL5        0.0000 
     15 CA          4.3900   14.1850    5.2210 C.3       4 GLP5        0.0000 
     16 CA         10.5544   12.9289    7.6339 C.3       2 GLC5        0.0000 
     17 CA         11.2370   11.4250    8.1800 C.3       6 GLL5        0.0000 
     18 CA         10.8246   13.7132    6.1476 C.3       2 GLC5        0.0000 
     19 CA         11.5150   11.9890    5.8520 C.3       6 GLL5        0.0000 
     20 CA         13.2090   12.9089    2.4921 C.3       2 GLC5        0.0000 
     21 CA         11.4490   13.2950    3.7630 C.3       6 GLL5        0.0000 
     22 CA          9.2840   12.4430    0.7642 C.3       2 GLC5        0.0000 
     23 CA          9.1260   10.5970    0.0570 C.3       4 GLP5        0.0000 
     24 CA          6.2030   15.5095    0.3628 C.3       2 GLC5        0.0000 
     25 CA          7.9280   14.6030    0.4020 C.3       6 GLL5        0.0000 
     26 CA          4.9520   16.7620   -0.0480 C.3       4 GLP5        0.0000 
     27 CA          7.0060   13.7655   -0.9992 C.3       2 GLC5        0.0000 
     28 CA          6.9800   13.9110    1.1450 C.3       6 GLL5        0.0000 
     29 CA          6.5580   13.2740   -2.7720 C.3       4 GLP5        0.0000 
     30 CA          8.2647   12.1798    0.7999 C.3       2 GLC5        0.0000 
@<TRIPOS>BOND
@<TRIPOS>SUBSTRUCTURE
     1 SEC2       10 GROUP        1 X    SEC  0     ROOT SEC X 2
     2 GLC5        1 GROUP        1 X    GLC  0     **** GLC X 6
     3 SEP2       12 GROUP        1 Y    SEP  0     ROOT SEP Y 9
     4 GLP5        3 GROUP        1 Y    GLP  0     **** GLP Y 13
     5 SEL2       11 GROUP        1 Z    SEL  0     ROOT SEL Z 16
     6 GLL5        2 GROUP        1 Z    GLL  0     **** GLL Z 20
@<TRIPOS>SET

