#    Name: 1td7_NFL_1_ligand
#    Modification time : Tue Mar 25 04:48:16 2014

@<TRIPOS>MOLECULE
1td7_NFL_1_ligand
   28    29     1     0     0
SMALL
NO_CHARGES


@<TRIPOS>ATOM
      1 F3          9.6370   10.8690    6.7250 F         1 NFL2001     0.0000 
      2 C15        10.9360   11.0920    6.9260 C.3       1 NFL2001     0.0000 
      3 F1         11.5690    9.9370    6.7290 F         1 NFL2001     0.0000 
      4 F2         11.2370   11.4250    8.1800 F         1 NFL2001     0.0000 
      5 C9         11.5150   11.9890    5.8520 C.ar      1 NFL2001     0.0000 
      6 C10        10.7960   12.5070    4.7430 C.ar      1 NFL2001     0.0000 
      7 C11        11.4490   13.2950    3.7630 C.ar      1 NFL2001     0.0000 
      8 C12        12.8150   13.5120    3.9320 C.ar      1 NFL2001     0.0000 
      9 C13        13.5200   12.9860    5.0110 C.ar      1 NFL2001     0.0000 
     10 C14        12.8760   12.2240    5.9670 C.ar      1 NFL2001     0.0000 
     11 N2         10.9080   13.8960    2.6330 N.pl3     1 NFL2001     0.0000 
     12 C1          9.6240   13.9240    2.1130 C.ar      1 NFL2001     0.0000 
     13 N1          8.6180   13.2880    2.7560 N.ar      1 NFL2001     0.0000 
     14 C2          9.2600   14.6540    0.8300 C.ar      1 NFL2001     0.0000 
     15 C6         10.2270   15.4370   -0.0590 C.2       1 NFL2001     0.0000 
     16 O8         11.4180   15.5370    0.2140 O.co2     1 NFL2001     0.0000 
     17 O7          9.8340   15.9900   -1.0890 O.co2     1 NFL2001     0.0000 
     18 C3          7.9280   14.6030    0.4020 C.ar      1 NFL2001     0.0000 
     19 C4          6.9800   13.9110    1.1450 C.ar      1 NFL2001     0.0000 
     20 C5          7.3530   13.2680    2.3120 C.ar      1 NFL2001     0.0000 
     21 H           9.7959   12.3087    4.6514 H         1 NFL2001     0.0000 
     22 H          13.3249   14.0868    3.2275 H         1 NFL2001     0.0000 
     23 H          14.5337   13.1696    5.0937 H         1 NFL2001     0.0000 
     24 H          13.4013   11.8331    6.7591 H         1 NFL2001     0.0000 
     25 H          11.6545   14.4675    2.0266 H         1 NFL2001     0.0000 
     26 H           7.6550   15.0815   -0.4669 H         1 NFL2001     0.0000 
     27 H           6.0022   13.8781    0.8259 H         1 NFL2001     0.0000 
     28 H           6.6117   12.7556    2.8513 H         1 NFL2001     0.0000 
@<TRIPOS>BOND
     1    2    1 1    
     2    3    2 1    
     3    4    2 1    
     4    5    2 1    
     5    6    5 ar   
     6   10    5 ar   
     7    7    6 ar   
     8   21    6 1    
     9    8    7 ar   
    10   11    7 1    
    11    9    8 ar   
    12   22    8 1    
    13   10    9 ar   
    14   23    9 1    
    15   24   10 1    
    16   12   11 1    
    17   25   11 1    
    18   13   12 ar   
    19   14   12 ar   
    20   20   13 ar   
    21   15   14 1    
    22   18   14 ar   
    23   16   15 ar   
    24   17   15 ar   
    25   19   18 ar   
    26   26   18 1    
    27   20   19 ar   
    28   27   19 1    
    29   28   20 1    
@<TRIPOS>SUBSTRUCTURE
     1 NFL2001     1 GROUP   
@<TRIPOS>SET

