#    Name: 2y6q_I7T_4_INTS_M
#    Modification time : Tue Mar 25 07:44:35 2014

@<TRIPOS>MOLECULE
2y6q_I7T_4_INTS_M
   47     0     9     0     0
SMALL
NO_CHARGES


@<TRIPOS>ATOM
      1 CA          4.5835  -35.1145   15.7240 C.3       3 GLC5        0.0000 
      2 CA          2.8550  -35.1310   16.5670 C.3       9 GLL5        0.0000 
      3 CA          6.3120  -35.0980   14.8810 C.3       6 GLP5        0.0000 
      4 CA         -0.3595  -34.6760   16.9405 C.3       3 GLC5        0.0000 
      5 CA          0.6460  -35.1880   15.3220 C.3       9 GLL5        0.0000 
      6 CA         -1.3650  -34.1640   18.5590 C.3       6 GLP5        0.0000 
      7 CA         -1.6360  -33.6540   14.2470 C.3       3 GLC5        0.0000 
      8 CA          0.0030  -33.4060   13.6640 C.3       9 GLL5        0.0000 
      9 CA         -3.2750  -33.9020   14.8300 C.3       6 GLP5        0.0000 
     10 O           3.5095  -30.5165   13.1770 O.2       1 ALC1        0.0000 
     11 O           2.0120  -30.4870   12.7190 O.2       7 ALL1        0.0000 
     12 O           5.0070  -30.5460   13.6350 O.2       4 ALP1        0.0000 
     13 CA         -1.6210  -32.6080   13.3590 C.3       3 GLC5        0.0000 
     14 CA          0.4690  -32.2620   12.7560 C.3       9 GLL5        0.0000 
     15 CA         -3.7110  -32.9540   13.9620 C.3       6 GLP5        0.0000 
     16 CA         -2.3005  -32.4795   12.2845 C.3       3 GLC5        0.0000 
     17 CA         -0.7210  -31.6610   11.9440 C.3       9 GLL5        0.0000 
     18 CA         -3.8800  -33.2980   12.6250 C.3       6 GLP5        0.0000 
     19 CA         -2.8675  -32.5060   11.1955 C.3       3 GLC5        0.0000 
     20 CA         -1.8550  -31.7140    9.7660 C.3       9 GLL5        0.0000 
     21 CA         -3.4530  -30.4665    9.9680 C.3       3 GLC5        0.0000 
     22 CA         -5.0510  -29.2190   10.1700 C.3       6 GLP5        0.0000 
     23 CA          1.5230  -33.3195    8.9400 C.3       3 GLC5        0.0000 
     24 CA          0.1940  -32.8200    9.9640 C.3       9 GLL5        0.0000 
     25 CA          2.8520  -33.8190    7.9160 C.3       6 GLP5        0.0000 
     26 CA         -0.3800  -34.7050    9.5010 C.3       3 GLC5        0.0000 
     27 CA         -0.9540  -36.5900    9.0380 C.3       6 GLP5        0.0000 
     28 CA          1.6930  -31.4535    9.5000 C.3       3 GLC5        0.0000 
     29 CA          3.1920  -30.0870    9.0360 C.3       6 GLP5        0.0000 
     30 N          -2.0255  -28.7825   10.4245 N.am      2 SEC2        0.0000 
     31 N          -2.2670  -29.7380   11.7620 N.am      8 SEL2        0.0000 
     32 N          -1.7840  -27.8270    9.0870 N.am      5 SEP2        0.0000 
     33 CA         -2.3900  -30.6515   14.0005 C.3       3 GLC5        0.0000 
     34 CA         -0.8510  -29.7560   13.5890 C.3       9 GLL5        0.0000 
     35 CA         -3.9290  -31.5470   14.4120 C.3       6 GLP5        0.0000 
     36 CA          1.8585  -35.7215   13.0320 C.3       3 GLC5        0.0000 
     37 CA          1.1680  -34.1210   14.3410 C.3       9 GLL5        0.0000 
     38 CA          2.5490  -37.3220   11.7230 C.3       6 GLP5        0.0000 
     39 CA         -0.8635  -39.0950   15.0070 C.3       3 GLC5        0.0000 
     40 CA         -0.0850  -38.2590   16.4700 C.3       9 GLL5        0.0000 
     41 CA         -1.6420  -39.9310   13.5440 C.3       6 GLP5        0.0000 
     42 CA         -2.1020  -38.2300   16.6635 C.3       3 GLC5        0.0000 
     43 CA         -4.1190  -38.2010   16.8570 C.3       6 GLP5        0.0000 
     44 CA          0.1033  -35.3320   17.5428 C.3       3 GLC5        0.0000 
     45 CA          1.4580  -37.1540   16.8050 C.3       9 GLL5        0.0000 
     46 CA         -1.0730  -34.9188   14.6173 C.3       3 GLC5        0.0000 
     47 CA         -3.0530  -35.1830   14.4030 C.3       6 GLP5        0.0000 
@<TRIPOS>BOND
@<TRIPOS>SUBSTRUCTURE
     1 ALC1       10 GROUP        1 X    ALC  0     ROOT ALC X 1
     2 SEC2       30 GROUP        1 X    SEC  0     **** SEC X 2
     3 GLC5        1 GROUP        1 X    GLC  0     **** GLC X 6
     4 ALP1       12 GROUP        1 Y    ALP  0     ROOT ALP Y 8
     5 SEP2       32 GROUP        1 Y    SEP  0     **** SEP Y 9
     6 GLP5        3 GROUP        1 Y    GLP  0     **** GLP Y 13
     7 ALL1       11 GROUP        1 Z    ALL  0     ROOT ALL Z 15
     8 SEL2       31 GROUP        1 Z    SEL  0     **** SEL Z 16
     9 GLL5        2 GROUP        1 Z    GLL  0     **** GLL Z 20
@<TRIPOS>SET

