#    Name: 2y6q_I7T_4_ligand
#    Modification time : Tue Mar 25 07:44:35 2014

@<TRIPOS>MOLECULE
2y6q_I7T_4_ligand
   50    53     1     0     0
SMALL
NO_CHARGES


@<TRIPOS>ATOM
      1 O12         3.1090  -31.0750   15.1100 O.co2     1 I7T1385     0.0000 
      2 C12         2.2050  -31.9010   14.5880 C.2       1 I7T1385     0.0000 
      3 C1B         2.1760  -33.1920   14.9640 C.2       1 I7T1385     0.0000 
      4 C11         3.1200  -33.7590   15.9610 C.2       1 I7T1385     0.0000 
      5 O11         4.0370  -33.0540   16.4720 O.2       1 I7T1385     0.0000 
      6 C1A         2.8550  -35.1310   16.5670 C.ar      1 I7T1385     0.0000 
      7 C10         3.7900  -35.7170   17.4400 C.ar      1 I7T1385     0.0000 
      8 O10         4.9230  -35.0810   17.7840 O.co2     1 I7T1385     0.0000 
      9 C9          3.5660  -37.0020   17.9650 C.ar      1 I7T1385     0.0000 
     10 C8          2.4110  -37.7170   17.6510 C.ar      1 I7T1385     0.0000 
     11 C7          1.4580  -37.1540   16.8050 C.ar      1 I7T1385     0.0000 
     12 C61         1.6850  -35.8460   16.2480 C.ar      1 I7T1385     0.0000 
     13 C6          0.6460  -35.1880   15.3220 C.3       1 I7T1385     0.0000 
     14 C5          0.0030  -33.4060   13.6640 C.3       1 I7T1385     0.0000 
     15 C1C         1.2260  -31.2590   13.6090 C.3       1 I7T1385     0.0000 
     16 C1          0.2080  -30.3720   14.3380 C.2       1 I7T1385     0.0000 
     17 O1          0.2310  -30.1100   15.5290 O.2       1 I7T1385     0.0000 
     18 O1C         2.0120  -30.4870   12.7190 O.3       1 I7T1385     0.0000 
     19 C41         0.4690  -32.2620   12.7560 C.3       1 I7T1385     0.0000 
     20 C4         -0.7210  -31.6610   11.9440 C.3       1 I7T1385     0.0000 
     21 N4         -0.5410  -31.6440   10.4540 N.4       1 I7T1385     0.0000 
     22 C42        -1.8550  -31.7140    9.7660 C.3       1 I7T1385     0.0000 
     23 C43         0.1940  -32.8200    9.9640 C.3       1 I7T1385     0.0000 
     24 C3         -1.2690  -30.3310   12.4540 C.2       1 I7T1385     0.0000 
     25 O3         -2.2670  -29.7380   11.7620 O.co2     1 I7T1385     0.0000 
     26 C2         -0.8510  -29.7560   13.5890 C.2       1 I7T1385     0.0000 
     27 C21        -1.4500  -28.5100   14.0960 C.2       1 I7T1385     0.0000 
     28 C5A         1.1680  -34.1210   14.3410 C.3       1 I7T1385     0.0000 
     29 O21        -2.6270  -28.3120   13.8610 O.2       1 I7T1385     0.0000 
     30 I7         -0.0850  -38.2590   16.4700 I         1 I7T1385     0.0000 
     31 N21        -0.7710  -27.6130   14.8270 N.am      1 I7T1385     0.0000 
     32 H           4.2720  -37.4188   18.5933 H         1 I7T1385     0.0000 
     33 H           2.2639  -38.6537   18.0415 H         1 I7T1385     0.0000 
     34 H          -0.1479  -34.7291   15.9519 H         1 I7T1385     0.0000 
     35 H           0.1388  -35.9866   14.7367 H         1 I7T1385     0.0000 
     36 H          -0.5639  -34.1266   13.0652 H         1 I7T1385     0.0000 
     37 H          -0.6665  -33.0014   14.4303 H         1 I7T1385     0.0000 
     38 H           1.1770  -32.6990   12.0355 H         1 I7T1385     0.0000 
     39 H          -1.5941  -32.4122   12.1239 H         1 I7T1385     0.0000 
     40 H          -0.0379  -30.7497   10.1476 H         1 I7T1385     0.0000 
     41 H           1.6968  -34.6939   13.5288 H         1 I7T1385     0.0000 
     42 H           0.1867  -27.8320   15.0138 H         1 I7T1385     0.0000 
     43 H          -1.2833  -26.8056   15.1197 H         1 I7T1385     0.0000 
     44 H          -1.7544  -31.7028    8.7711 H         1 I7T1385     0.0000 
     45 H          -2.3532  -32.5487   10.0008 H         1 I7T1385     0.0000 
     46 H          -2.4434  -30.9431   10.0098 H         1 I7T1385     0.0000 
     47 H           1.1075  -32.8812   10.3662 H         1 I7T1385     0.0000 
     48 H          -0.2805  -33.6725   10.1834 H         1 I7T1385     0.0000 
     49 H           0.3118  -32.7972    8.9712 H         1 I7T1385     0.0000 
     50 H           2.9474  -30.5681   13.0631 H         1 I7T1385     0.0000 
@<TRIPOS>BOND
     1    2    1 ar   
     2    3    2 2    
     3   15    2 1    
     4    4    3 1    
     5   28    3 1    
     6    5    4 2    
     7    6    4 1    
     8    7    6 ar   
     9   12    6 ar   
    10    8    7 ar   
    11    9    7 ar   
    12   10    9 ar   
    13   32    9 1    
    14   11   10 ar   
    15   33   10 1    
    16   12   11 ar   
    17   30   11 1    
    18   13   12 1    
    19   28   13 1    
    20   34   13 1    
    21   35   13 1    
    22   19   14 1    
    23   28   14 1    
    24   36   14 1    
    25   37   14 1    
    26   16   15 1    
    27   18   15 1    
    28   19   15 1    
    29   17   16 2    
    30   26   16 1    
    31   50   18 1    
    32   20   19 1    
    33   38   19 1    
    34   21   20 1    
    35   24   20 1    
    36   39   20 1    
    37   22   21 1    
    38   23   21 1    
    39   40   21 1    
    40   44   22 1    
    41   45   22 1    
    42   46   22 1    
    43   47   23 1    
    44   48   23 1    
    45   49   23 1    
    46   25   24 ar   
    47   26   24 2    
    48   27   26 1    
    49   29   27 2    
    50   31   27 am   
    51   41   28 1    
    52   42   31 1    
    53   43   31 1    
@<TRIPOS>SUBSTRUCTURE
     1 I7T1385     1 GROUP   
@<TRIPOS>SET

