#    Name: 3gen_B43_1_INTS_M
#    Modification time : Tue Mar 25 07:40:55 2014

@<TRIPOS>MOLECULE
3gen_B43_1_INTS_M
   74     0     9     0     0
SMALL
NO_CHARGES


@<TRIPOS>ATOM
      1 O         -20.6735    4.0840  -16.9305 O.2       1 ALC1        0.0000 
      2 O         -19.3930    4.7490  -16.8150 O.2       7 ALL1        0.0000 
      3 O         -21.9540    3.4190  -17.0460 O.2       4 ALP1        0.0000 
      4 CA        -19.6385    5.9260  -19.0375 C.3       3 GLC5        0.0000 
      5 CA        -18.3580    5.0350  -17.6220 C.3       9 GLL5        0.0000 
      6 CA        -20.9190    6.8170  -20.4530 C.3       6 GLP5        0.0000 
      7 N         -19.6730    4.5235  -19.7430 N.am      2 SEC2        0.0000 
      8 N         -18.4720    4.6780  -18.9310 N.am      8 SEL2        0.0000 
      9 N         -20.8740    4.3690  -20.5550 N.am      5 SEP2        0.0000 
     10 CA        -16.2415    3.6155  -19.7490 C.3       3 GLC5        0.0000 
     11 CA        -17.5020    4.9300  -19.8220 C.3       9 GLL5        0.0000 
     12 CA        -14.9810    2.3010  -19.6760 C.3       6 GLP5        0.0000 
     13 CA        -19.2655    5.2565  -20.5880 C.3       3 GLC5        0.0000 
     14 CA        -21.0290    5.5830  -21.3540 C.3       6 GLP5        0.0000 
     15 CA        -15.6020    4.1075  -18.9035 C.3       3 GLC5        0.0000 
     16 CA        -16.2230    5.9140  -18.1310 C.3       9 GLL5        0.0000 
     17 CA        -16.9625    7.7000  -18.1440 C.3       3 GLC5        0.0000 
     18 CA        -17.7020    9.4860  -18.1570 C.3       6 GLP5        0.0000 
     19 CA        -15.2535    8.6315  -20.4250 C.3       3 GLC5        0.0000 
     20 CA        -14.0670    8.5010  -18.5480 C.3       9 GLL5        0.0000 
     21 CA        -16.4400    8.7620  -22.3020 C.3       6 GLP5        0.0000 
     22 CA        -12.8180    5.0695  -16.5145 C.3       3 GLC5        0.0000 
     23 CA        -12.7040    6.6720  -17.7220 C.3       9 GLL5        0.0000 
     24 CA        -12.9320    3.4670  -15.3070 C.3       6 GLP5        0.0000 
     25 CA        -16.5875    8.0930  -17.2035 C.3       3 GLC5        0.0000 
     26 CA        -15.4730    6.7000  -16.2500 C.3       9 GLL5        0.0000 
     27 CA        -18.0650    3.3195  -15.3310 C.3       3 GLC5        0.0000 
     28 CA        -17.6700    4.8840  -14.1250 C.3       9 GLL5        0.0000 
     29 CA        -18.4600    1.7550  -16.5370 C.3       6 GLP5        0.0000 
     30 CA        -21.6200    9.6455  -11.7145 C.3       3 GLC5        0.0000 
     31 CA        -21.8240    7.8810  -10.5460 C.3       9 GLL5        0.0000 
     32 CA        -21.4160   11.4100  -12.8830 C.3       6 GLP5        0.0000 
     33 CA        -18.1197    3.5540  -16.9675 C.3       3 GLC5        0.0000 
     34 CA        -17.2010    5.6710  -17.1740 C.3       9 GLL5        0.0000 
     35 CA        -18.6562    6.9330  -17.0590 C.3       3 GLC5        0.0000 
     36 CA        -19.5330    8.5130  -16.7200 C.3       6 GLP5        0.0000 
     37 CA        -12.9845    4.9212  -18.9245 C.3       3 GLC5        0.0000 
     38 CA        -14.0520    6.9970  -18.3400 C.3       9 GLL5        0.0000 
     39 CA        -12.5910    3.0080  -19.8180 C.3       6 GLP5        0.0000 
     40 CA        -15.8808    8.6175  -18.3005 C.3       3 GLC5        0.0000 
     41 CA        -13.8015   10.4712  -19.2350 C.3       3 GLC5        0.0000 
     42 CA        -14.2670   12.2370  -19.8870 C.3       6 GLP5        0.0000 
     43 CA        -10.4705    6.0315  -18.1183 C.3       3 GLC5        0.0000 
     44 CA        -11.7680    7.6640  -18.3770 C.3       9 GLL5        0.0000 
     45 CA         -8.7050    4.8950  -18.1870 C.3       6 GLP5        0.0000 
     46 CA        -15.9065    4.3072  -15.1052 C.3       3 GLC5        0.0000 
     47 CA        -17.2900    6.1110  -14.6740 C.3       9 GLL5        0.0000 
     48 CA        -14.3330    3.1170  -15.8110 C.3       6 GLP5        0.0000 
     49 CA        -16.6782    3.9943  -12.2333 C.3       3 GLC5        0.0000 
     50 CA        -15.4660    3.1530  -11.0020 C.3       6 GLP5        0.0000 
     51 CA        -16.6538    6.0145  -11.2095 C.3       3 GLC5        0.0000 
     52 CA        -18.2030    5.9130  -11.9900 C.3       9 GLL5        0.0000 
     53 CA        -15.3030    5.5020  -10.1670 C.3       6 GLP5        0.0000 
     54 CA        -19.6569    4.4336  -12.3261 C.3       3 GLC5        0.0000 
     55 CA        -21.2670    3.4930  -11.9250 C.3       6 GLP5        0.0000 
     56 CA        -18.3596    7.6019  -15.6490 C.3       3 GLC5        0.0000 
     57 CA        -17.3660    7.2350  -13.8380 C.3       9 GLL5        0.0000 
     58 CA        -19.7220    4.9028   -9.0312 C.3       3 GLC5        0.0000 
     59 CA        -19.8030    6.6210  -10.2870 C.3       9 GLL5        0.0000 
     60 CA        -19.6780    2.9920   -8.4450 C.3       6 GLP5        0.0000 
     61 CA        -20.7983    5.1640  -11.3068 C.3       3 GLC5        0.0000 
     62 CA        -22.2050    7.1065  -12.6220 C.3       3 GLC5        0.0000 
     63 CA        -20.8560    7.0490  -11.0900 C.3       9 GLL5        0.0000 
     64 CA        -23.0700    6.7480  -14.4260 C.3       6 GLP5        0.0000 
     65 CA        -20.5685    9.5955   -9.7775 C.3       3 GLC5        0.0000 
     66 CA        -19.3520   11.1080   -9.6710 C.3       6 GLP5        0.0000 
     67 CA        -21.9958    7.8895   -7.2305 C.3       3 GLC5        0.0000 
     68 CA        -21.7460    8.2850   -9.2220 C.3       9 GLL5        0.0000 
     69 CA        -22.7730    7.7080   -5.6350 C.3       6 GLP5        0.0000 
     70 CA        -19.7810    9.2698   -9.1800 C.3       3 GLC5        0.0000 
     71 CA        -20.6910    7.8570   -8.4300 C.3       9 GLL5        0.0000 
     72 CA        -18.4685    8.0687   -7.8315 C.3       3 GLC5        0.0000 
     73 CA        -16.7270    8.7060   -6.9740 C.3       6 GLP5        0.0000 
     74 CA        -15.3690    4.6169  -16.3451 C.3       3 GLC5        0.0000 
@<TRIPOS>BOND
@<TRIPOS>SUBSTRUCTURE
     1 ALC1        1 GROUP        1 X    ALC  0     ROOT ALC X 1
     2 SEC2        7 GROUP        1 X    SEC  0     **** SEC X 2
     3 GLC5        4 GROUP        1 X    GLC  0     **** GLC X 6
     4 ALP1        3 GROUP        1 Y    ALP  0     ROOT ALP Y 8
     5 SEP2        9 GROUP        1 Y    SEP  0     **** SEP Y 9
     6 GLP5        6 GROUP        1 Y    GLP  0     **** GLP Y 13
     7 ALL1        2 GROUP        1 Z    ALL  0     ROOT ALL Z 15
     8 SEL2        8 GROUP        1 Z    SEL  0     **** SEL Z 16
     9 GLL5        5 GROUP        1 Z    GLL  0     **** GLL Z 20
@<TRIPOS>SET

