#    Name: 3gen_B43_1_ligand
#    Modification time : Tue Mar 25 07:40:55 2014

@<TRIPOS>MOLECULE
3gen_B43_1_ligand
   50    54     1     0     0
SMALL
NO_CHARGES


@<TRIPOS>ATOM
      1 N1        -19.3930    4.7490  -16.8150 N.pl3     1 B431        0.0000 
      2 C1        -18.3580    5.0350  -17.6220 C.ar      1 B431        0.0000 
      3 N4        -18.4720    4.6780  -18.9310 N.ar      1 B431        0.0000 
      4 C23       -17.5020    4.9300  -19.8220 C.ar      1 B431        0.0000 
      5 N3        -16.3840    5.5440  -19.4320 N.ar      1 B431        0.0000 
      6 C22       -16.2230    5.9140  -18.1310 C.ar      1 B431        0.0000 
      7 C2        -17.2010    5.6710  -17.1740 C.ar      1 B431        0.0000 
      8 N2        -15.2090    6.5290  -17.5510 N.pl3     1 B431        0.0000 
      9 C17       -14.0520    6.9970  -18.3400 C.3       1 B431        0.0000 
     10 C21       -14.0670    8.5010  -18.5480 C.3       1 B431        0.0000 
     11 C20       -12.6050    8.9100  -18.6180 C.3       1 B431        0.0000 
     12 C19       -11.7680    7.6640  -18.3770 C.3       1 B431        0.0000 
     13 C18       -12.7040    6.6720  -17.7220 C.3       1 B431        0.0000 
     14 C16       -15.4730    6.7000  -16.2500 C.2       1 B431        0.0000 
     15 C3        -16.7230    6.1820  -15.9620 C.2       1 B431        0.0000 
     16 C4        -17.2900    6.1110  -14.6740 C.ar      1 B431        0.0000 
     17 C15       -17.6700    4.8840  -14.1250 C.ar      1 B431        0.0000 
     18 C14       -18.1110    4.7870  -12.8040 C.ar      1 B431        0.0000 
     19 C7        -18.2030    5.9130  -11.9900 C.ar      1 B431        0.0000 
     20 C6        -17.8060    7.1410  -12.5140 C.ar      1 B431        0.0000 
     21 C5        -17.3660    7.2350  -13.8380 C.ar      1 B431        0.0000 
     22 O         -18.8410    5.7800  -10.7740 O.3       1 B431        0.0000 
     23 C8        -19.8030    6.6210  -10.2870 C.ar      1 B431        0.0000 
     24 C13       -20.8560    7.0490  -11.0900 C.ar      1 B431        0.0000 
     25 C12       -21.8240    7.8810  -10.5460 C.ar      1 B431        0.0000 
     26 C11       -21.7460    8.2850   -9.2220 C.ar      1 B431        0.0000 
     27 C10       -20.6910    7.8570   -8.4300 C.ar      1 B431        0.0000 
     28 C9        -19.7290    7.0060   -8.9480 C.ar      1 B431        0.0000 
     29 H         -19.2867    5.0072  -15.8548 H         1 B431        0.0000 
     30 H         -20.1774    4.3035  -17.2465 H         1 B431        0.0000 
     31 H         -17.6250    4.6443  -20.8200 H         1 B431        0.0000 
     32 H         -14.0672    6.5418  -19.3395 H         1 B431        0.0000 
     33 H         -14.5361    8.9774  -17.7151 H         1 B431        0.0000 
     34 H         -14.5521    8.7345  -19.4703 H         1 B431        0.0000 
     35 H         -12.3962    9.6392  -17.8535 H         1 B431        0.0000 
     36 H         -12.3871    9.3086  -19.5944 H         1 B431        0.0000 
     37 H         -10.9603    7.8953  -17.7159 H         1 B431        0.0000 
     38 H         -11.4214    7.2769  -19.3113 H         1 B431        0.0000 
     39 H         -12.4203    5.6809  -17.9762 H         1 B431        0.0000 
     40 H         -12.7377    6.8402  -16.6742 H         1 B431        0.0000 
     41 H         -14.8971    7.1171  -15.5933 H         1 B431        0.0000 
     42 H         -17.6236    4.0306  -14.7091 H         1 B431        0.0000 
     43 H         -18.3740    3.8604  -12.4241 H         1 B431        0.0000 
     44 H         -17.8358    7.9848  -11.9258 H         1 B431        0.0000 
     45 H         -17.0875    8.1613  -14.2145 H         1 B431        0.0000 
     46 H         -20.9138    6.7535  -12.0668 H         1 B431        0.0000 
     47 H         -22.6112    8.2027  -11.1343 H         1 B431        0.0000 
     48 H         -22.4693    8.9011   -8.8276 H         1 B431        0.0000 
     49 H         -20.6233    8.1745   -7.4505 H         1 B431        0.0000 
     50 H         -18.9674    6.6595   -8.3566 H         1 B431        0.0000 
@<TRIPOS>BOND
     1    2    1 1    
     2   29    1 1    
     3   30    1 1    
     4    3    2 ar   
     5    7    2 ar   
     6    4    3 ar   
     7    5    4 ar   
     8   31    4 1    
     9    6    5 ar   
    10    7    6 ar   
    11    8    6 1    
    12   15    7 1    
    13    9    8 1    
    14   14    8 1    
    15   10    9 1    
    16   13    9 1    
    17   32    9 1    
    18   11   10 1    
    19   33   10 1    
    20   34   10 1    
    21   12   11 1    
    22   35   11 1    
    23   36   11 1    
    24   13   12 1    
    25   37   12 1    
    26   38   12 1    
    27   39   13 1    
    28   40   13 1    
    29   15   14 2    
    30   41   14 1    
    31   16   15 1    
    32   17   16 ar   
    33   21   16 ar   
    34   18   17 ar   
    35   42   17 1    
    36   19   18 ar   
    37   43   18 1    
    38   20   19 ar   
    39   22   19 1    
    40   21   20 ar   
    41   44   20 1    
    42   45   21 1    
    43   23   22 1    
    44   24   23 ar   
    45   28   23 ar   
    46   25   24 ar   
    47   46   24 1    
    48   26   25 ar   
    49   47   25 1    
    50   27   26 ar   
    51   48   26 1    
    52   28   27 ar   
    53   49   27 1    
    54   50   28 1    
@<TRIPOS>SUBSTRUCTURE
     1 B431        1 GROUP   
@<TRIPOS>SET

