#    Name: 1TWW_1_CAVITY_N1_6.mol2
#    Modification time : Tue Mar 11 12:33:05 2014

@<TRIPOS>MOLECULE
1TWW_1_CAVITY_N1_6.mol2
   68     0     7     0     0
SMALL
NO_CHARGES


@<TRIPOS>ATOM
      1 OG        -78.3996   87.3756   98.9012 O.2       1 SER1        0.0000 
      2 DU        -74.9520   88.7468   95.9459 H         7 CUB7        0.0000 
      3 OG        -76.3103   88.5248   96.5424 O.2       1 SER1        0.0000 
      4 OG        -77.6685   88.3028   97.1388 O.2       1 SER1        0.0000 
      5 DU        -79.0268   88.0808   97.7353 H         7 CUB7        0.0000 
      6 N         -80.3851   87.8589   98.3318 N.2       2 ALA2        0.0000 
      7 CZ        -75.5792   89.4520   94.7800 C.ar      5 PHE5        0.0000 
      8 CZ        -76.9375   89.2300   95.3765 C.ar      5 PHE5        0.0000 
      9 DU        -78.2958   89.0080   95.9730 H         7 CUB7        0.0000 
     10 DU        -79.6540   88.7861   96.5695 H         7 CUB7        0.0000 
     11 N         -81.0123   88.5641   97.1659 N.2       2 ALA2        0.0000 
     12 N         -82.3706   88.3421   97.7624 N.2       2 ALA2        0.0000 
     13 CZ        -77.5647   89.9352   94.2106 C.ar      5 PHE5        0.0000 
     14 OD1       -78.9230   89.7133   94.8071 O.3       3 ASP3        0.0000 
     15 CA        -80.2813   89.4913   95.4036 C.3       6 GLY6        0.0000 
     16 CA        -81.6396   89.2693   96.0001 C.3       6 GLY6        0.0000 
     17 DU        -75.0599   87.4416   95.2145 H         7 CUB7        0.0000 
     18 DU        -76.4182   87.2196   95.8109 H         7 CUB7        0.0000 
     19 O         -77.7764   86.9977   96.4074 O.2       2 ALA2        0.0000 
     20 O         -79.1347   86.7757   97.0039 O.2       2 ALA2        0.0000 
     21 O         -80.4930   86.5537   97.6004 O.2       2 ALA2        0.0000 
     22 CZ        -75.6871   88.1468   94.0486 C.ar      5 PHE5        0.0000 
     23 CZ        -77.0454   87.9249   94.6451 C.ar      5 PHE5        0.0000 
     24 O         -78.4037   87.7029   95.2416 O.2       2 ALA2        0.0000 
     25 O         -79.7620   87.4809   95.8380 O.2       2 ALA2        0.0000 
     26 O         -81.1202   87.2590   96.4345 O.2       2 ALA2        0.0000 
     27 OD1       -79.0309   88.4081   94.0757 O.3       3 ASP3        0.0000 
     28 CA        -81.7475   87.9642   95.2687 C.3       6 GLY6        0.0000 
     29 NZ        -75.1678   86.1365   94.4830 N.2       4 LYS4        0.0000 
     30 NZ        -76.5261   85.9145   95.0795 N.2       4 LYS4        0.0000 
     31 CA        -75.7950   86.8417   93.3172 C.3       6 GLY6        0.0000 
     32 CZ        -77.1533   86.6197   93.9137 C.ar      5 PHE5        0.0000 
     33 O         -78.5116   86.3978   94.5101 O.2       2 ALA2        0.0000 
     34 CZ        -77.7805   87.3250   92.7478 C.ar      5 PHE5        0.0000 
     35 OD1       -79.1388   87.1030   93.3443 O.3       3 ASP3        0.0000 
     36 O         -80.4971   86.8810   93.9408 O.2       2 ALA2        0.0000 
     37 CA        -77.2612   85.3146   93.1822 C.3       6 GLY6        0.0000 
     38 CA        -77.8884   86.0198   92.0164 C.3       6 GLY6        0.0000 
     39 O         -79.2467   85.7979   92.6129 O.2       2 ALA2        0.0000 
     40 CA        -78.5157   86.7251   90.8505 C.3       6 GLY6        0.0000 
     41 OD1       -79.8740   86.5031   91.4470 O.3       3 ASP3        0.0000 
     42 DU        -81.5276   90.2472  100.3911 H         7 CUB7        0.0000 
     43 CA        -82.8859   90.0252  100.9876 C.3       6 GLY6        0.0000 
     44 N         -82.1548   90.9524   99.2253 N.2       2 ALA2        0.0000 
     45 CA        -83.5131   90.7304   99.8217 C.3       6 GLY6        0.0000 
     46 CA        -81.4237   91.8796   97.4629 C.3       6 GLY6        0.0000 
     47 N         -82.7820   91.6576   98.0594 N.2       2 ALA2        0.0000 
     48 O         -77.3691   84.0095   92.4508 O.2       2 ALA2        0.0000 
     49 CA        -76.6381   84.9367   90.6885 C.3       6 GLY6        0.0000 
     50 CA        -77.9964   84.7147   91.2850 C.3       6 GLY6        0.0000 
     51 CA        -79.3546   84.4927   91.8814 C.3       6 GLY6        0.0000 
     52 CA        -78.6236   85.4199   90.1191 C.3       6 GLY6        0.0000 
     53 NZ        -79.9819   85.1980   90.7156 N.2       4 LYS4        0.0000 
     54 NZ        -78.1043   83.4096   90.5535 N.2       4 LYS4        0.0000 
     55 CA        -79.4626   83.1876   91.1500 C.3       6 GLY6        0.0000 
     56 N         -81.0083   88.2368  100.8256 N.2       2 ALA2        0.0000 
     57 OG        -78.9189   89.3860   98.4667 O.2       1 SER1        0.0000 
     58 N         -80.2772   89.1640   99.0632 N.2       2 ALA2        0.0000 
     59 N         -81.6355   88.9420   99.6597 N.2       2 ALA2        0.0000 
     60 N         -82.9938   88.7201  100.2562 N.2       2 ALA2        0.0000 
     61 DU        -78.1879   90.3132   96.7044 H         7 CUB7        0.0000 
     62 DU        -80.9044   89.8692   97.8974 H         7 CUB7        0.0000 
     63 N         -82.2627   89.6473   98.4938 N.2       2 ALA2        0.0000 
     64 N         -83.6210   89.4253   99.0903 N.2       2 ALA2        0.0000 
     65 DU        -78.8151   91.0184   95.5385 H         7 CUB7        0.0000 
     66 CA        -80.1734   90.7964   96.1350 C.3       6 GLY6        0.0000 
     67 CA        -81.5317   90.5745   96.7315 C.3       6 GLY6        0.0000 
     68 N         -82.8899   90.3525   97.3280 N.2       2 ALA2        0.0000 
@<TRIPOS>BOND
@<TRIPOS>SUBSTRUCTURE
     1 SER1        1 GROUP   
     2 ALA2        6 GROUP   
     3 ASP3       14 GROUP   
     4 LYS4       29 GROUP   
     5 PHE5        7 GROUP   
     6 GLY6       15 GROUP   
     7 CUB7        2 GROUP   
@<TRIPOS>SET

