#    Name: 1tww_HH2_1_INTS_M
#    Modification time : Tue Mar 25 05:45:26 2014

@<TRIPOS>MOLECULE
1tww_HH2_1_INTS_M
   46     0    12     0     0
SMALL
NO_CHARGES


@<TRIPOS>ATOM
      1 N         -79.9230   87.8785   92.4885 N.am      2 SEC2        0.0000 
      2 N         -78.9800   86.7990   93.0030 N.am     10 SEL2        0.0000 
      3 N         -80.8660   88.9580   91.9740 N.am      6 SEP2        0.0000 
      4 CA        -75.7450   86.1145   92.8445 C.3       4 GLC5        0.0000 
      5 CA        -77.0980   86.2180   94.4000 C.3      12 GLL5        0.0000 
      6 CA        -74.3920   86.0110   91.2890 C.3       8 GLP5        0.0000 
      7 N         -76.8220   82.3785   92.0970 N.am      2 SEC2        0.0000 
      8 N         -77.3060   83.8400   91.7450 N.am     10 SEL2        0.0000 
      9 N         -76.3380   80.9170   92.4490 N.am      6 SEP2        0.0000 
     10 O         -76.8110   81.7440   90.0640 O.2       1 ALC1        0.0000 
     11 O         -77.7850   82.5600   89.8730 O.2       9 ALL1        0.0000 
     12 O         -75.8370   80.9280   90.2550 O.2       5 ALP1        0.0000 
     13 O         -78.8115   83.1295   88.9100 O.2       1 ALC1        0.0000 
     14 O         -79.8380   83.6990   87.9470 O.2       5 ALP1        0.0000 
     15 O         -79.4910   84.0515   89.1405 O.2       1 ALC1        0.0000 
     16 O         -79.1440   84.4040   90.3340 O.2       9 ALL1        0.0000 
     17 N         -80.6905   87.5950   91.3860 N.am      2 SEC2        0.0000 
     18 N         -80.5150   86.2320   90.7980 N.am     10 SEL2        0.0000 
     19 CA        -77.5590   88.9765   93.4075 C.3       4 GLC5        0.0000 
     20 CA        -78.5230   88.2320   94.9380 C.3      12 GLL5        0.0000 
     21 CA        -76.5950   89.7210   91.8770 C.3       8 GLP5        0.0000 
     22 NZ        -80.3420   85.8135   96.1965 N.4       3 LYC4        0.0000 
     23 NZ        -80.3370   87.0670   97.0780 N.4      11 LYL4        0.0000 
     24 NZ        -79.4270   83.6010   95.3810 N.4       7 LYP4        0.0000 
     25 N         -80.3420   85.8135   96.1965 N.am      2 SEC2        0.0000 
     26 N         -80.3370   87.0670   97.0780 N.am     10 SEL2        0.0000 
     27 N         -80.3470   84.5600   95.3150 N.am      6 SEP2        0.0000 
     28 N         -81.3715   86.1890   99.7605 N.am      2 SEC2        0.0000 
     29 N         -80.1570   86.2940   99.4810 N.am     10 SEL2        0.0000 
     30 N         -82.5860   86.0840  100.0400 N.am      6 SEP2        0.0000 
     31 NZ        -78.3580   84.7340   97.0250 N.4       3 LYC4        0.0000 
     32 NZ        -78.2870   85.7700   97.8000 N.4      11 LYL4        0.0000 
     33 N         -79.3170   85.1650   96.5575 N.am      2 SEC2        0.0000 
     34 N         -78.2870   85.7700   97.8000 N.am     10 SEL2        0.0000 
     35 N         -78.3580   84.7340   97.0250 N.am      2 SEC2        0.0000 
     36 N         -78.4290   83.6980   96.2500 N.am      6 SEP2        0.0000 
     37 CA        -80.1500   88.3822   93.7508 C.3       4 GLC5        0.0000 
     38 CA        -78.1890   87.0370   94.0870 C.3      12 GLL5        0.0000 
     39 CA        -81.9440   89.1300   92.9890 C.3       8 GLP5        0.0000 
     40 CA        -76.2655   85.6697   91.8330 C.3       4 GLC5        0.0000 
     41 CA        -78.6870   85.7470   92.2180 C.3      12 GLL5        0.0000 
     42 CA        -77.6440   86.0907   90.5330 C.3       4 GLC5        0.0000 
     43 CA        -77.5910   84.9100   92.5360 C.3      12 GLL5        0.0000 
     44 CA        -77.1490   86.8530   88.6890 C.3       8 GLP5        0.0000 
     45 CA        -79.3025   83.8353   92.9710 C.3       4 GLC5        0.0000 
     46 CA        -80.4660   82.3420   93.5650 C.3       8 GLP5        0.0000 
@<TRIPOS>BOND
@<TRIPOS>SUBSTRUCTURE
     1 ALC1       10 GROUP        1 X    ALC  0     ROOT ALC X 1
     2 SEC2        1 GROUP        1 X    SEC  0     **** SEC X 2
     3 LYC4       22 GROUP        1 X    LYC  0     **** LYC X 4
     4 GLC5        4 GROUP        1 X    GLC  0     **** GLC X 6
     5 ALP1       12 GROUP        1 Y    ALP  0     ROOT ALP Y 8
     6 SEP2        3 GROUP        1 Y    SEP  0     **** SEP Y 9
     7 LYP4       24 GROUP        1 Y    LYP  0     **** LYP Y 11
     8 GLP5        6 GROUP        1 Y    GLP  0     **** GLP Y 13
     9 ALL1       11 GROUP        1 Z    ALL  0     ROOT ALL Z 15
    10 SEL2        2 GROUP        1 Z    SEL  0     **** SEL Z 16
    11 LYL4       23 GROUP        1 Z    LYL  0     **** LYL Z 18
    12 GLL5        5 GROUP        1 Z    GLL  0     **** GLL Z 20
@<TRIPOS>SET

