#    Name: 1tww_HH2_1_ligand
#    Modification time : Tue Mar 25 05:45:26 2014

@<TRIPOS>MOLECULE
1tww_HH2_1_ligand
   28    29     1     0     0
SMALL
NO_CHARGES


@<TRIPOS>ATOM
      1 N1        -78.9800   86.7990   93.0030 N.ar      1 HH2282      0.0000 
      2 C2        -78.1890   87.0370   94.0870 C.ar      1 HH2282      0.0000 
      3 C3        -77.0980   86.2180   94.4000 C.ar      1 HH2282      0.0000 
      4 N4        -76.8150   85.1770   93.6200 N.ar      1 HH2282      0.0000 
      5 N5        -77.3060   83.8400   91.7450 N.2       1 HH2282      0.0000 
      6 C6        -78.0690   83.6110   90.6530 C.2       1 HH2282      0.0000 
      7 N6        -77.7850   82.5600   89.8730 N.pl3     1 HH2282      0.0000 
      8 N7        -79.1440   84.4040   90.3340 N.am      1 HH2282      0.0000 
      9 C8        -79.4780   85.4760   91.1060 C.2       1 HH2282      0.0000 
     10 O8        -80.5150   86.2320   90.7980 O.2       1 HH2282      0.0000 
     11 C9        -78.6870   85.7470   92.2180 C.ar      1 HH2282      0.0000 
     12 C10       -77.5910   84.9100   92.5360 C.ar      1 HH2282      0.0000 
     13 C11       -78.5230   88.2320   94.9380 C.3       1 HH2282      0.0000 
     14 O4        -77.7720   88.1880   96.1410 O.3       1 HH2282      0.0000 
     15 P1        -78.1870   89.0390   97.4600 P.3       1 HH2282      0.0000 
     16 O1P       -79.4290   89.9170   97.2060 O.co2     1 HH2282      0.0000 
     17 O2P       -76.8580   89.6210   97.9920 O.co2     1 HH2282      0.0000 
     18 O3P       -78.6260   87.9590   98.5570 O.3       1 HH2282      0.0000 
     19 P2        -79.4220   86.6530   98.1970 P.3       1 HH2282      0.0000 
     20 O4P       -80.3370   87.0670   97.0780 O.co2     1 HH2282      0.0000 
     21 O5P       -80.1570   86.2940   99.4810 O.co2     1 HH2282      0.0000 
     22 O6P       -78.2870   85.7700   97.8000 O.co2     1 HH2282      0.0000 
     23 H         -76.5357   86.4458   95.2368 H         1 HH2282      0.0000 
     24 H         -78.3745   82.4319   89.0755 H         1 HH2282      0.0000 
     25 H         -77.0089   81.9975   90.1580 H         1 HH2282      0.0000 
     26 H         -79.7098   84.1786   89.4879 H         1 HH2282      0.0000 
     27 H         -79.6047   88.2212   95.1348 H         1 HH2282      0.0000 
     28 H         -78.3040   89.1390   94.3564 H         1 HH2282      0.0000 
@<TRIPOS>BOND
     1    2    1 ar   
     2   11    1 ar   
     3    3    2 ar   
     4   13    2 1    
     5    4    3 ar   
     6   23    3 1    
     7   12    4 ar   
     8    6    5 2    
     9   12    5 1    
    10    7    6 1    
    11    8    6 1    
    12   24    7 1    
    13   25    7 1    
    14    9    8 am   
    15   26    8 1    
    16   10    9 2    
    17   11    9 1    
    18   12   11 ar   
    19   14   13 1    
    20   27   13 1    
    21   28   13 1    
    22   15   14 1    
    23   16   15 ar   
    24   17   15 ar   
    25   18   15 1    
    26   19   18 1    
    27   20   19 ar   
    28   21   19 ar   
    29   22   19 ar   
@<TRIPOS>SUBSTRUCTURE
     1 HH2282      1 GROUP   
@<TRIPOS>SET

