#    Name: 3TZF_1_CAVITY_N1_6.mol2
#    Modification time : Tue Mar 11 05:37:38 2014

@<TRIPOS>MOLECULE
3TZF_1_CAVITY_N1_6.mol2
   42     0     5     0     0
SMALL
NO_CHARGES


@<TRIPOS>ATOM
      1 CA          8.3571   11.9955   41.2837 C.3       5 GLY6        0.0000 
      2 CA          9.6185   11.2841   41.6746 C.3       5 GLY6        0.0000 
      3 OG         13.1356   13.3212   45.5450 O.2       1 SER1        0.0000 
      4 OD1        14.3970   12.6097   45.9358 O.3       3 ASP3        0.0000 
      5 CZ         10.5512   13.9399   43.4986 C.ar      4 PHE5        0.0000 
      6 CZ         11.8125   13.2284   43.8894 C.ar      4 PHE5        0.0000 
      7 CZ         13.0739   12.5170   44.2803 C.ar      4 PHE5        0.0000 
      8 OD1        14.3353   11.8056   44.6711 O.3       3 ASP3        0.0000 
      9 CZ          9.2281   13.8472   41.8430 C.ar      4 PHE5        0.0000 
     10 CA         10.4895   13.1357   42.2338 C.3       5 GLY6        0.0000 
     11 CA         11.7509   12.4243   42.6247 C.3       5 GLY6        0.0000 
     12 CZ         13.0123   11.7129   43.0155 C.ar      4 PHE5        0.0000 
     13 CZ         14.2737   11.0015   43.4063 C.ar      4 PHE5        0.0000 
     14 CA          9.1664   13.0430   40.5783 C.3       5 GLY6        0.0000 
     15 CA         11.6892   11.6202   41.3599 C.3       5 GLY6        0.0000 
     16 OG         13.9450   14.3686   44.8395 O.2       1 SER1        0.0000 
     17 CZ         12.6219   14.2759   43.1840 C.ar      4 PHE5        0.0000 
     18 O          13.8833   13.5645   43.5748 O.2       2 ALA2        0.0000 
     19 OD1        15.1447   12.8531   43.9656 O.3       3 ASP3        0.0000 
     20 CA         12.5603   13.4718   41.9192 C.3       5 GLY6        0.0000 
     21 O          13.8217   12.7604   42.3100 O.2       2 ALA2        0.0000 
     22 O          15.0830   12.0489   42.7009 O.2       2 ALA2        0.0000 
     23 CA         13.7600   11.9562   41.0453 C.3       5 GLY6        0.0000 
     24 CZ         15.0214   11.2448   41.4361 C.ar      4 PHE5        0.0000 
     25 CZ         13.4313   15.3234   42.4785 C.ar      4 PHE5        0.0000 
     26 O          14.6927   14.6120   42.8693 O.2       2 ALA2        0.0000 
     27 O          14.5694   13.0037   40.3398 O.2       2 ALA2        0.0000 
     28 CA          8.0614    9.9933   44.3502 C.3       5 GLY6        0.0000 
     29 CA          8.4518    7.4302   44.1818 C.3       5 GLY6        0.0000 
     30 CA          8.8708   11.0407   43.6448 C.3       5 GLY6        0.0000 
     31 CZ         10.1322   10.3293   44.0356 C.ar      4 PHE5        0.0000 
     32 CA          8.8091   10.2366   42.3800 C.3       5 GLY6        0.0000 
     33 O          12.3262   12.2737   46.2505 O.2       2 ALA2        0.0000 
     34 OG         13.5876   11.5622   46.6413 O.2       1 SER1        0.0000 
     35 N           8.4804   13.6038   43.8132 N.2       2 ALA2        0.0000 
     36 CA          9.7418   12.8924   44.2041 C.3       5 GLY6        0.0000 
     37 CA         11.0032   12.1810   44.5949 C.3       5 GLY6        0.0000 
     38 CZ         12.2646   11.4695   44.9857 C.ar      4 PHE5        0.0000 
     39 CZ         13.5260   10.7581   45.3766 C.ar      4 PHE5        0.0000 
     40 CA          8.4187   12.7997   42.5485 C.3       5 GLY6        0.0000 
     41 CA          9.6801   12.0882   42.9393 C.3       5 GLY6        0.0000 
     42 CZ         10.9415   11.3768   43.3301 C.ar      4 PHE5        0.0000 
@<TRIPOS>BOND
@<TRIPOS>SUBSTRUCTURE
     1 SER1        3 GROUP   
     2 ALA2       18 GROUP   
     3 ASP3        4 GROUP   
     4 PHE5        5 GROUP   
     5 GLY6        1 GROUP   
@<TRIPOS>SET

