#    Name: 3tzf_HH2_1_INTS_M
#    Modification time : Mon Mar 24 21:14:06 2014

@<TRIPOS>MOLECULE
3tzf_HH2_1_INTS_M
   59     0    15     0     0
SMALL
NO_CHARGES


@<TRIPOS>ATOM
      1 N          12.7475   15.0150   40.2965 N.am      2 SEC2        0.0000 
      2 N          13.8660   15.2730   41.3970 N.am     12 SEL2        0.0000 
      3 N          11.6290   14.7570   39.1960 N.am      7 SEP2        0.0000 
      4 N          17.3335   18.7740   42.4150 N.am      2 SEC2        0.0000 
      5 N          15.9280   18.2780   41.9350 N.am     12 SEL2        0.0000 
      6 N          18.7390   19.2700   42.8950 N.am      7 SEP2        0.0000 
      7 O          17.0820   20.7045   41.4485 O.2       1 ALC1        0.0000 
      8 O          16.3060   20.1460   40.5940 O.2      11 ALL1        0.0000 
      9 O          17.8580   21.2630   42.3030 O.2       6 ALP1        0.0000 
     10 O          15.6555   20.2150   39.2825 O.2       1 ALC1        0.0000 
     11 O          15.0050   20.2840   37.9710 O.2       6 ALP1        0.0000 
     12 O          14.9565   19.3740   38.8860 O.2       1 ALC1        0.0000 
     13 O          14.9080   18.4640   39.8010 O.2      11 ALL1        0.0000 
     14 N          13.0450   17.4840   37.8215 N.am      2 SEC2        0.0000 
     15 N          13.4690   16.8330   38.9240 N.am     12 SEL2        0.0000 
     16 N          12.6210   18.1350   36.7190 N.am      7 SEP2        0.0000 
     17 CA         13.1325   11.1905   42.4595 C.3       5 GLC5        0.0000 
     18 CA         13.4760   13.2350   42.8100 C.3      15 GLL5        0.0000 
     19 CA         12.7890    9.1460   42.1090 C.3      10 GLP5        0.0000 
     20 CA         12.0925   14.9370   42.8950 C.3       5 GLC5        0.0000 
     21 CA         10.7090   16.6390   42.9800 C.3      10 GLP5        0.0000 
     22 N          15.6850   13.1465   41.7785 N.am      2 SEC2        0.0000 
     23 N          14.5470   12.2900   42.4830 N.am     12 SEL2        0.0000 
     24 N          16.8230   14.0030   41.0740 N.am      7 SEP2        0.0000 
     25 NZ         17.0725   13.2680   43.7505 N.4       3 LYC4        0.0000 
     26 NZ         16.2490   12.2860   44.4040 N.4      13 LYL4        0.0000 
     27 NZ         17.7270   14.6140   41.8290 N.4       8 LYP4        0.0000 
     28 Zn         16.5935   12.4800   45.3980 Zn        4 ZIC7        0.0000 
     29 Zn         16.2490   12.2860   44.4040 Zn       14 ZIL7        0.0000 
     30 Zn         16.9380   12.6740   46.3920 Zn        9 ZIP7        0.0000 
     31 N          17.0725   13.2680   43.7505 N.am      2 SEC2        0.0000 
     32 N          16.2490   12.2860   44.4040 N.am     12 SEL2        0.0000 
     33 N          17.8960   14.2500   43.0970 N.am      7 SEP2        0.0000 
     34 N          17.1110    9.7050   44.2820 N.am      2 SEC2        0.0000 
     35 N          16.0110   10.0700   43.2520 N.am     12 SEL2        0.0000 
     36 N          18.2110    9.3400   45.3120 N.am      7 SEP2        0.0000 
     37 N          16.5540    9.2930   42.2935 N.am      2 SEC2        0.0000 
     38 N          17.0970    8.5160   41.3350 N.am      7 SEP2        0.0000 
     39 N          12.4375   13.3260   47.3515 N.am      2 SEC2        0.0000 
     40 N          13.0170   12.7820   46.1700 N.am     12 SEL2        0.0000 
     41 N          11.8580   13.8700   48.5330 N.am      7 SEP2        0.0000 
     42 Zn         16.0490   12.0475   46.5615 Zn        4 ZIC7        0.0000 
     43 Zn         15.1600   11.4210   46.7310 Zn       14 ZIL7        0.0000 
     44 N          15.7655   10.4875   47.4895 N.am      2 SEC2        0.0000 
     45 N          15.1600   11.4210   46.7310 N.am     12 SEL2        0.0000 
     46 N          16.3710    9.5540   48.2480 N.am      7 SEP2        0.0000 
     47 N          12.9435    8.8875   46.6755 N.am      2 SEC2        0.0000 
     48 N          12.8950   10.3390   46.7740 N.am     12 SEL2        0.0000 
     49 N          12.9920    7.4360   46.5770 N.am      7 SEP2        0.0000 
     50 N          12.5105   10.4825   47.9410 N.am      2 SEC2        0.0000 
     51 N          12.1260   10.6260   49.1080 N.am      7 SEP2        0.0000 
     52 CA         12.7308   13.5985   40.9978 C.3       5 GLC5        0.0000 
     53 CA         11.6850   13.2790   39.3110 C.3      10 GLP5        0.0000 
     54 CA         14.3347   18.2063   42.9555 C.3       5 GLC5        0.0000 
     55 CA         14.4540   16.4810   41.1660 C.3      15 GLL5        0.0000 
     56 CA         13.7690   19.6320   44.2380 C.3      10 GLP5        0.0000 
     57 CA         16.6238   16.4172   40.8025 C.3       5 GLC5        0.0000 
     58 CA         15.3470   17.0800   42.1800 C.3      15 GLL5        0.0000 
     59 CA         18.3470   16.0540   39.9320 C.3      10 GLP5        0.0000 
@<TRIPOS>BOND
@<TRIPOS>SUBSTRUCTURE
     1 ALC1        7 GROUP        1 X    ALC  0     ROOT ALC X 1
     2 SEC2        1 GROUP        1 X    SEC  0     **** SEC X 2
     3 LYC4       25 GROUP        1 X    LYC  0     **** LYC X 4
     4 ZIC7       28 GROUP        1 X    ZIC  0     **** ZIC X 5
     5 GLC5       17 GROUP        1 X    GLC  0     **** GLC X 6
     6 ALP1        9 GROUP        1 Y    ALP  0     ROOT ALP Y 8
     7 SEP2        3 GROUP        1 Y    SEP  0     **** SEP Y 9
     8 LYP4       27 GROUP        1 Y    LYP  0     **** LYP Y 11
     9 ZIP7       30 GROUP        1 Y    ZIP  0     **** ZIP Y 12
    10 GLP5       19 GROUP        1 Y    GLP  0     **** GLP Y 13
    11 ALL1        8 GROUP        1 Z    ALL  0     ROOT ALL Z 15
    12 SEL2        2 GROUP        1 Z    SEL  0     **** SEL Z 16
    13 LYL4       26 GROUP        1 Z    LYL  0     **** LYL Z 18
    14 ZIL7       29 GROUP        1 Z    ZIL  0     **** ZIL Z 19
    15 GLL5       18 GROUP        1 Z    GLL  0     **** GLL Z 20
@<TRIPOS>SET

