#    Name: 3tzf_HH2_1_ligand
#    Modification time : Mon Mar 24 21:14:06 2014

@<TRIPOS>MOLECULE
3tzf_HH2_1_ligand
   28    29     1     0     0
SMALL
NO_CHARGES


@<TRIPOS>ATOM
      1 N1         13.8660   15.2730   41.3970 N.ar      1 HH2278      0.0000 
      2 C2         14.0770   14.6010   42.5590 C.ar      1 HH2278      0.0000 
      3 C3         14.9660   15.1480   43.6470 C.ar      1 HH2278      0.0000 
      4 N4         15.5660   16.4430   43.3240 N.ar      1 HH2278      0.0000 
      5 N5         15.9280   18.2780   41.9350 N.2       1 HH2278      0.0000 
      6 C6         15.7070   18.9490   40.7720 C.2       1 HH2278      0.0000 
      7 N6         16.3060   20.1460   40.5940 N.pl3     1 HH2278      0.0000 
      8 N7         14.9080   18.4640   39.8010 N.am      1 HH2278      0.0000 
      9 C8         14.2640   17.2830   39.9250 C.2       1 HH2278      0.0000 
     10 O8         13.4690   16.8330   38.9240 O.2       1 HH2278      0.0000 
     11 C9         14.4540   16.4810   41.1660 C.ar      1 HH2278      0.0000 
     12 C10        15.3470   17.0800   42.1800 C.ar      1 HH2278      0.0000 
     13 C11        13.4760   13.2350   42.8100 C.3       1 HH2278      0.0000 
     14 O4         14.5470   12.2900   42.4830 O.3       1 HH2278      0.0000 
     15 P1         15.2910   11.4420   43.6560 P.3       1 HH2278      0.0000 
     16 O1P        16.2490   12.2860   44.4040 O.co2     1 HH2278      0.0000 
     17 O2P        16.0110   10.0700   43.2520 O.co2     1 HH2278      0.0000 
     18 O3P        13.9490   11.1310   44.5260 O.3       1 HH2278      0.0000 
     19 P2         13.7860   11.4890   46.0950 P.3       1 HH2278      0.0000 
     20 O4P        13.0170   12.7820   46.1700 O.co2     1 HH2278      0.0000 
     21 O5P        15.1600   11.4210   46.7310 O.co2     1 HH2278      0.0000 
     22 O6P        12.8950   10.3390   46.7740 O.co2     1 HH2278      0.0000 
     23 H          15.1096   14.6774   44.4610 H         1 HH2278      0.0000 
     24 H          16.1154   20.6090   39.7284 H         1 HH2278      0.0000 
     25 H          16.8870   20.4631   41.3436 H         1 HH2278      0.0000 
     26 H          14.7805   19.0240   38.9146 H         1 HH2278      0.0000 
     27 H          12.6299   13.0988   42.1643 H         1 HH2278      0.0000 
     28 H          13.1951   13.1585   43.8427 H         1 HH2278      0.0000 
@<TRIPOS>BOND
     1    2    1 ar   
     2   11    1 ar   
     3    3    2 ar   
     4   13    2 1    
     5    4    3 ar   
     6   23    3 1    
     7   12    4 ar   
     8    6    5 2    
     9   12    5 1    
    10    7    6 1    
    11    8    6 1    
    12   24    7 1    
    13   25    7 1    
    14    9    8 am   
    15   26    8 1    
    16   10    9 2    
    17   11    9 1    
    18   12   11 ar   
    19   14   13 1    
    20   27   13 1    
    21   28   13 1    
    22   15   14 1    
    23   16   15 ar   
    24   17   15 ar   
    25   18   15 1    
    26   19   18 1    
    27   20   19 ar   
    28   21   19 ar   
    29   22   19 ar   
@<TRIPOS>SUBSTRUCTURE
     1 HH2278      1 GROUP   
@<TRIPOS>SET

