#    Name: 2q8s_L92_1_INTS_M
#    Modification time : Mon Mar 24 21:02:35 2014

@<TRIPOS>MOLECULE
2q8s_L92_1_INTS_M
   72     0     6     0     0
SMALL
NO_CHARGES


@<TRIPOS>ATOM
      1 N          17.9520   62.2910   21.2340 N.am      1 SEC2        0.0000 
      2 N          18.3630   63.1370   20.2510 N.am      5 SEL2        0.0000 
      3 N          17.5410   61.4450   22.2170 N.am      3 SEP2        0.0000 
      4 N          19.4070   62.3095   21.3445 N.am      1 SEC2        0.0000 
      5 N          20.4510   61.4820   22.4380 N.am      3 SEP2        0.0000 
      6 N          20.2550   61.6385   21.1570 N.am      1 SEC2        0.0000 
      7 N          20.0590   61.7950   19.8760 N.am      5 SEL2        0.0000 
      8 CA         17.0525   63.3120   18.2625 C.3       2 GLC5        0.0000 
      9 CA         18.9180   62.7010   17.9940 C.3       6 GLL5        0.0000 
     10 CA         15.1870   63.9230   18.5310 C.3       4 GLP5        0.0000 
     11 CA         19.0180   59.5800   17.4435 C.3       2 GLC5        0.0000 
     12 CA         18.8670   61.3650   17.2230 C.3       6 GLL5        0.0000 
     13 CA         19.1690   57.7950   17.6640 C.3       4 GLP5        0.0000 
     14 CA         18.9550   63.3415   12.8055 C.3       2 GLC5        0.0000 
     15 CA         18.2850   61.9270   13.4600 C.3       6 GLL5        0.0000 
     16 CA         19.6250   64.7560   12.1510 C.3       4 GLP5        0.0000 
     17 CA         15.9265   60.3465   16.6715 C.3       2 GLC5        0.0000 
     18 CA         16.8640   61.9110   15.8560 C.3       6 GLL5        0.0000 
     19 CA         14.9890   58.7820   17.4870 C.3       4 GLP5        0.0000 
     20 CA         17.8710   63.6425   12.1750 C.3       2 GLC5        0.0000 
     21 CA         16.1170   62.5290   12.1990 C.3       6 GLL5        0.0000 
     22 CA         16.0080   59.8665   11.1580 C.3       2 GLC5        0.0000 
     23 CA         16.3360   61.6510   10.9780 C.3       6 GLL5        0.0000 
     24 CA         15.6800   58.0820   11.3380 C.3       4 GLP5        0.0000 
     25 CA         17.9360   61.0060    8.3650 C.3       2 GLC5        0.0000 
     26 CA         17.5580   62.0520   10.2080 C.3       6 GLL5        0.0000 
     27 CA         18.3140   59.9600    6.5220 C.3       4 GLP5        0.0000 
     28 CA         19.0435   60.5835   10.4760 C.3       2 GLC5        0.0000 
     29 CA         20.5290   59.1150   10.7440 C.3       4 GLP5        0.0000 
     30 CA         19.1980   61.4685    7.5590 C.3       2 GLC5        0.0000 
     31 CA         20.0820   62.9770    8.5960 C.3       6 GLL5        0.0000 
     32 CA         21.6200   63.1245    7.7665 C.3       2 GLC5        0.0000 
     33 CA         23.1580   63.2720    6.9370 C.3       4 GLP5        0.0000 
     34 CA         21.4545   61.8120    9.7240 C.3       2 GLC5        0.0000 
     35 CA         22.8270   60.6470   10.8520 C.3       4 GLP5        0.0000 
     36 CA         16.4510   65.1820    7.4580 C.3       2 GLC5        0.0000 
     37 CA         17.0660   66.7670    8.7760 C.3       6 GLL5        0.0000 
     38 CA         15.8360   63.5970    6.1400 C.3       4 GLP5        0.0000 
     39 CA         18.7220   67.0090    6.3495 C.3       2 GLC5        0.0000 
     40 CA         17.8580   67.6630    8.0560 C.3       6 GLL5        0.0000 
     41 CA         19.5860   66.3550    4.6430 C.3       4 GLP5        0.0000 
     42 CA         20.0145   66.9723   17.8065 C.3       2 GLC5        0.0000 
     43 CA         21.1060   65.5040   17.2110 C.3       6 GLL5        0.0000 
     44 CA         19.4550   68.7350   18.0780 C.3       4 GLP5        0.0000 
     45 CA         18.8407   63.5015   14.5038 C.3       2 GLC5        0.0000 
     46 CA         18.2230   61.6380   15.8770 C.3       6 GLL5        0.0000 
     47 CA         19.1020   65.3610   13.7330 C.3       4 GLP5        0.0000 
     48 CA         19.9763   61.0343   12.9455 C.3       2 GLC5        0.0000 
     49 CA         18.9360   61.6460   14.6720 C.3       6 GLL5        0.0000 
     50 CA         21.3420   60.2820   11.8250 C.3       4 GLP5        0.0000 
     51 CA         17.8360   63.7767   13.8935 C.3       2 GLC5        0.0000 
     52 CA         16.9170   62.1930   13.4490 C.3       6 GLL5        0.0000 
     53 CA         15.8652   62.9873   16.8942 C.3       2 GLC5        0.0000 
     54 CA         16.2230   62.1920   14.6590 C.3       6 GLL5        0.0000 
     55 CA         14.6178   63.1344   13.0823 C.3       2 GLC5        0.0000 
     56 CA         12.8920   63.9080   13.0380 C.3       4 GLP5        0.0000 
     57 CA         18.6445   63.7405   11.0312 C.3       2 GLC5        0.0000 
     58 CA         17.0810   63.5910    7.7050 C.3       2 GLC5        0.0000 
     59 CA         17.7700   63.3980    9.6150 C.3       6 GLL5        0.0000 
     60 CA         20.7765   65.1317    8.9287 C.3       2 GLC5        0.0000 
     61 CA         18.8820   63.7720    8.9250 C.3       6 GLL5        0.0000 
     62 CA         22.0710   66.8890    9.0970 C.3       4 GLP5        0.0000 
     63 CA         19.5535   64.0652   10.4558 C.3       2 GLC5        0.0000 
     64 CA         20.0685   64.2207    7.0222 C.3       2 GLC5        0.0000 
     65 CA         20.6550   65.0670    5.2840 C.3       4 GLP5        0.0000 
     66 CA         16.9177   68.2995   10.5488 C.3       2 GLC5        0.0000 
     67 CA         17.3880   69.6250   12.0810 C.3       4 GLP5        0.0000 
     68 CA         19.5727   68.8115    8.7885 C.3       2 GLC5        0.0000 
     69 CA         17.4170   68.9590    7.8160 C.3       6 GLL5        0.0000 
     70 CA         21.5080   69.3120    9.6410 C.3       4 GLP5        0.0000 
     71 CA         16.9939   69.2839   10.1593 C.3       2 GLC5        0.0000 
     72 CA         20.0236   64.9728   15.3794 C.3       2 GLC5        0.0000 
@<TRIPOS>BOND
@<TRIPOS>SUBSTRUCTURE
     1 SEC2        1 GROUP        1 X    SEC  0     ROOT SEC X 2
     2 GLC5        8 GROUP        1 X    GLC  0     **** GLC X 6
     3 SEP2        3 GROUP        1 Y    SEP  0     ROOT SEP Y 9
     4 GLP5       10 GROUP        1 Y    GLP  0     **** GLP Y 13
     5 SEL2        2 GROUP        1 Z    SEL  0     ROOT SEL Z 16
     6 GLL5        9 GROUP        1 Z    GLL  0     **** GLL Z 20
@<TRIPOS>SET

