#    Name: 2q8s_L92_1_ligand
#    Modification time : Mon Mar 24 21:02:35 2014

@<TRIPOS>MOLECULE
2q8s_L92_1_ligand
   56    59     1     0     0
SMALL
NO_CHARGES


@<TRIPOS>ATOM
      1 O2         18.3630   63.1370   20.2510 O.co2     1 L921001     0.0000 
      2 C1         19.1270   62.5230   19.4730 C.2       1 L921001     0.0000 
      3 O1         20.0590   61.7950   19.8760 O.co2     1 L921001     0.0000 
      4 C2         18.9180   62.7010   17.9940 C.3       1 L921001     0.0000 
      5 N1         19.9660   63.6310   17.4860 N.pl3     1 L921001     0.0000 
      6 C13        20.9530   63.3840   16.6100 C.2       1 L921001     0.0000 
      7 C12        21.6800   64.5350   16.4230 C.2       1 L921001     0.0000 
      8 C11        21.1060   65.5040   17.2110 C.2       1 L921001     0.0000 
      9 C10        20.0420   64.9150   17.8590 C.2       1 L921001     0.0000 
     10 C3         18.8670   61.3650   17.2230 C.3       1 L921001     0.0000 
     11 C4         18.2230   61.6380   15.8770 C.ar      1 L921001     0.0000 
     12 C9         18.9360   61.6460   14.6720 C.ar      1 L921001     0.0000 
     13 C8         18.2850   61.9270   13.4600 C.ar      1 L921001     0.0000 
     14 C7         16.9170   62.1930   13.4490 C.ar      1 L921001     0.0000 
     15 C6         16.2230   62.1920   14.6590 C.ar      1 L921001     0.0000 
     16 C5         16.8640   61.9110   15.8560 C.ar      1 L921001     0.0000 
     17 C14        16.1170   62.5290   12.1990 C.3       1 L921001     0.0000 
     18 C15        16.3360   61.6510   10.9780 C.3       1 L921001     0.0000 
     19 C16        17.5580   62.0520   10.2080 C.3       1 L921001     0.0000 
     20 C17        17.7700   63.3980    9.6150 C.2       1 L921001     0.0000 
     21 C19        18.8820   63.7720    8.9250 C.2       1 L921001     0.0000 
     22 C26        20.0820   62.9770    8.5960 C.3       1 L921001     0.0000 
     23 O3         18.7590   65.0600    8.5280 O.3       1 L921001     0.0000 
     24 C18        17.5340   65.4760    8.9990 C.2       1 L921001     0.0000 
     25 N2         16.9150   64.4470    9.6740 N.2       1 L921001     0.0000 
     26 C20        17.0660   66.7670    8.7760 C.ar      1 L921001     0.0000 
     27 C25        15.8290   67.1810    9.2570 C.ar      1 L921001     0.0000 
     28 C24        15.3850   68.4820    9.0180 C.ar      1 L921001     0.0000 
     29 C23        16.1800   69.3710    8.3000 C.ar      1 L921001     0.0000 
     30 C22        17.4170   68.9590    7.8160 C.ar      1 L921001     0.0000 
     31 C21        17.8580   67.6630    8.0560 C.ar      1 L921001     0.0000 
     32 H          17.9367   63.1974   17.8597 H         1 L921001     0.0000 
     33 H          21.1369   62.5429   16.1735 H         1 L921001     0.0000 
     34 H          22.4327   64.6407   15.8590 H         1 L921001     0.0000 
     35 H          21.3860   66.4031   17.2940 H         1 L921001     0.0000 
     36 H          19.4595   65.3727   18.4772 H         1 L921001     0.0000 
     37 H          18.2744   60.6622   17.7796 H         1 L921001     0.0000 
     38 H          19.8691   61.0019   17.0855 H         1 L921001     0.0000 
     39 H          19.9442   61.4448   14.6727 H         1 L921001     0.0000 
     40 H          18.8204   61.9354   12.5853 H         1 L921001     0.0000 
     41 H          15.2082   62.4060   14.6596 H         1 L921001     0.0000 
     42 H          16.3257   61.9051   16.7370 H         1 L921001     0.0000 
     43 H          16.3279   63.5905   11.9171 H         1 L921001     0.0000 
     44 H          15.0293   62.5134   12.4587 H         1 L921001     0.0000 
     45 H          15.4520   61.7174   10.3299 H         1 L921001     0.0000 
     46 H          16.4304   60.6067   11.3041 H         1 L921001     0.0000 
     47 H          17.7077   61.2685    9.3681 H         1 L921001     0.0000 
     48 H          18.4768   61.8091   10.8702 H         1 L921001     0.0000 
     49 H          15.2388   66.5291    9.7899 H         1 L921001     0.0000 
     50 H          14.4685   68.7834    9.3735 H         1 L921001     0.0000 
     51 H          15.8530   70.3295    8.1283 H         1 L921001     0.0000 
     52 H          18.0037   69.6120    7.2818 H         1 L921001     0.0000 
     53 H          18.7767   67.3585    7.7006 H         1 L921001     0.0000 
     54 H          20.7486   63.5094    8.0743 H         1 L921001     0.0000 
     55 H          20.5474   62.6495    9.4183 H         1 L921001     0.0000 
     56 H          19.8554   62.1723    8.0472 H         1 L921001     0.0000 
@<TRIPOS>BOND
     1    2    1 ar   
     2    3    2 ar   
     3    4    2 1    
     4    5    4 1    
     5   10    4 1    
     6   32    4 1    
     7    6    5 1    
     8    9    5 1    
     9    7    6 2    
    10   33    6 1    
    11    8    7 1    
    12   34    7 1    
    13    9    8 2    
    14   35    8 1    
    15   36    9 1    
    16   11   10 1    
    17   37   10 1    
    18   38   10 1    
    19   12   11 ar   
    20   16   11 ar   
    21   13   12 ar   
    22   39   12 1    
    23   14   13 ar   
    24   40   13 1    
    25   15   14 ar   
    26   17   14 1    
    27   16   15 ar   
    28   41   15 1    
    29   42   16 1    
    30   18   17 1    
    31   43   17 1    
    32   44   17 1    
    33   19   18 1    
    34   45   18 1    
    35   46   18 1    
    36   20   19 1    
    37   47   19 1    
    38   48   19 1    
    39   21   20 2    
    40   25   20 1    
    41   22   21 1    
    42   23   21 1    
    43   54   22 1    
    44   55   22 1    
    45   56   22 1    
    46   24   23 1    
    47   25   24 2    
    48   26   24 1    
    49   27   26 ar   
    50   31   26 ar   
    51   28   27 ar   
    52   49   27 1    
    53   29   28 ar   
    54   50   28 1    
    55   30   29 ar   
    56   51   29 1    
    57   31   30 ar   
    58   52   30 1    
    59   53   31 1    
@<TRIPOS>SUBSTRUCTURE
     1 L921001     1 GROUP   
@<TRIPOS>SET

