#    Name: 4kb8_1QO_2_INTS_M
#    Modification time : Tue Mar 25 07:39:27 2014

@<TRIPOS>MOLECULE
4kb8_1QO_2_INTS_M
   66     0     9     0     0
SMALL
NO_CHARGES


@<TRIPOS>ATOM
      1 O          24.8425   21.2735  -50.4280 O.2       1 ALC1        0.0000 
      2 O          23.8730   21.7980  -49.3080 O.2       7 ALL1        0.0000 
      3 O          25.8120   20.7490  -51.5480 O.2       4 ALP1        0.0000 
      4 CA         23.4940   23.5495  -50.7875 C.3       3 GLC5        0.0000 
      5 CA         22.6740   22.3520  -49.6020 C.3       9 GLL5        0.0000 
      6 CA         24.3140   24.7470  -51.9730 C.3       6 GLP5        0.0000 
      7 CA         22.8310   20.4445  -49.7025 C.3       3 GLC5        0.0000 
      8 CA         22.9880   18.5370  -49.8030 C.3       6 GLP5        0.0000 
      9 CA         20.9370   21.3875  -48.8880 C.3       3 GLC5        0.0000 
     10 CA         19.2000   20.4230  -48.1740 C.3       6 GLP5        0.0000 
     11 CA         24.9335   26.9160  -45.0475 C.3       3 GLC5        0.0000 
     12 CA         24.9260   24.8420  -45.6890 C.3       9 GLL5        0.0000 
     13 CA         24.9410   28.9900  -44.4060 C.3       6 GLP5        0.0000 
     14 CA         25.5360   20.2715  -47.5245 C.3       3 GLC5        0.0000 
     15 CA         24.5060   21.8550  -47.9950 C.3       9 GLL5        0.0000 
     16 CA         26.5660   18.6880  -47.0540 C.3       6 GLP5        0.0000 
     17 CA         23.5685   20.1300  -48.1755 C.3       3 GLC5        0.0000 
     18 CA         22.6310   18.4050  -48.3560 C.3       6 GLP5        0.0000 
     19 CA         23.4375   20.9005  -46.3660 C.3       3 GLC5        0.0000 
     20 CA         22.3690   19.9460  -44.7370 C.3       6 GLP5        0.0000 
     21 N          22.3930   20.9180  -51.7645 N.am      2 SEC2        0.0000 
     22 N          22.2030   22.1960  -50.8510 N.am      8 SEL2        0.0000 
     23 N          22.5830   19.6400  -52.6780 N.am      5 SEP2        0.0000 
     24 CA         22.6635   23.7575  -51.5345 C.3       3 GLC5        0.0000 
     25 CA         21.0130   22.7680  -51.0960 C.3       9 GLL5        0.0000 
     26 CA         21.7030   22.8155  -53.1165 C.3       3 GLC5        0.0000 
     27 CA         22.3930   22.8630  -55.1370 C.3       6 GLP5        0.0000 
     28 CA         21.3495   20.6805  -50.8535 C.3       3 GLC5        0.0000 
     29 CA         21.6860   18.5930  -50.6110 C.3       6 GLP5        0.0000 
     30 CA         19.0610   27.0235  -44.1795 C.3       3 GLC5        0.0000 
     31 CA         19.0210   25.5360  -45.6260 C.3       9 GLL5        0.0000 
     32 CA         19.1010   28.5110  -42.7330 C.3       6 GLP5        0.0000 
     33 CA         21.3795   26.3730  -47.0290 C.3       3 GLC5        0.0000 
     34 CA         20.8580   24.5600  -46.5760 C.3       9 GLL5        0.0000 
     35 CA         21.9010   28.1860  -47.4820 C.3       6 GLP5        0.0000 
     36 CA         20.6180   24.5303  -51.9600 C.3       3 GLC5        0.0000 
     37 CA         20.5810   25.9360  -53.2950 C.3       6 GLP5        0.0000 
     38 CA         21.1660   25.4495  -49.6780 C.3       3 GLC5        0.0000 
     39 CA         20.2970   23.4810  -50.1540 C.3       9 GLL5        0.0000 
     40 CA         21.7500   27.3600  -49.8330 C.3       6 GLP5        0.0000 
     41 CA         20.6290   25.9047  -48.8085 C.3       3 GLC5        0.0000 
     42 CA         20.1760   24.2530  -47.7500 C.3       9 GLL5        0.0000 
     43 CA         19.3540   22.4363  -47.9790 C.3       3 GLC5        0.0000 
     44 CA         20.2240   23.3582  -45.5440 C.3       3 GLC5        0.0000 
     45 CA         19.9310   22.3100  -43.9250 C.3       6 GLP5        0.0000 
     46 CA         26.6205   24.0412  -46.8940 C.3       3 GLC5        0.0000 
     47 CA         24.6600   23.5610  -46.1470 C.3       9 GLL5        0.0000 
     48 CA         28.4480   23.8810  -47.8700 C.3       6 GLP5        0.0000 
     49 CA         26.7490   25.9130  -45.1452 C.3       3 GLC5        0.0000 
     50 CA         28.3790   26.4920  -44.1610 C.3       6 GLP5        0.0000 
     51 CA         19.9988   21.7882  -49.2417 C.3       3 GLC5        0.0000 
     52 CA         20.8670   23.5970  -48.8920 C.3       9 GLL5        0.0000 
     53 CA         19.8610   26.9563  -46.2548 C.3       3 GLC5        0.0000 
     54 CA         18.2530   25.2890  -46.7430 C.3       9 GLL5        0.0000 
     55 CA         21.0850   28.5000  -46.3250 C.3       6 GLP5        0.0000 
     56 CA         19.2840   23.8613  -45.0547 C.3       3 GLC5        0.0000 
     57 CA         23.6292   26.9352  -47.3620 C.3       3 GLC5        0.0000 
     58 CA         25.3120   25.8260  -46.5700 C.3       9 GLL5        0.0000 
     59 CA         25.6708   27.5608  -46.9560 C.3       3 GLC5        0.0000 
     60 CA         25.9840   29.4370  -46.6700 C.3       6 GLP5        0.0000 
     61 CA         26.9028   24.7828  -47.5560 C.3       3 GLC5        0.0000 
     62 CA         24.7930   24.8252  -50.0583 C.3       3 GLC5        0.0000 
     63 CA         25.4030   25.5430  -47.9140 C.3       9 GLL5        0.0000 
     64 CA         26.5065   23.1930  -48.5679 C.3       3 GLC5        0.0000 
     65 CA         25.1410   24.2640  -48.3730 C.3       9 GLL5        0.0000 
     66 CA         28.1230   22.9770  -49.0770 C.3       6 GLP5        0.0000 
@<TRIPOS>BOND
@<TRIPOS>SUBSTRUCTURE
     1 ALC1        1 GROUP        1 X    ALC  0     ROOT ALC X 1
     2 SEC2       21 GROUP        1 X    SEC  0     **** SEC X 2
     3 GLC5        4 GROUP        1 X    GLC  0     **** GLC X 6
     4 ALP1        3 GROUP        1 Y    ALP  0     ROOT ALP Y 8
     5 SEP2       23 GROUP        1 Y    SEP  0     **** SEP Y 9
     6 GLP5        6 GROUP        1 Y    GLP  0     **** GLP Y 13
     7 ALL1        2 GROUP        1 Z    ALL  0     ROOT ALL Z 15
     8 SEL2       22 GROUP        1 Z    SEL  0     **** SEL Z 16
     9 GLL5        5 GROUP        1 Z    GLL  0     **** GLL Z 20
@<TRIPOS>SET

