#    Name: 4kb8_1QO_2_ligand
#    Modification time : Tue Mar 25 07:39:27 2014

@<TRIPOS>MOLECULE
4kb8_1QO_2_ligand
   34    36     1     0     0
SMALL
NO_CHARGES


@<TRIPOS>ATOM
      1 N1         23.8730   21.7980  -49.3080 N.pl3     1 1QO401      0.0000 
      2 C2         22.6740   22.3520  -49.6020 C.ar      1 1QO401      0.0000 
      3 N3         22.0550   23.0320  -48.6170 N.ar      1 1QO401      0.0000 
      4 C4         20.2970   23.4810  -50.1540 C.ar      1 1QO401      0.0000 
      5 N4         20.3090   25.1900  -45.5290 N.ar      1 1QO401      0.0000 
      6 C5         20.8670   23.5970  -48.8920 C.ar      1 1QO401      0.0000 
      7 C6         20.1760   24.2530  -47.7500 C.ar      1 1QO401      0.0000 
      8 C11        24.7720   23.2530  -47.4940 C.ar      1 1QO401      0.0000 
      9 C12        24.6600   23.5610  -46.1470 C.ar      1 1QO401      0.0000 
     10 C13        24.9260   24.8420  -45.6890 C.ar      1 1QO401      0.0000 
     11 C1         24.5060   21.8550  -47.9950 C.3       1 1QO401      0.0000 
     12 N2         22.2030   22.1960  -50.8510 N.ar      1 1QO401      0.0000 
     13 C3         21.0130   22.7680  -51.0960 C.ar      1 1QO401      0.0000 
     14 C7         18.8400   24.6460  -47.8180 C.ar      1 1QO401      0.0000 
     15 C8         18.2530   25.2890  -46.7430 C.ar      1 1QO401      0.0000 
     16 C9         19.0210   25.5360  -45.6260 C.ar      1 1QO401      0.0000 
     17 C10        20.8580   24.5600  -46.5760 C.ar      1 1QO401      0.0000 
     18 C14        25.3120   25.8260  -46.5700 C.ar      1 1QO401      0.0000 
     19 C15        25.4030   25.5430  -47.9140 C.ar      1 1QO401      0.0000 
     20 C16        25.1410   24.2640  -48.3730 C.ar      1 1QO401      0.0000 
     21 H          24.4194   21.2816  -50.0484 H         1 1QO401      0.0000 
     22 H          19.4052   23.8978  -50.3676 H         1 1QO401      0.0000 
     23 H          24.3747   22.8266  -45.4762 H         1 1QO401      0.0000 
     24 H          24.8329   25.0540  -44.6824 H         1 1QO401      0.0000 
     25 H          25.4722   21.3014  -48.0103 H         1 1QO401      0.0000 
     26 H          23.8758   21.3298  -47.2418 H         1 1QO401      0.0000 
     27 H          20.5843   22.6759  -52.0648 H         1 1QO401      0.0000 
     28 H          18.2951   24.4556  -48.6695 H         1 1QO401      0.0000 
     29 H          17.2729   25.5730  -46.7789 H         1 1QO401      0.0000 
     30 H          18.5506   26.0269  -44.8097 H         1 1QO401      0.0000 
     31 H          21.8816   24.2661  -46.5279 H         1 1QO401      0.0000 
     32 H          25.5325   26.7727  -46.2246 H         1 1QO401      0.0000 
     33 H          25.6668   26.2835  -48.5832 H         1 1QO401      0.0000 
     34 H          25.2203   24.0552  -49.3842 H         1 1QO401      0.0000 
@<TRIPOS>BOND
     1    2    1 1    
     2   11    1 1    
     3   21    1 1    
     4    3    2 ar   
     5   12    2 ar   
     6    6    3 ar   
     7    6    4 ar   
     8   13    4 ar   
     9   22    4 1    
    10   16    5 ar   
    11   17    5 ar   
    12    7    6 1    
    13   14    7 ar   
    14   17    7 ar   
    15    9    8 ar   
    16   11    8 1    
    17   20    8 ar   
    18   10    9 ar   
    19   23    9 1    
    20   18   10 ar   
    21   24   10 1    
    22   25   11 1    
    23   26   11 1    
    24   13   12 ar   
    25   27   13 1    
    26   15   14 ar   
    27   28   14 1    
    28   16   15 ar   
    29   29   15 1    
    30   30   16 1    
    31   31   17 1    
    32   19   18 ar   
    33   32   18 1    
    34   20   19 ar   
    35   33   19 1    
    36   34   20 1    
@<TRIPOS>SUBSTRUCTURE
     1 1QO401      1 GROUP   
@<TRIPOS>SET

