#    Name: 1k3c_ADP_1_INTS_M
#    Modification time : Tue Mar 25 09:36:31 2014

@<TRIPOS>MOLECULE
1k3c_ADP_1_INTS_M
   63     0    15     0     0
SMALL
NO_CHARGES


@<TRIPOS>ATOM
      1 NZ         27.4770    4.7340   10.8905 N.4       3 LYC4        0.0000 
      2 NZ         27.4500    5.9700   11.5080 N.4      13 LYL4        0.0000 
      3 NZ         27.5040    3.4980   10.2730 N.4       8 LYP4        0.0000 
      4 N          26.4240    7.0375   11.8550 N.am      2 SEC2        0.0000 
      5 N          27.4500    5.9700   11.5080 N.am     12 SEL2        0.0000 
      6 N          25.3980    8.1050   12.2020 N.am      7 SEP2        0.0000 
      7 N          26.5950    5.9325   12.7120 N.am      2 SEC2        0.0000 
      8 N          25.7400    5.8950   13.9160 N.am      7 SEP2        0.0000 
      9 N          27.4770    4.7340   10.8905 N.am      2 SEC2        0.0000 
     10 N          27.5040    3.4980   10.2730 N.am      7 SEP2        0.0000 
     11 Zn         30.1750    5.2405   13.4380 Zn        4 ZIC7        0.0000 
     12 Zn         29.2360    5.7980   13.2570 Zn       14 ZIL7        0.0000 
     13 Zn         31.1140    4.6830   13.6190 Zn        9 ZIP7        0.0000 
     14 N          28.5290    5.6300   14.5590 N.am      2 SEC2        0.0000 
     15 N          29.2360    5.7980   13.2570 N.am     12 SEL2        0.0000 
     16 N          27.8220    5.4620   15.8610 N.am      7 SEP2        0.0000 
     17 NZ         28.6695    5.0195   10.5400 N.4       3 LYC4        0.0000 
     18 NZ         29.8350    6.5410   10.8070 N.4      13 LYL4        0.0000 
     19 N          29.3610    7.2445    9.7375 N.am      2 SEC2        0.0000 
     20 N          29.8350    6.5410   10.8070 N.am     12 SEL2        0.0000 
     21 N          28.8870    7.9480    8.6680 N.am      7 SEP2        0.0000 
     22 N          27.9800    8.1770   15.9450 N.am      2 SEC2        0.0000 
     23 N          28.2120    8.4650   14.5850 N.am     12 SEL2        0.0000 
     24 N          27.7480    7.8890   17.3050 N.am      7 SEP2        0.0000 
     25 N          28.1595    9.5635   15.5060 N.am      2 SEC2        0.0000 
     26 N          28.1070   10.6620   16.4270 N.am      7 SEP2        0.0000 
     27 N          27.0855    8.0365   12.1790 N.am      2 SEC2        0.0000 
     28 N          28.7730    7.9680   12.1560 N.am     12 SEL2        0.0000 
     29 CA         28.1700   10.1485   10.8900 C.3       5 GLC5        0.0000 
     30 CA         27.8830   11.0060   12.7640 C.3      15 GLL5        0.0000 
     31 CA         28.4570    9.2910    9.0160 C.3      10 GLP5        0.0000 
     32 CA         26.5375    9.6340   13.1970 C.3       5 GLC5        0.0000 
     33 CA         25.1920    8.2620   13.6300 C.3      10 GLP5        0.0000 
     34 O          29.3960   14.2945   16.5835 O.2       1 ALC1        0.0000 
     35 O          28.7320   14.7220   15.2930 O.2      11 ALL1        0.0000 
     36 O          30.0600   13.8670   17.8740 O.2       6 ALP1        0.0000 
     37 CA         23.8520   15.3360   11.9395 C.3       5 GLC5        0.0000 
     38 CA         23.8730   14.5510   13.9320 C.3      15 GLL5        0.0000 
     39 CA         23.8310   16.1210    9.9470 C.3      10 GLP5        0.0000 
     40 CA         21.8000   12.5525   13.0325 C.3       5 GLC5        0.0000 
     41 CA         22.6790   13.8980   14.3260 C.3      15 GLL5        0.0000 
     42 CA         20.9210   11.2070   11.7390 C.3      10 GLP5        0.0000 
     43 CA         22.2900   14.8710   16.0895 C.3       5 GLC5        0.0000 
     44 CA         21.9010   15.8440   17.8530 C.3      10 GLP5        0.0000 
     45 CA         20.8940   13.4345   15.4055 C.3       5 GLC5        0.0000 
     46 CA         19.1090   12.9710   16.4850 C.3      10 GLP5        0.0000 
     47 O          21.1430   15.9305   13.9815 O.2       1 ALC1        0.0000 
     48 O          21.5170   14.5320   14.4070 O.2      11 ALL1        0.0000 
     49 O          20.7690   17.3290   13.5560 O.2       6 ALP1        0.0000 
     50 O          20.2380   14.2080   14.9000 O.2       1 ALC1        0.0000 
     51 O          18.9590   13.8840   15.3930 O.2       6 ALP1        0.0000 
     52 CA         24.5620   10.1090   14.0870 C.3       5 GLC5        0.0000 
     53 CA         23.9320   11.9560   14.5440 C.3      15 GLL5        0.0000 
     54 CA         25.1315   11.6650   16.1930 C.3       5 GLC5        0.0000 
     55 CA         26.3310   11.3740   17.8420 C.3      10 GLP5        0.0000 
     56 CA         23.2830   10.4605   15.8265 C.3       5 GLC5        0.0000 
     57 CA         22.6340    8.9650   17.1090 C.3      10 GLP5        0.0000 
     58 CA         22.4265   11.5815   13.1415 C.3       5 GLC5        0.0000 
     59 CA         23.7705   12.6235   16.4495 C.3       5 GLC5        0.0000 
     60 CA         23.6090   13.2910   18.3550 C.3      10 GLP5        0.0000 
     61 CA         30.4010   11.9335   11.8570 C.3       5 GLC5        0.0000 
     62 CA         28.4600   12.3690   12.4790 C.3      15 GLL5        0.0000 
     63 CA         31.9360   11.2450   10.6300 C.3      10 GLP5        0.0000 
@<TRIPOS>BOND
@<TRIPOS>SUBSTRUCTURE
     1 ALC1       34 GROUP        1 X    ALC  0     ROOT ALC X 1
     2 SEC2        4 GROUP        1 X    SEC  0     **** SEC X 2
     3 LYC4        1 GROUP        1 X    LYC  0     **** LYC X 4
     4 ZIC7       11 GROUP        1 X    ZIC  0     **** ZIC X 5
     5 GLC5       29 GROUP        1 X    GLC  0     **** GLC X 6
     6 ALP1       36 GROUP        1 Y    ALP  0     ROOT ALP Y 8
     7 SEP2        6 GROUP        1 Y    SEP  0     **** SEP Y 9
     8 LYP4        3 GROUP        1 Y    LYP  0     **** LYP Y 11
     9 ZIP7       13 GROUP        1 Y    ZIP  0     **** ZIP Y 12
    10 GLP5       31 GROUP        1 Y    GLP  0     **** GLP Y 13
    11 ALL1       35 GROUP        1 Z    ALL  0     ROOT ALL Z 15
    12 SEL2        5 GROUP        1 Z    SEL  0     **** SEL Z 16
    13 LYL4        2 GROUP        1 Z    LYL  0     **** LYL Z 18
    14 ZIL7       12 GROUP        1 Z    ZIL  0     **** ZIL Z 19
    15 GLL5       30 GROUP        1 Z    GLL  0     **** GLL Z 20
@<TRIPOS>SET

