#    Name: 1k3c_ADP_1_ligand
#    Modification time : Tue Mar 25 09:36:31 2014

@<TRIPOS>MOLECULE
1k3c_ADP_1_ligand
   39    41     1     0     0
SMALL
NO_CHARGES


@<TRIPOS>ATOM
      1 PB         28.7740    6.4060   12.0050 P.3       1 ADP541      0.0000 
      2 O1B        27.4500    5.9700   11.5080 O.co2     1 ADP541      0.0000 
      3 O2B        29.2360    5.7980   13.2570 O.co2     1 ADP541      0.0000 
      4 O3B        29.8350    6.5410   10.8070 O.co2     1 ADP541      0.0000 
      5 PA         29.2050    8.7270   13.5410 P.3       1 ADP541      0.0000 
      6 O1A        28.2120    8.4650   14.5850 O.co2     1 ADP541      0.0000 
      7 O2A        30.6360    8.5560   13.7980 O.co2     1 ADP541      0.0000 
      8 O3A        28.7730    7.9680   12.1560 O.3       1 ADP541      0.0000 
      9 O5'        29.0170   10.1740   12.9470 O.3       1 ADP541      0.0000 
     10 C5'        27.8830   11.0060   12.7640 C.3       1 ADP541      0.0000 
     11 C4'        28.4600   12.3690   12.4790 C.3       1 ADP541      0.0000 
     12 O4'        27.4150   13.3030   12.2520 O.3       1 ADP541      0.0000 
     13 C3'        29.2720   12.8750   13.6890 C.3       1 ADP541      0.0000 
     14 O3'        30.3490   13.6970   13.1620 O.3       1 ADP541      0.0000 
     15 C2'        28.1960   13.7200   14.4000 C.3       1 ADP541      0.0000 
     16 O2'        28.7320   14.7220   15.2930 O.3       1 ADP541      0.0000 
     17 C1'        27.4580   14.3350   13.2250 C.3       1 ADP541      0.0000 
     18 N9         26.0290   14.6440   13.4630 N.pl3     1 ADP541      0.0000 
     19 C8         25.4270   15.8670   13.2930 C.2       1 ADP541      0.0000 
     20 N7         24.1480   15.8600   13.5640 N.2       1 ADP541      0.0000 
     21 C5         23.8730   14.5510   13.9320 C.ar      1 ADP541      0.0000 
     22 C6         22.6790   13.8980   14.3260 C.ar      1 ADP541      0.0000 
     23 N6         21.5170   14.5320   14.4070 N.pl3     1 ADP541      0.0000 
     24 N1         22.7510   12.5870   14.6300 N.ar      1 ADP541      0.0000 
     25 C2         23.9320   11.9560   14.5440 C.ar      1 ADP541      0.0000 
     26 N3         25.1120   12.4560   14.1770 N.ar      1 ADP541      0.0000 
     27 C4         25.0150   13.7870   13.8890 C.ar      1 ADP541      0.0000 
     28 H          27.2756   11.0691   13.6526 H         1 ADP541      0.0000 
     29 H          27.2861   10.7022   11.9190 H         1 ADP541      0.0000 
     30 H          29.1250   12.3099   11.6413 H         1 ADP541      0.0000 
     31 H          29.5477   12.0833   14.2646 H         1 ADP541      0.0000 
     32 H          27.5234   13.0370   14.8802 H         1 ADP541      0.0000 
     33 H          27.9785   15.1700   12.8569 H         1 ADP541      0.0000 
     34 H          25.9485   16.6669   12.9891 H         1 ADP541      0.0000 
     35 H          20.7379   13.9853   14.7138 H         1 ADP541      0.0000 
     36 H          21.5250   15.4994   14.1539 H         1 ADP541      0.0000 
     37 H          23.9219   10.8858   14.8122 H         1 ADP541      0.0000 
     38 H          31.0061   13.7743   13.9119 H         1 ADP541      0.0000 
     39 H          29.0930   14.2083   16.0713 H         1 ADP541      0.0000 
@<TRIPOS>BOND
     1    2    1 ar   
     2    3    1 ar   
     3    4    1 ar   
     4    8    1 1    
     5    6    5 ar   
     6    7    5 ar   
     7    8    5 1    
     8    9    5 1    
     9   10    9 1    
    10   11   10 1    
    11   28   10 1    
    12   29   10 1    
    13   12   11 1    
    14   13   11 1    
    15   30   11 1    
    16   17   12 1    
    17   14   13 1    
    18   15   13 1    
    19   31   13 1    
    20   38   14 1    
    21   16   15 1    
    22   17   15 1    
    23   32   15 1    
    24   39   16 1    
    25   18   17 1    
    26   33   17 1    
    27   19   18 1    
    28   27   18 1    
    29   20   19 2    
    30   34   19 1    
    31   21   20 1    
    32   22   21 ar   
    33   27   21 ar   
    34   23   22 1    
    35   24   22 ar   
    36   35   23 1    
    37   36   23 1    
    38   25   24 ar   
    39   26   25 ar   
    40   37   25 1    
    41   27   26 ar   
@<TRIPOS>SUBSTRUCTURE
     1 ADP541      1 GROUP   
@<TRIPOS>SET

