#    Name: 4ma0_AMP_1_INTS_M
#    Modification time : Tue Mar 25 11:58:46 2014

@<TRIPOS>MOLECULE
4ma0_AMP_1_INTS_M
   42     0    12     0     0
SMALL
NO_CHARGES


@<TRIPOS>ATOM
      1 NZ         23.1600   13.1715   32.0180 N.4       3 LYC4        0.0000 
      2 NZ         23.9040   13.3700   30.7100 N.4      11 LYL4        0.0000 
      3 NZ         22.4160   12.9730   33.3260 N.4       7 LYP4        0.0000 
      4 NZ         22.8185   14.8055   31.5035 N.4       3 LYC4        0.0000 
      5 NZ         21.7330   16.2410   32.2970 N.4       7 LYP4        0.0000 
      6 N          23.1600   13.1715   32.0180 N.am      2 SEC2        0.0000 
      7 N          23.9040   13.3700   30.7100 N.am     10 SEL2        0.0000 
      8 N          22.4160   12.9730   33.3260 N.am      6 SEP2        0.0000 
      9 N          25.3835   13.5690   31.3720 N.am      2 SEC2        0.0000 
     10 N          26.8630   13.7680   32.0340 N.am      6 SEP2        0.0000 
     11 O          19.5285    8.3070   26.8945 O.2       1 ALC1        0.0000 
     12 O          20.7190    8.7770   27.0840 O.2       9 ALL1        0.0000 
     13 O          18.3380    7.8370   26.7050 O.2       5 ALP1        0.0000 
     14 O          19.9830    7.3100   26.8200 O.2       1 ALC1        0.0000 
     15 O          19.2470    5.8430   26.5560 O.2       5 ALP1        0.0000 
     16 O          20.4495    6.2785   27.5800 O.2       1 ALC1        0.0000 
     17 O          21.6520    6.7140   28.6040 O.2       9 ALL1        0.0000 
     18 N          21.8390   11.6120   33.2475 N.am      2 SEC2        0.0000 
     19 N          21.2620   10.2510   33.1690 N.am     10 SEL2        0.0000 
     20 CA         19.9125    7.3835   36.4100 C.3       4 GLC5        0.0000 
     21 CA         20.0740    8.5340   34.7460 C.3      12 GLL5        0.0000 
     22 CA         19.7510    6.2330   38.0740 C.3       8 GLP5        0.0000 
     23 CA         18.0605    8.3880   35.1330 C.3       4 GLC5        0.0000 
     24 CA         16.0470    8.2420   35.5200 C.3       8 GLP5        0.0000 
     25 O          20.0755   11.0620   35.5255 O.2       1 ALC1        0.0000 
     26 O          19.7240    9.3700   35.7540 O.2       9 ALL1        0.0000 
     27 O          20.4270   12.7540   35.2970 O.2       5 ALP1        0.0000 
     28 O          19.3265    9.1100   37.0600 O.2       1 ALC1        0.0000 
     29 O          18.9290    8.8500   38.3660 O.2       5 ALP1        0.0000 
     30 N          18.8200    6.6680   35.6710 N.am      2 SEC2        0.0000 
     31 N          19.7790    7.2110   34.7790 N.am     10 SEL2        0.0000 
     32 N          17.8610    6.1250   36.5630 N.am      6 SEP2        0.0000 
     33 CA         19.9395    6.3070   35.9265 C.3       4 GLC5        0.0000 
     34 CA         20.1280    6.3810   33.7790 C.3      12 GLL5        0.0000 
     35 CA         18.0820    6.5930   34.4125 C.3       4 GLC5        0.0000 
     36 CA         16.0360    6.8050   35.0460 C.3       8 GLP5        0.0000 
     37 CA         19.3933    8.4612   29.5120 C.3       4 GLC5        0.0000 
     38 CA         21.2400    7.8740   29.3160 C.3      12 GLL5        0.0000 
     39 CA         17.5820    8.4420   30.1710 C.3       8 GLP5        0.0000 
     40 CA         22.3859    8.7500   34.2834 C.3       4 GLC5        0.0000 
     41 CA         20.8010    9.0500   33.5650 C.3      12 GLL5        0.0000 
     42 CA         23.9790    9.0630   35.2330 C.3       8 GLP5        0.0000 
@<TRIPOS>BOND
@<TRIPOS>SUBSTRUCTURE
     1 ALC1       11 GROUP        1 X    ALC  0     ROOT ALC X 1
     2 SEC2        6 GROUP        1 X    SEC  0     **** SEC X 2
     3 LYC4        1 GROUP        1 X    LYC  0     **** LYC X 4
     4 GLC5       20 GROUP        1 X    GLC  0     **** GLC X 6
     5 ALP1       13 GROUP        1 Y    ALP  0     ROOT ALP Y 8
     6 SEP2        8 GROUP        1 Y    SEP  0     **** SEP Y 9
     7 LYP4        3 GROUP        1 Y    LYP  0     **** LYP Y 11
     8 GLP5       22 GROUP        1 Y    GLP  0     **** GLP Y 13
     9 ALL1       12 GROUP        1 Z    ALL  0     ROOT ALL Z 15
    10 SEL2        7 GROUP        1 Z    SEL  0     **** SEL Z 16
    11 LYL4        2 GROUP        1 Z    LYL  0     **** LYL Z 18
    12 GLL5       21 GROUP        1 Z    GLL  0     **** GLL Z 20
@<TRIPOS>SET

