#    Name: 4ma0_AMP_1_ligand
#    Modification time : Tue Mar 25 11:58:46 2014

@<TRIPOS>MOLECULE
4ma0_AMP_1_ligand
   35    37     1     0     0
SMALL
NO_CHARGES


@<TRIPOS>ATOM
      1 P          23.6070   13.3080   29.2280 P.3       1 AMP401      0.0000 
      2 O1P        22.1680   13.6330   28.8930 O.co2     1 AMP401      0.0000 
      3 O2P        23.9040   13.3700   30.7100 O.co2     1 AMP401      0.0000 
      4 O3P        24.6470   14.0040   28.3570 O.co2     1 AMP401      0.0000 
      5 O5'        23.6890   11.7420   28.9290 O.3       1 AMP401      0.0000 
      6 C5'        22.7150   11.1080   28.1100 C.3       1 AMP401      0.0000 
      7 C4'        22.5910    9.6270   28.3950 C.3       1 AMP401      0.0000 
      8 O4'        23.0960    9.3190   29.7180 O.3       1 AMP401      0.0000 
      9 C3'        21.1690    9.0870   28.3900 C.3       1 AMP401      0.0000 
     10 O3'        20.7190    8.7770   27.0840 O.3       1 AMP401      0.0000 
     11 C2'        21.2400    7.8740   29.3160 C.3       1 AMP401      0.0000 
     12 O2'        21.6520    6.7140   28.6040 O.3       1 AMP401      0.0000 
     13 C1'        22.3430    8.2780   30.3010 C.3       1 AMP401      0.0000 
     14 N9         21.7860    8.7860   31.5680 N.pl3     1 AMP401      0.0000 
     15 C8         21.8540   10.0730   31.9630 C.2       1 AMP401      0.0000 
     16 N7         21.2620   10.2510   33.1690 N.2       1 AMP401      0.0000 
     17 C5         20.8010    9.0500   33.5650 C.ar      1 AMP401      0.0000 
     18 C6         20.0740    8.5340   34.7460 C.ar      1 AMP401      0.0000 
     19 N6         19.7240    9.3700   35.7540 N.pl3     1 AMP401      0.0000 
     20 N1         19.7790    7.2110   34.7790 N.ar      1 AMP401      0.0000 
     21 C2         20.1280    6.3810   33.7790 C.ar      1 AMP401      0.0000 
     22 N3         20.7860    6.7820   32.6760 N.ar      1 AMP401      0.0000 
     23 C4         21.1480    8.0820   32.5120 C.ar      1 AMP401      0.0000 
     24 H          22.9552   11.2252   27.0324 H         1 AMP401      0.0000 
     25 H          21.7120   11.5634   28.2490 H         1 AMP401      0.0000 
     26 H          23.1622    9.0651   27.6626 H         1 AMP401      0.0000 
     27 H          20.5515    9.8272   28.8867 H         1 AMP401      0.0000 
     28 H          20.3430    7.7825   29.8363 H         1 AMP401      0.0000 
     29 H          22.9566    7.4169   30.4895 H         1 AMP401      0.0000 
     30 H          22.2782   10.7938   31.4450 H         1 AMP401      0.0000 
     31 H          19.2793    8.9461   36.5429 H         1 AMP401      0.0000 
     32 H          19.9415   10.3368   35.6195 H         1 AMP401      0.0000 
     33 H          19.8689    5.3492   33.8654 H         1 AMP401      0.0000 
     34 H          19.7977    8.4086   27.2085 H         1 AMP401      0.0000 
     35 H          20.8710    6.4732   28.0278 H         1 AMP401      0.0000 
@<TRIPOS>BOND
     1    2    1 ar   
     2    3    1 ar   
     3    4    1 ar   
     4    5    1 1    
     5    6    5 1    
     6    7    6 1    
     7   24    6 1    
     8   25    6 1    
     9    8    7 1    
    10    9    7 1    
    11   26    7 1    
    12   13    8 1    
    13   10    9 1    
    14   11    9 1    
    15   27    9 1    
    16   34   10 1    
    17   12   11 1    
    18   13   11 1    
    19   28   11 1    
    20   35   12 1    
    21   14   13 1    
    22   29   13 1    
    23   15   14 1    
    24   23   14 1    
    25   16   15 2    
    26   30   15 1    
    27   17   16 1    
    28   18   17 ar   
    29   23   17 ar   
    30   19   18 1    
    31   20   18 ar   
    32   31   19 1    
    33   32   19 1    
    34   21   20 ar   
    35   22   21 ar   
    36   33   21 1    
    37   23   22 ar   
@<TRIPOS>SUBSTRUCTURE
     1 AMP401      1 GROUP   
@<TRIPOS>SET

