#    Name: 3IU9_1_CAVITY_N1_6.mol2
#    Modification time : Tue Mar 11 03:52:09 2014

@<TRIPOS>MOLECULE
3IU9_1_CAVITY_N1_6.mol2
   83     0     6     0     0
SMALL
NO_CHARGES


@<TRIPOS>ATOM
      1 CA         -2.1550   48.0876   -6.0186 C.3       5 GLY6        0.0000 
      2 N          -2.5167   46.8367   -5.2740 N.2       2 ALA2        0.0000 
      3 CZ         -9.2927   49.6845   -3.7819 C.ar      4 PHE5        0.0000 
      4 N          -3.0483   46.2360   -6.5415 N.2       2 ALA2        0.0000 
      5 N          -4.4035   46.8055   -6.2431 N.2       2 ALA2        0.0000 
      6 CZ         -7.1139   47.9446   -5.6463 C.ar      4 PHE5        0.0000 
      7 CZ         -8.4691   48.5142   -5.3479 C.ar      4 PHE5        0.0000 
      8 CZ         -9.8243   49.0838   -5.0494 C.ar      4 PHE5        0.0000 
      9 N          -4.9351   46.2048   -7.5106 N.2       2 ALA2        0.0000 
     10 CZ         -6.2903   46.7744   -7.2122 C.ar      4 PHE5        0.0000 
     11 CZ         -7.6455   47.3439   -6.9138 C.ar      4 PHE5        0.0000 
     12 CZ         -9.0007   47.9135   -6.6153 C.ar      4 PHE5        0.0000 
     13 CZ        -10.3558   48.4830   -6.3169 C.ar      4 PHE5        0.0000 
     14 CZ         -5.4667   45.6041   -8.7781 C.ar      4 PHE5        0.0000 
     15 CZ         -9.5322   47.3127   -7.8828 C.ar      4 PHE5        0.0000 
     16 CA        -10.8874   47.8823   -7.5844 C.3       5 GLY6        0.0000 
     17 O          -0.9917   45.6170   -3.5603 O.2       2 ALA2        0.0000 
     18 DU         -1.5233   45.0162   -4.8278 H         6 CUB7        0.0000 
     19 N          -2.8785   45.5858   -4.5294 N.2       2 ALA2        0.0000 
     20 CZ         -9.6545   48.4336   -3.0374 C.ar      4 PHE5        0.0000 
     21 DU         -2.0549   44.4155   -6.0953 H         6 CUB7        0.0000 
     22 N          -3.4101   44.9851   -5.7969 N.2       2 ALA2        0.0000 
     23 N          -4.7653   45.5546   -5.4985 N.2       2 ALA2        0.0000 
     24 N          -7.4757   46.6938   -4.9017 N.2       2 ALA2        0.0000 
     25 CZ         -8.8309   47.2633   -4.6033 C.ar      4 PHE5        0.0000 
     26 CZ        -10.1860   47.8329   -4.3049 C.ar      4 PHE5        0.0000 
     27 CA        -11.5412   48.4025   -4.0065 C.3       5 GLY6        0.0000 
     28 CZ         -2.5865   43.8148   -7.3628 C.ar      4 PHE5        0.0000 
     29 DU         -3.9417   44.3843   -7.0644 H         6 CUB7        0.0000 
     30 N          -5.2968   44.9539   -6.7660 N.2       2 ALA2        0.0000 
     31 N          -6.6520   45.5235   -6.4676 N.2       2 ALA2        0.0000 
     32 N          -8.0072   46.0930   -6.1692 N.2       2 ALA2        0.0000 
     33 DU         -9.3624   46.6626   -5.8708 H         6 CUB7        0.0000 
     34 CA        -10.7176   47.2322   -5.5724 C.3       5 GLY6        0.0000 
     35 N          -8.5388   45.4923   -7.4367 N.2       2 ALA2        0.0000 
     36 CZ         -9.8940   46.0619   -7.1383 C.ar      4 PHE5        0.0000 
     37 CA        -11.2492   46.6314   -6.8399 C.3       5 GLY6        0.0000 
     38 OG         -0.8219   44.9668   -1.5482 O.2       1 SER1        0.0000 
     39 O          -2.1771   45.5364   -1.2498 O.2       2 ALA2        0.0000 
     40 OG         -1.3535   44.3661   -2.8157 O.2       1 SER1        0.0000 
     41 O          -2.7087   44.9356   -2.5173 O.2       2 ALA2        0.0000 
     42 OG         -0.5299   43.1958   -4.3816 O.2       1 SER1        0.0000 
     43 DU         -1.8851   43.7653   -4.0832 H         6 CUB7        0.0000 
     44 O          -3.2403   44.3349   -3.7848 O.2       2 ALA2        0.0000 
     45 N          -1.0615   42.5951   -5.6491 N.2       2 ALA2        0.0000 
     46 CZ         -2.4167   43.1646   -5.3507 C.ar      4 PHE5        0.0000 
     47 DU         -3.7719   43.7342   -5.0523 H         6 CUB7        0.0000 
     48 N          -5.1270   44.3037   -4.7539 N.2       2 ALA2        0.0000 
     49 N          -6.4822   44.8733   -4.4555 N.2       2 ALA2        0.0000 
     50 CZ         -7.8374   45.4429   -4.1571 C.ar      4 PHE5        0.0000 
     51 CZ         -9.1926   46.0124   -3.8587 C.ar      4 PHE5        0.0000 
     52 CZ        -10.5478   46.5820   -3.5603 C.ar      4 PHE5        0.0000 
     53 OG        -11.9030   47.1516   -3.2619 O.2       1 SER1        0.0000 
     54 CZ         -2.9482   42.5639   -6.6182 C.ar      4 PHE5        0.0000 
     55 CZ         -4.3034   43.1334   -6.3198 C.ar      4 PHE5        0.0000 
     56 N          -9.7242   45.4117   -5.1262 N.2       2 ALA2        0.0000 
     57 CA        -11.0794   45.9813   -4.8278 C.3       5 GLY6        0.0000 
     58 CA        -10.2558   44.8110   -6.3937 C.3       5 GLY6        0.0000 
     59 CA        -11.6110   45.3805   -6.0953 C.3       5 GLY6        0.0000 
     60 N          -1.7153   43.1152   -2.0712 N.2       2 ALA2        0.0000 
     61 N          -3.0705   43.6848   -1.7727 N.2       2 ALA2        0.0000 
     62 O          -2.2469   42.5145   -3.3386 O.2       2 ALA2        0.0000 
     63 N          -3.6020   43.0840   -3.0402 N.2       2 ALA2        0.0000 
     64 CA         -4.9572   43.6536   -2.7418 C.3       5 GLY6        0.0000 
     65 N          -6.3124   44.2232   -2.4434 N.2       2 ALA2        0.0000 
     66 CZ         -2.7784   41.9137   -4.6061 C.ar      4 PHE5        0.0000 
     67 CZ         -4.1336   42.4833   -4.3077 C.ar      4 PHE5        0.0000 
     68 N          -5.4888   43.0529   -4.0093 N.2       2 ALA2        0.0000 
     69 N          -6.8440   43.6224   -3.7109 N.2       2 ALA2        0.0000 
     70 N          -8.1992   44.1920   -3.4125 N.2       2 ALA2        0.0000 
     71 CZ         -9.5544   44.7616   -3.1141 C.ar      4 PHE5        0.0000 
     72 CA        -10.9096   45.3311   -2.8157 C.3       5 GLY6        0.0000 
     73 CZ         -4.6652   41.8826   -5.5752 C.ar      4 PHE5        0.0000 
     74 N         -10.0860   44.1608   -4.3816 N.2       2 ALA2        0.0000 
     75 NZ        -11.4412   44.7304   -4.0832 N.2       3 LYS4        0.0000 
     76 CA        -10.6175   43.5601   -5.6491 C.3       5 GLY6        0.0000 
     77 N          -4.4954   41.2324   -3.5632 N.2       2 ALA2        0.0000 
     78 NZ         -5.8506   41.8020   -3.2647 N.2       3 LYS4        0.0000 
     79 NZ         -7.2058   42.3715   -2.9663 N.2       3 LYS4        0.0000 
     80 NZ         -8.5610   42.9411   -2.6679 N.2       3 LYS4        0.0000 
     81 N          -6.3822   41.2012   -4.5322 N.2       2 ALA2        0.0000 
     82 N          -7.7374   41.7708   -4.2338 N.2       2 ALA2        0.0000 
     83 N          -9.0926   42.3404   -3.9354 N.2       2 ALA2        0.0000 
@<TRIPOS>BOND
@<TRIPOS>SUBSTRUCTURE
     1 SER1       38 GROUP   
     2 ALA2        2 GROUP   
     3 LYS4       75 GROUP   
     4 PHE5        3 GROUP   
     5 GLY6        1 GROUP   
     6 CUB7       18 GROUP   
@<TRIPOS>SET

