#    Name: 3iu9_T07_1_INTS_M
#    Modification time : Tue Mar 25 17:26:48 2014

@<TRIPOS>MOLECULE
3iu9_T07_1_INTS_M
   41     0     9     0     0
SMALL
NO_CHARGES


@<TRIPOS>ATOM
      1 CA        -12.2260   42.5385   -3.6580 C.3       3 GLC5        0.0000 
      2 CA        -10.8170   43.8280   -4.3810 C.3       9 GLL5        0.0000 
      3 CA        -13.6350   41.2490   -2.9350 C.3       6 GLP5        0.0000 
      4 CA        -11.7855   49.4195   -4.9855 C.3       3 GLC5        0.0000 
      5 CA         -9.9410   49.1270   -3.9830 C.3       9 GLL5        0.0000 
      6 CA        -13.6300   49.7120   -5.9880 C.3       6 GLP5        0.0000 
      7 O          -8.0020   43.3065   -5.1475 O.2       1 ALC1        0.0000 
      8 O          -8.1450   43.8390   -3.7660 O.2       7 ALL1        0.0000 
      9 O          -7.8590   42.7740   -6.5290 O.2       4 ALP1        0.0000 
     10 CA         -7.2715   48.3405   -6.8810 C.3       3 GLC5        0.0000 
     11 CA         -7.7360   46.7360   -6.2830 C.3       9 GLL5        0.0000 
     12 CA         -6.8070   49.9450   -7.4790 C.3       6 GLP5        0.0000 
     13 CA         -7.8790   46.5935   -8.3760 C.3       3 GLC5        0.0000 
     14 CA         -8.0220   46.4510  -10.4690 C.3       6 GLP5        0.0000 
     15 CA        -10.1290   52.5935   -3.8845 C.3       3 GLC5        0.0000 
     16 CA         -9.7920   50.7880   -3.4710 C.3       9 GLL5        0.0000 
     17 CA        -10.4660   54.3990   -4.2980 C.3       6 GLP5        0.0000 
     18 CA         -8.9405   51.4545   -4.8645 C.3       3 GLC5        0.0000 
     19 CA         -8.0890   52.1210   -6.2580 C.3       6 GLP5        0.0000 
     20 CA         -8.9010   50.2210   -2.1415 C.3       3 GLC5        0.0000 
     21 CA         -8.0100   49.6540   -0.8120 C.3       6 GLP5        0.0000 
     22 N         -10.4720   42.5405   -2.0505 N.am      2 SEC2        0.0000 
     23 N          -9.5310   43.6660   -1.9910 N.am      8 SEL2        0.0000 
     24 N         -11.4130   41.4150   -2.1100 N.am      5 SEP2        0.0000 
     25 CA        -11.7263   43.9395   -6.1130 C.3       3 GLC5        0.0000 
     26 CA        -10.1840   45.1440   -5.4510 C.3       9 GLL5        0.0000 
     27 CA        -12.9520   43.3930   -7.3100 C.3       6 GLP5        0.0000 
     28 CA         -9.7338   43.3810   -6.0615 C.3       3 GLC5        0.0000 
     29 CA         -8.9670   42.2760   -7.2070 C.3       6 GLP5        0.0000 
     30 CA         -9.7930   50.2938   -6.0080 C.3       3 GLC5        0.0000 
     31 CA        -10.1570   51.6880   -7.6200 C.3       6 GLP5        0.0000 
     32 CA        -12.0177   46.6020   -5.2367 C.3       3 GLC5        0.0000 
     33 CA        -10.0750   46.5420   -4.8600 C.3       9 GLL5        0.0000 
     34 CA        -13.9060   47.3610   -5.3180 C.3       6 GLP5        0.0000 
     35 CA        -12.4160   47.5055   -4.5050 C.3       3 GLC5        0.0000 
     36 CA        -10.9780   47.0060   -3.8940 C.3       9 GLL5        0.0000 
     37 CA        -11.7910   47.1525   -2.1575 C.3       3 GLC5        0.0000 
     38 CA        -12.6560   46.6550   -0.6230 C.3       6 GLP5        0.0000 
     39 CA        -11.7386   50.2059   -2.7478 C.3       3 GLC5        0.0000 
     40 CA        -10.8740   48.2940   -3.4900 C.3       9 GLL5        0.0000 
     41 CA        -13.1070   51.2860   -1.8870 C.3       6 GLP5        0.0000 
@<TRIPOS>BOND
@<TRIPOS>SUBSTRUCTURE
     1 ALC1        7 GROUP        1 X    ALC  0     ROOT ALC X 1
     2 SEC2       22 GROUP        1 X    SEC  0     **** SEC X 2
     3 GLC5        1 GROUP        1 X    GLC  0     **** GLC X 6
     4 ALP1        9 GROUP        1 Y    ALP  0     ROOT ALP Y 8
     5 SEP2       24 GROUP        1 Y    SEP  0     **** SEP Y 9
     6 GLP5        3 GROUP        1 Y    GLP  0     **** GLP Y 13
     7 ALL1        8 GROUP        1 Z    ALL  0     ROOT ALL Z 15
     8 SEL2       23 GROUP        1 Z    SEL  0     **** SEL Z 16
     9 GLL5        2 GROUP        1 Z    GLL  0     **** GLL Z 20
@<TRIPOS>SET

