#    Name: 3iu9_T07_1_ligand
#    Modification time : Tue Mar 25 17:26:48 2014

@<TRIPOS>MOLECULE
3iu9_T07_1_ligand
   23    24     1     0     0
SMALL
NO_CHARGES


@<TRIPOS>ATOM
      1 S         -10.8170   43.8280   -4.3810 S.3       1 T07288      0.0000 
      2 C1         -9.9410   49.1270   -3.9830 C.ar      1 T07288      0.0000 
      3 N1         -8.1450   43.8390   -3.7660 N.pl3     1 T07288      0.0000 
      4 CL1        -7.7360   46.7360   -6.2830 Cl        1 T07288      0.0000 
      5 C2         -9.0700   47.3530   -5.2420 C.ar      1 T07288      0.0000 
      6 N2         -8.1860   43.7230   -1.5830 N.2       1 T07288      0.0000 
      7 CL2        -9.7920   50.7880   -3.4710 Cl        1 T07288      0.0000 
      8 C3        -10.0750   46.5420   -4.8600 C.ar      1 T07288      0.0000 
      9 N3         -6.0240   43.8800   -2.5770 N.pl3     1 T07288      0.0000 
     10 C4        -10.1840   45.1440   -5.4510 C.3       1 T07288      0.0000 
     11 N4         -9.5310   43.6660   -1.9910 N.2       1 T07288      0.0000 
     12 C5         -8.9170   48.6720   -4.8090 C.ar      1 T07288      0.0000 
     13 C6        -10.9780   47.0060   -3.8940 C.ar      1 T07288      0.0000 
     14 C7        -10.8740   48.2940   -3.4900 C.ar      1 T07288      0.0000 
     15 C8         -7.3950   43.8240   -2.6410 C.2       1 T07288      0.0000 
     16 C9         -9.4170   43.7770   -3.3170 C.2       1 T07288      0.0000 
     17 H          -7.8482   43.8825   -4.6552 H         1 T07288      0.0000 
     18 H         -10.8677   45.0912   -6.3065 H         1 T07288      0.0000 
     19 H          -9.2175   44.7350   -5.7683 H         1 T07288      0.0000 
     20 H          -8.1463   49.2328   -5.0683 H         1 T07288      0.0000 
     21 H         -11.6854   46.3740   -3.5197 H         1 T07288      0.0000 
     22 H         -11.5514   48.6530   -2.7619 H         1 T07288      0.0000 
     23 H          -5.7114   43.6158   -3.4894 H         1 T07288      0.0000 
@<TRIPOS>BOND
     1   10    1 1    
     2   16    1 1    
     3    7    2 1    
     4   12    2 ar   
     5   14    2 ar   
     6   15    3 1    
     7   16    3 1    
     8   17    3 1    
     9    5    4 1    
    10    8    5 ar   
    11   12    5 ar   
    12   11    6 1    
    13   15    6 2    
    14   10    8 1    
    15   13    8 ar   
    16   15    9 1    
    17   23    9 1    
    18   18   10 1    
    19   19   10 1    
    20   16   11 2    
    21   20   12 1    
    22   14   13 ar   
    23   21   13 1    
    24   22   14 1    
@<TRIPOS>SUBSTRUCTURE
     1 T07288      1 GROUP   
@<TRIPOS>SET

