#    Name: 4fco_0U4_1_INTS_M
#    Modification time : Mon Mar 24 19:19:49 2014

@<TRIPOS>MOLECULE
4fco_0U4_1_INTS_M
  110     0     9     0     0
SMALL
NO_CHARGES


@<TRIPOS>ATOM
      1 CA        -22.0780   16.2445   -5.9955 C.3       3 GLC5        0.0000 
      2 CA        -20.2100   16.6670   -6.7180 C.3       9 GLL5        0.0000 
      3 CA        -23.9460   15.8220   -5.2730 C.3       6 GLP5        0.0000 
      4 CA        -20.2300   21.5145   -6.1880 C.3       3 GLC5        0.0000 
      5 CA        -20.0430   19.3850   -6.0610 C.3       9 GLL5        0.0000 
      6 CA        -20.4170   23.6440   -6.3150 C.3       6 GLP5        0.0000 
      7 CA        -16.6200   20.3695   -5.2940 C.3       3 GLC5        0.0000 
      8 CA        -17.8550   19.6710   -3.9830 C.3       9 GLL5        0.0000 
      9 CA        -15.3850   21.0680   -6.6050 C.3       6 GLP5        0.0000 
     10 CA        -15.9400   19.9315   -3.1415 C.3       3 GLC5        0.0000 
     11 CA        -14.0250   20.1920   -2.3000 C.3       6 GLP5        0.0000 
     12 O         -20.5165   21.0550   -3.7290 O.2       1 ALC1        0.0000 
     13 O         -20.1430   19.6910   -3.1450 O.2       7 ALL1        0.0000 
     14 O         -20.8900   22.4190   -4.3130 O.2       4 ALP1        0.0000 
     15 N         -20.3590   18.6355   -0.1235 N.am      2 SEC2        0.0000 
     16 N         -20.7600   18.0910   -1.5480 N.am      8 SEL2        0.0000 
     17 N         -19.9580   19.1800    1.3010 N.am      5 SEP2        0.0000 
     18 CA        -23.5505   18.4670   -2.8435 C.3       3 GLC5        0.0000 
     19 CA        -23.2100   19.7700   -1.1220 C.3       9 GLL5        0.0000 
     20 CA        -23.8910   17.1640   -4.5650 C.3       6 GLP5        0.0000 
     21 CA        -26.1230   22.7770    1.6395 C.3       3 GLC5        0.0000 
     22 CA        -26.0960   21.0870    0.8700 C.3       9 GLL5        0.0000 
     23 CA        -26.1500   24.4670    2.4090 C.3       6 GLP5        0.0000 
     24 CA        -27.4840   21.6545   -0.4670 C.3       3 GLC5        0.0000 
     25 CA        -28.8720   22.2220   -1.8040 C.3       6 GLP5        0.0000 
     26 N         -26.1490   18.7065   -3.7335 N.am      2 SEC2        0.0000 
     27 N         -25.7460   18.8880   -2.3120 N.am      8 SEL2        0.0000 
     28 N         -26.5520   18.5250   -5.1550 N.am      5 SEP2        0.0000 
     29 CA        -24.3785   23.6725    0.6435 C.3       3 GLC5        0.0000 
     30 CA        -23.7700   22.0730   -0.5490 C.3       9 GLL5        0.0000 
     31 CA        -24.9870   25.2720    1.8360 C.3       6 GLP5        0.0000 
     32 CA        -23.0485   22.2495   -2.9305 C.3       3 GLC5        0.0000 
     33 CA        -22.4940   22.4630   -0.9380 C.3       9 GLL5        0.0000 
     34 CA        -23.6030   22.0360   -4.9230 C.3       6 GLP5        0.0000 
     35 N         -22.4145   24.3750    1.5500 N.am      2 SEC2        0.0000 
     36 N         -22.4320   24.6260    0.0240 N.am      8 SEL2        0.0000 
     37 N         -22.3970   24.1240    3.0760 N.am      5 SEP2        0.0000 
     38 O         -21.0815   23.3625   -3.1355 O.2       1 ALC1        0.0000 
     39 O         -21.2730   24.3060   -1.9580 O.2       7 ALL1        0.0000 
     40 CA        -19.8550   24.5515   -4.3765 C.3       3 GLC5        0.0000 
     41 CA        -19.2930   25.4590   -2.4380 C.3       9 GLL5        0.0000 
     42 CA        -19.8275   22.4835    1.4830 C.3       3 GLC5        0.0000 
     43 CA        -18.0200   23.1150    0.3100 C.3       9 GLL5        0.0000 
     44 CA        -21.6350   21.8520    2.6560 C.3       6 GLP5        0.0000 
     45 CA        -19.4785   25.5595    0.6945 C.3       3 GLC5        0.0000 
     46 CA        -18.7130   24.1260   -0.3440 C.3       9 GLL5        0.0000 
     47 CA        -20.2440   26.9930    1.7330 C.3       6 GLP5        0.0000 
     48 CA        -21.8730   27.9165   -4.7840 C.3       3 GLC5        0.0000 
     49 CA        -21.4080   26.6380   -2.9950 C.3       9 GLL5        0.0000 
     50 CA        -22.3380   29.1950   -6.5730 C.3       6 GLP5        0.0000 
     51 O         -20.3495   27.3100   -4.7550 O.2       1 ALC1        0.0000 
     52 O         -20.7200   27.8050   -3.1530 O.2       7 ALL1        0.0000 
     53 O         -19.9790   26.8150   -6.3570 O.2       4 ALP1        0.0000 
     54 O         -19.7120   27.7730   -3.9980 O.2       1 ALC1        0.0000 
     55 O         -18.7040   27.7410   -4.8430 O.2       4 ALP1        0.0000 
     56 CA        -23.3790   29.0060   -4.6265 C.3       3 GLC5        0.0000 
     57 CA        -24.4200   28.8170   -2.6800 C.3       9 GLL5        0.0000 
     58 CA        -24.9620   30.7250   -3.1465 C.3       3 GLC5        0.0000 
     59 CA        -25.5040   32.6330   -3.6130 C.3       6 GLP5        0.0000 
     60 CA        -26.9330   29.2375   -3.5195 C.3       3 GLC5        0.0000 
     61 CA        -26.6150   29.3290   -1.3980 C.3       9 GLL5        0.0000 
     62 CA        -27.2510   29.1460   -5.6410 C.3       6 GLP5        0.0000 
     63 CA        -26.4530   32.2510   -1.2500 C.3       3 GLC5        0.0000 
     64 CA        -26.6440   30.9800    0.3730 C.3       9 GLL5        0.0000 
     65 CA        -26.2620   33.5220   -2.8730 C.3       6 GLP5        0.0000 
     66 CA        -28.6810   27.3415   -2.3750 C.3       3 GLC5        0.0000 
     67 CA        -27.8870   28.7610   -0.9140 C.3       9 GLL5        0.0000 
     68 CA        -29.4750   25.9220   -3.8360 C.3       6 GLP5        0.0000 
     69 CA        -29.4100   31.1825   -1.3380 C.3       3 GLC5        0.0000 
     70 CA        -28.6680   29.8230   -0.2250 C.3       9 GLL5        0.0000 
     71 CA        -30.1520   32.5420   -2.4510 C.3       6 GLP5        0.0000 
     72 CA        -29.5205   31.9950   -0.4390 C.3       3 GLC5        0.0000 
     73 CA        -28.8890   31.4480    1.5730 C.3       9 GLL5        0.0000 
     74 CA        -18.3283   15.7870   -5.5525 C.3       3 GLC5        0.0000 
     75 CA        -19.7170   17.0330   -5.4640 C.3       9 GLL5        0.0000 
     76 CA        -16.6930   14.7240   -5.0140 C.3       6 GLP5        0.0000 
     77 CA        -18.2447   17.3540   -6.6210 C.3       3 GLC5        0.0000 
     78 CA        -16.5260   17.8580   -7.1510 C.3       6 GLP5        0.0000 
     79 CA        -21.7850   17.4405   -4.9340 C.3       3 GLC5        0.0000 
     80 CA        -18.5392   18.0925   -7.3148 C.3       3 GLC5        0.0000 
     81 CA        -20.5930   17.6390   -7.6410 C.3       9 GLL5        0.0000 
     82 CA        -22.0362   18.2660   -8.5897 C.3       3 GLC5        0.0000 
     83 CA        -20.5120   19.0150   -7.3160 C.3       9 GLL5        0.0000 
     84 CA        -23.5200   18.2050   -9.7010 C.3       6 GLP5        0.0000 
     85 CA        -18.1840   18.3755   -6.3762 C.3       3 GLC5        0.0000 
     86 CA        -22.2339   18.5900   -6.1609 C.3       3 GLC5        0.0000 
     87 CA        -24.1700   18.3240   -5.5520 C.3       6 GLP5        0.0000 
     88 CA        -17.5100   18.5585   -5.5230 C.3       3 GLC5        0.0000 
     89 CA        -19.1330   18.8470   -3.8070 C.3       9 GLL5        0.0000 
     90 CA        -17.5055   18.4470   -2.3200 C.3       3 GLC5        0.0000 
     91 CA        -16.5170   17.6350   -0.7450 C.3       6 GLP5        0.0000 
     92 CA        -23.0404   21.1751   -3.1081 C.3       3 GLC5        0.0000 
     93 CA        -21.5650   21.5280   -1.4250 C.3       9 GLL5        0.0000 
     94 CA        -24.9638   21.7198   -2.3117 C.3       3 GLC5        0.0000 
     95 CA        -25.9830   22.0360   -4.0260 C.3       6 GLP5        0.0000 
     96 CA        -16.6490   23.0557   -3.7305 C.3       3 GLC5        0.0000 
     97 CA        -17.6280   23.5020   -2.4300 C.3       9 GLL5        0.0000 
     98 CA        -16.0220   23.1170   -5.3600 C.3       6 GLP5        0.0000 
     99 CA        -17.0126   25.4016   -2.8551 C.3       3 GLC5        0.0000 
    100 CA        -15.7560   26.6060   -3.4590 C.3       6 GLP5        0.0000 
    101 CA        -19.8927   27.1768   -1.3672 C.3       3 GLC5        0.0000 
    102 CA        -20.7530   25.6910   -2.0260 C.3       9 GLL5        0.0000 
    103 CA        -19.0700   28.2470   -0.1210 C.3       6 GLP5        0.0000 
    104 CA        -26.1535   28.8325   -4.0100 C.3       3 GLC5        0.0000 
    105 CA        -25.8740   31.1248   -2.2385 C.3       3 GLC5        0.0000 
    106 CA        -29.8017   29.2525    0.3032 C.3       3 GLC5        0.0000 
    107 CA        -31.3260   29.2130    1.1760 C.3       6 GLP5        0.0000 
    108 CA        -29.7485   30.2238    2.8909 C.3       3 GLC5        0.0000 
    109 CA        -31.0710   29.2260    2.6770 C.3       6 GLP5        0.0000 
    110 CA        -22.3336   21.6921    0.8783 C.3       3 GLC5        0.0000 
@<TRIPOS>BOND
@<TRIPOS>SUBSTRUCTURE
     1 ALC1       12 GROUP        1 X    ALC  0     ROOT ALC X 1
     2 SEC2       15 GROUP        1 X    SEC  0     **** SEC X 2
     3 GLC5        1 GROUP        1 X    GLC  0     **** GLC X 6
     4 ALP1       14 GROUP        1 Y    ALP  0     ROOT ALP Y 8
     5 SEP2       17 GROUP        1 Y    SEP  0     **** SEP Y 9
     6 GLP5        3 GROUP        1 Y    GLP  0     **** GLP Y 13
     7 ALL1       13 GROUP        1 Z    ALL  0     ROOT ALL Z 15
     8 SEL2       16 GROUP        1 Z    SEL  0     **** SEL Z 16
     9 GLL5        2 GROUP        1 Z    GLL  0     **** GLL Z 20
@<TRIPOS>SET

