#    Name: 4fco_0U4_1_ligand
#    Modification time : Mon Mar 24 19:19:49 2014

@<TRIPOS>MOLECULE
4fco_0U4_1_ligand
  106   110     1     0     0
SMALL
NO_CHARGES


@<TRIPOS>ATOM
      1 CAV       -19.7170   17.0330   -5.4640 C.ar      1 0U4504      0.0000 
      2 CAP       -20.2100   16.6670   -6.7180 C.ar      1 0U4504      0.0000 
      3 CAK       -20.5930   17.6390   -7.6410 C.ar      1 0U4504      0.0000 
      4 CAQ       -20.5120   19.0150   -7.3160 C.ar      1 0U4504      0.0000 
      5 CAW       -20.0430   19.3850   -6.0610 C.ar      1 0U4504      0.0000 
      6 CBS       -19.6410   18.4010   -5.1420 C.ar      1 0U4504      0.0000 
      7 CBU       -19.1330   18.8470   -3.8070 C.3       1 0U4504      0.0000 
      8 CAA       -17.8550   19.6710   -3.9830 C.3       1 0U4504      0.0000 
      9 NBK       -20.1430   19.6910   -3.1450 N.am      1 0U4504      0.0000 
     10 CBM       -20.9190   19.2010   -2.0380 C.2       1 0U4504      0.0000 
     11 OAD       -20.7600   18.0910   -1.5480 O.2       1 0U4504      0.0000 
     12 CBQ       -21.9260   20.1890   -1.5040 C.ar      1 0U4504      0.0000 
     13 CAX       -21.5650   21.5280   -1.4250 C.ar      1 0U4504      0.0000 
     14 CAY       -23.2100   19.7700   -1.1220 C.ar      1 0U4504      0.0000 
     15 CBT       -24.1190   20.7340   -0.6460 C.ar      1 0U4504      0.0000 
     16 NBY       -25.4710   20.3610   -0.2140 N.pl3     1 0U4504      0.0000 
     17 CAB       -26.0960   21.0870    0.8700 C.3       1 0U4504      0.0000 
     18 SCA       -26.2620   19.1030   -0.9640 S.o2      1 0U4504      0.0000 
     19 CAC       -25.9780   17.6330   -0.0390 C.3       1 0U4504      0.0000 
     20 OAG       -25.7460   18.8880   -2.3120 O.2       1 0U4504      0.0000 
     21 OAF       -27.6990   19.4140   -0.9400 O.2       1 0U4504      0.0000 
     22 CAZ       -23.7700   22.0730   -0.5490 C.ar      1 0U4504      0.0000 
     23 CBR       -22.4940   22.4630   -0.9380 C.ar      1 0U4504      0.0000 
     24 CBN       -22.0930   23.8760   -0.8620 C.2       1 0U4504      0.0000 
     25 OAE       -22.4320   24.6260    0.0240 O.2       1 0U4504      0.0000 
     26 NBL       -21.2730   24.3060   -1.9580 N.am      1 0U4504      0.0000 
     27 CBX       -20.7530   25.6910   -2.0260 C.3       1 0U4504      0.0000 
     28 CBH       -19.2930   25.4590   -2.4380 C.3       1 0U4504      0.0000 
     29 CBO       -18.5280   24.3260   -1.7070 C.ar      1 0U4504      0.0000 
     30 CAR       -17.6280   23.5020   -2.4300 C.ar      1 0U4504      0.0000 
     31 CAL       -16.9240   22.4870   -1.7720 C.ar      1 0U4504      0.0000 
     32 CAI       -17.1190   22.2890   -0.4130 C.ar      1 0U4504      0.0000 
     33 CAM       -18.0200   23.1150    0.3100 C.ar      1 0U4504      0.0000 
     34 CAS       -18.7130   24.1260   -0.3440 C.ar      1 0U4504      0.0000 
     35 CBV       -21.4080   26.6380   -2.9950 C.3       1 0U4504      0.0000 
     36 OAH       -20.7200   27.8050   -3.1530 O.3       1 0U4504      0.0000 
     37 CBE       -22.8250   26.9710   -2.4700 C.3       1 0U4504      0.0000 
     38 NBJ       -23.5240   27.9070   -3.3950 N.4       1 0U4504      0.0000 
     39 CBA       -24.4200   28.8170   -2.6800 C.3       1 0U4504      0.0000 
     40 CBB       -25.6920   28.2210   -2.0780 C.3       1 0U4504      0.0000 
     41 CBW       -26.6150   29.3290   -1.3980 C.3       1 0U4504      0.0000 
     42 CBD       -25.8730   29.9040   -0.3300 C.3       1 0U4504      0.0000 
     43 CBG       -26.6440   30.9800    0.3730 C.3       1 0U4504      0.0000 
     44 CBC       -27.8870   28.7610   -0.9140 C.3       1 0U4504      0.0000 
     45 CBF       -28.6680   29.8230   -0.2250 C.3       1 0U4504      0.0000 
     46 NBZ       -27.9530   30.5320    0.8210 N.4       1 0U4504      0.0000 
     47 CBI       -28.8890   31.4480    1.5730 C.3       1 0U4504      0.0000 
     48 CBP       -28.2590   31.7740    2.9320 C.ar      1 0U4504      0.0000 
     49 CAT       -28.2780   30.8320    3.9570 C.ar      1 0U4504      0.0000 
     50 CAN       -27.6990   31.1300    5.1940 C.ar      1 0U4504      0.0000 
     51 CAJ       -27.0810   32.4080    5.4000 C.ar      1 0U4504      0.0000 
     52 CAO       -27.0570   33.3500    4.3770 C.ar      1 0U4504      0.0000 
     53 CAU       -27.6370   33.0530    3.1410 C.ar      1 0U4504      0.0000 
     54 H         -19.4183   16.3308   -4.7948 H         1 0U4504      0.0000 
     55 H         -20.2911   15.6688   -6.9626 H         1 0U4504      0.0000 
     56 H         -20.9389   17.3641   -8.5693 H         1 0U4504      0.0000 
     57 H         -20.7958   19.7132   -7.9993 H         1 0U4504      0.0000 
     58 H         -19.9877   20.3757   -5.7989 H         1 0U4504      0.0000 
     59 H         -18.9061   17.9956   -3.1998 H         1 0U4504      0.0000 
     60 H         -20.2830   20.6375   -3.4892 H         1 0U4504      0.0000 
     61 H         -20.6362   21.8369   -1.7159 H         1 0U4504      0.0000 
     62 H         -23.4788   18.7953   -1.1867 H         1 0U4504      0.0000 
     63 H         -24.4378   22.7609   -0.1982 H         1 0U4504      0.0000 
     64 H         -21.0346   23.6664   -2.7077 H         1 0U4504      0.0000 
     65 H         -20.7167   26.1132   -1.0340 H         1 0U4504      0.0000 
     66 H         -18.7267   26.4065   -2.2968 H         1 0U4504      0.0000 
     67 H         -19.2585   25.2513   -3.5307 H         1 0U4504      0.0000 
     68 H         -17.4992   23.6563   -3.4326 H         1 0U4504      0.0000 
     69 H         -16.2703   21.8972   -2.2955 H         1 0U4504      0.0000 
     70 H         -16.6166   21.5459    0.0858 H         1 0U4504      0.0000 
     71 H         -18.1493   22.9544    1.3127 H         1 0U4504      0.0000 
     72 H         -19.3630   24.7266    0.1801 H         1 0U4504      0.0000 
     73 H         -21.5599   26.1071   -3.9364 H         1 0U4504      0.0000 
     74 H         -22.7252   27.4166   -1.4796 H         1 0U4504      0.0000 
     75 H         -23.3822   26.0379   -2.3782 H         1 0U4504      0.0000 
     76 H         -24.7309   29.6596   -3.3572 H         1 0U4504      0.0000 
     77 H         -23.8622   29.3295   -1.8485 H         1 0U4504      0.0000 
     78 H         -25.4382   27.4907   -1.3125 H         1 0U4504      0.0000 
     79 H         -26.2808   27.7337   -2.8523 H         1 0U4504      0.0000 
     80 H         -26.8041   30.0658   -2.1726 H         1 0U4504      0.0000 
     81 H         -24.9218   30.3432   -0.6938 H         1 0U4504      0.0000 
     82 H         -25.5897   29.1372    0.4196 H         1 0U4504      0.0000 
     83 H         -26.7470   31.8450   -0.3123 H         1 0U4504      0.0000 
     84 H         -26.0445   31.3384    1.2336 H         1 0U4504      0.0000 
     85 H         -27.6908   27.9419   -0.2180 H         1 0U4504      0.0000 
     86 H         -28.4656   28.3683   -1.7536 H         1 0U4504      0.0000 
     87 H         -29.5989   29.3629    0.1949 H         1 0U4504      0.0000 
     88 H         -29.0351   30.5492   -0.9946 H         1 0U4504      0.0000 
     89 H         -27.7291   29.6697    1.6069 H         1 0U4504      0.0000 
     90 H         -29.8376   30.9569    1.7323 H         1 0U4504      0.0000 
     91 H         -29.0312   32.3652    1.0207 H         1 0U4504      0.0000 
     92 H         -28.7177   29.9156    3.8066 H         1 0U4504      0.0000 
     93 H         -27.7074   30.4545    5.9551 H         1 0U4504      0.0000 
     94 H         -26.6608   32.6093    6.3114 H         1 0U4504      0.0000 
     95 H         -26.6139   34.2641    4.5271 H         1 0U4504      0.0000 
     96 H         -27.6284   33.7285    2.3791 H         1 0U4504      0.0000 
     97 H         -17.4888   19.9805   -3.1054 H         1 0U4504      0.0000 
     98 H         -17.1331   19.1452   -4.4328 H         1 0U4504      0.0000 
     99 H         -18.0129   20.4871   -4.5389 H         1 0U4504      0.0000 
    100 H         -25.5657   21.0214    1.7153 H         1 0U4504      0.0000 
    101 H         -26.1919   22.0597    0.6589 H         1 0U4504      0.0000 
    102 H         -27.0118   20.7390    1.0707 H         1 0U4504      0.0000 
    103 H         -25.0041   17.4143    0.0210 H         1 0U4504      0.0000 
    104 H         -26.3189   17.7120    0.8978 H         1 0U4504      0.0000 
    105 H         -26.4312   16.8421   -0.4502 H         1 0U4504      0.0000 
    106 H         -20.0261   27.6046   -3.8447 H         1 0U4504      0.0000 
@<TRIPOS>BOND
     1    2    1 ar   
     2    6    1 ar   
     3   54    1 1    
     4    3    2 ar   
     5   55    2 1    
     6    4    3 ar   
     7   56    3 1    
     8    5    4 ar   
     9   57    4 1    
    10    6    5 ar   
    11   58    5 1    
    12    7    6 1    
    13    8    7 1    
    14    9    7 1    
    15   59    7 1    
    16   97    8 1    
    17   98    8 1    
    18   99    8 1    
    19   10    9 am   
    20   60    9 1    
    21   11   10 2    
    22   12   10 1    
    23   13   12 ar   
    24   14   12 ar   
    25   23   13 ar   
    26   61   13 1    
    27   15   14 ar   
    28   62   14 1    
    29   16   15 1    
    30   22   15 ar   
    31   17   16 1    
    32   18   16 1    
    33  100   17 1    
    34  101   17 1    
    35  102   17 1    
    36   19   18 1    
    37   20   18 2    
    38   21   18 2    
    39  103   19 1    
    40  104   19 1    
    41  105   19 1    
    42   23   22 ar   
    43   63   22 1    
    44   24   23 1    
    45   25   24 2    
    46   26   24 am   
    47   27   26 1    
    48   64   26 1    
    49   28   27 1    
    50   35   27 1    
    51   65   27 1    
    52   29   28 1    
    53   66   28 1    
    54   67   28 1    
    55   30   29 ar   
    56   34   29 ar   
    57   31   30 ar   
    58   68   30 1    
    59   32   31 ar   
    60   69   31 1    
    61   33   32 ar   
    62   70   32 1    
    63   34   33 ar   
    64   71   33 1    
    65   72   34 1    
    66   36   35 1    
    67   37   35 1    
    68   73   35 1    
    69  106   36 1    
    70   38   37 1    
    71   74   37 1    
    72   75   37 1    
    73   39   38 1    
    74   40   39 1    
    75   76   39 1    
    76   77   39 1    
    77   41   40 1    
    78   78   40 1    
    79   79   40 1    
    80   42   41 1    
    81   44   41 1    
    82   80   41 1    
    83   43   42 1    
    84   81   42 1    
    85   82   42 1    
    86   46   43 1    
    87   83   43 1    
    88   84   43 1    
    89   45   44 1    
    90   85   44 1    
    91   86   44 1    
    92   46   45 1    
    93   87   45 1    
    94   88   45 1    
    95   47   46 1    
    96   89   46 1    
    97   48   47 1    
    98   90   47 1    
    99   91   47 1    
   100   49   48 ar   
   101   53   48 ar   
   102   50   49 ar   
   103   92   49 1    
   104   51   50 ar   
   105   93   50 1    
   106   52   51 ar   
   107   94   51 1    
   108   53   52 ar   
   109   95   52 1    
   110   96   53 1    
@<TRIPOS>SUBSTRUCTURE
     1 0U4504      1 GROUP   
@<TRIPOS>SET

