#    Name: 1eyz_ANP_2_INTS_M
#    Modification time : Tue Mar 25 00:25:12 2014

@<TRIPOS>MOLECULE
1eyz_ANP_2_INTS_M
   61     0    18     0     0
SMALL
NO_CHARGES


@<TRIPOS>ATOM
      1 N          17.7750    6.8565   -1.7735 N.am      2 SEC2        0.0000 
      2 N          18.2130    8.3520   -2.2740 N.am     14 SEL2        0.0000 
      3 N          17.3370    5.3610   -1.2730 N.am      8 SEP2        0.0000 
      4 Zn         18.7440    9.2680   -5.4205 Zn        5 ZIC7        0.0000 
      5 Zn         18.7650    9.1240   -4.5290 Zn       17 ZIL7        0.0000 
      6 Zn         18.7230    9.4120   -6.3120 Zn       11 ZIP7        0.0000 
      7 Zn         15.6755    8.5755   -4.7050 Zn        5 ZIC7        0.0000 
      8 Zn         16.3350    8.6230   -3.9530 Zn       17 ZIL7        0.0000 
      9 Zn         15.0160    8.5280   -5.4570 Zn       11 ZIP7        0.0000 
     10 N          17.5325    4.0630   -3.4435 N.am      2 SEC2        0.0000 
     11 N          16.5330    4.6880   -4.3110 N.am     14 SEL2        0.0000 
     12 N          18.5320    3.4380   -2.5760 N.am      8 SEP2        0.0000 
     13 NZ         14.9745    5.7965   -5.8760 N.4       4 LYC4        0.0000 
     14 NZ         15.7210    6.6980   -5.4620 N.4      16 LYL4        0.0000 
     15 NZ         13.5350    4.9850   -7.4160 N.4      10 LYP4        0.0000 
     16 Zn         15.3685    7.6130   -5.4595 Zn        5 ZIC7        0.0000 
     17 Zn         15.7210    6.6980   -5.4620 Zn       17 ZIL7        0.0000 
     18 N          14.9745    5.7965   -5.8760 N.am      2 SEC2        0.0000 
     19 N          15.7210    6.6980   -5.4620 N.am     14 SEL2        0.0000 
     20 N          14.2280    4.8950   -6.2900 N.am      8 SEP2        0.0000 
     21 OD1        17.3890    8.1185   -5.4780 O.co2     3 ASC3        0.0000 
     22 OD1        18.0090    6.7550   -4.2280 O.co2    15 ASL3        0.0000 
     23 OD1        16.7690    9.4820   -6.7280 O.co2     9 ASP3        0.0000 
     24 NZ         17.2060    5.2525   -9.9440 N.4       4 LYC4        0.0000 
     25 NZ         17.4010    6.1650   -8.7860 N.4      16 LYL4        0.0000 
     26 NZ         17.0110    4.3400  -11.1020 N.4      10 LYP4        0.0000 
     27 N          17.2060    5.2525   -9.9440 N.am      2 SEC2        0.0000 
     28 N          17.4010    6.1650   -8.7860 N.am     14 SEL2        0.0000 
     29 N          17.0110    4.3400  -11.1020 N.am      8 SEP2        0.0000 
     30 Zn         18.6510    8.5545   -6.7900 Zn        5 ZIC7        0.0000 
     31 Zn         18.5790    7.6970   -7.2680 Zn       17 ZIL7        0.0000 
     32 N          15.9530    5.1820   -6.3435 N.am      2 SEC2        0.0000 
     33 N          17.6780    5.4690   -6.3970 N.am     14 SEL2        0.0000 
     34 O          23.1070    8.8155   -8.6920 O.2       1 ALC1        0.0000 
     35 O          22.6140    8.1030   -7.8700 O.2      13 ALL1        0.0000 
     36 O          23.6000    9.5280   -9.5140 O.2       7 ALP1        0.0000 
     37 CA         22.9890    7.6455  -11.3480 C.3       6 GLC5        0.0000 
     38 CA         23.1620    6.5260   -9.7480 C.3      18 GLL5        0.0000 
     39 CA         22.8160    8.7650  -12.9480 C.3      12 GLP5        0.0000 
     40 O          24.0625    8.0630   -9.4050 O.2       1 ALC1        0.0000 
     41 O          24.5250    6.5980   -9.2960 O.2      13 ALL1        0.0000 
     42 O          25.1555    7.8070   -9.3970 O.2       1 ALC1        0.0000 
     43 O          25.7860    9.0160   -9.4980 O.2       7 ALP1        0.0000 
     44 N          18.3630    4.5540  -11.5540 N.am      2 SEC2        0.0000 
     45 N          19.7150    4.7680  -12.0060 N.am     14 SEL2        0.0000 
     46 CA         20.9210    5.3415  -16.3200 C.3       6 GLC5        0.0000 
     47 CA         20.6280    4.3710  -14.3810 C.3      18 GLL5        0.0000 
     48 CA         21.2140    6.3120  -18.2590 C.3      12 GLP5        0.0000 
     49 O          18.2010    4.3355  -14.5050 O.2       1 ALC1        0.0000 
     50 O          19.6110    4.2580  -15.1080 O.2      13 ALL1        0.0000 
     51 O          16.7910    4.4130  -13.9020 O.2       7 ALP1        0.0000 
     52 N          22.2840    4.0330  -16.4245 N.am      2 SEC2        0.0000 
     53 N          21.8630    4.3810  -14.9600 N.am     14 SEL2        0.0000 
     54 N          22.7050    3.6850  -17.8890 N.am      8 SEP2        0.0000 
     55 CA         22.1240    2.5585  -13.8295 C.3       6 GLC5        0.0000 
     56 CA         23.0610    4.4870  -14.2750 C.3      18 GLL5        0.0000 
     57 CA         21.1870    0.6300  -13.3840 C.3      12 GLP5        0.0000 
     58 CA         22.8920    5.3265  -16.1670 C.3       6 GLC5        0.0000 
     59 CA         22.7230    6.1660  -18.0590 C.3      12 GLP5        0.0000 
     60 CA         21.2508    2.6288  -13.1997 C.3       6 GLC5        0.0000 
     61 CA         20.7060    4.6350  -12.9670 C.3      18 GLL5        0.0000 
@<TRIPOS>BOND
@<TRIPOS>SUBSTRUCTURE
     1 ALC1       34 GROUP        1 X    ALC  0     ROOT ALC X 1
     2 SEC2        1 GROUP        1 X    SEC  0     **** SEC X 2
     3 ASC3       21 GROUP        1 X    ASC  0     **** ASC X 3
     4 LYC4       13 GROUP        1 X    LYC  0     **** LYC X 4
     5 ZIC7        4 GROUP        1 X    ZIC  0     **** ZIC X 5
     6 GLC5       37 GROUP        1 X    GLC  0     **** GLC X 6
     7 ALP1       36 GROUP        1 Y    ALP  0     ROOT ALP Y 8
     8 SEP2        3 GROUP        1 Y    SEP  0     **** SEP Y 9
     9 ASP3       23 GROUP        1 Y    ASP  0     **** ASP Y 10
    10 LYP4       15 GROUP        1 Y    LYP  0     **** LYP Y 11
    11 ZIP7        6 GROUP        1 Y    ZIP  0     **** ZIP Y 12
    12 GLP5       39 GROUP        1 Y    GLP  0     **** GLP Y 13
    13 ALL1       35 GROUP        1 Z    ALL  0     ROOT ALL Z 15
    14 SEL2        2 GROUP        1 Z    SEL  0     **** SEL Z 16
    15 ASL3       22 GROUP        1 Z    ASL  0     **** ASL Z 17
    16 LYL4       14 GROUP        1 Z    LYL  0     **** LYL Z 18
    17 ZIL7        5 GROUP        1 Z    ZIL  0     **** ZIL Z 19
    18 GLL5       38 GROUP        1 Z    GLL  0     **** GLL Z 20
@<TRIPOS>SET

