#    Name: 1eyz_ANP_2_ligand
#    Modification time : Tue Mar 25 00:25:12 2014

@<TRIPOS>MOLECULE
1eyz_ANP_2_ligand
   42    44     1     0     0
SMALL
NO_CHARGES


@<TRIPOS>ATOM
      1 PG         17.8600    8.2540   -3.7210 P.3       1 ANP961      0.0000 
      2 O1G        18.2130    8.3520   -2.2740 O.co2     1 ANP961      0.0000 
      3 O2G        18.7650    9.1240   -4.5290 O.co2     1 ANP961      0.0000 
      4 O3G        16.3350    8.6230   -3.9530 O.co2     1 ANP961      0.0000 
      5 PB         16.9510    5.9120   -5.0670 P.3       1 ANP961      0.0000 
      6 O1B        16.5330    4.6880   -4.3110 O.co2     1 ANP961      0.0000 
      7 O2B        15.7210    6.6980   -5.4620 O.co2     1 ANP961      0.0000 
      8 N3B        18.0090    6.7550   -4.2280 N.4       1 ANP961      0.0000 
      9 PA         18.3280    6.2610   -7.6040 P.3       1 ANP961      0.0000 
     10 O1A        17.4010    6.1650   -8.7860 O.co2     1 ANP961      0.0000 
     11 O2A        18.5790    7.6970   -7.2680 O.co2     1 ANP961      0.0000 
     12 O3A        17.6780    5.4690   -6.3970 O.3       1 ANP961      0.0000 
     13 O5'        19.7160    5.5870   -7.9820 O.3       1 ANP961      0.0000 
     14 C5'        20.7840    5.6080   -7.0240 C.3       1 ANP961      0.0000 
     15 C4'        22.0660    5.7530   -7.8260 C.3       1 ANP961      0.0000 
     16 O4'        22.1250    4.6770   -8.7970 O.3       1 ANP961      0.0000 
     17 C3'        22.1730    7.0090   -8.6850 C.3       1 ANP961      0.0000 
     18 O3'        22.6140    8.1030   -7.8700 O.3       1 ANP961      0.0000 
     19 C2'        23.1620    6.5260   -9.7480 C.3       1 ANP961      0.0000 
     20 O2'        24.5250    6.5980   -9.2960 O.3       1 ANP961      0.0000 
     21 C1'        22.7500    5.0820   -9.9610 C.3       1 ANP961      0.0000 
     22 N9         21.7380    4.9270  -11.0010 N.pl3     1 ANP961      0.0000 
     23 C8         20.3900    4.9310  -10.8520 C.2       1 ANP961      0.0000 
     24 N7         19.7150    4.7680  -12.0060 N.2       1 ANP961      0.0000 
     25 C5         20.7060    4.6350  -12.9670 C.ar      1 ANP961      0.0000 
     26 C6         20.6280    4.3710  -14.3810 C.ar      1 ANP961      0.0000 
     27 N6         19.6110    4.2580  -15.1080 N.pl3     1 ANP961      0.0000 
     28 N1         21.8630    4.3810  -14.9600 N.ar      1 ANP961      0.0000 
     29 C2         23.0610    4.4870  -14.2750 C.ar      1 ANP961      0.0000 
     30 N3         23.1680    4.6390  -12.9760 N.ar      1 ANP961      0.0000 
     31 C4         21.9620    4.7520  -12.3570 C.ar      1 ANP961      0.0000 
     32 H          20.8366    4.6872   -6.4595 H         1 ANP961      0.0000 
     33 H          20.7048    6.4509   -6.3513 H         1 ANP961      0.0000 
     34 H          22.9188    5.6976   -7.1847 H         1 ANP961      0.0000 
     35 H          21.2287    7.1515   -9.1438 H         1 ANP961      0.0000 
     36 H          22.9789    7.0607  -10.6427 H         1 ANP961      0.0000 
     37 H          23.6072    4.4966  -10.1736 H         1 ANP961      0.0000 
     38 H          19.9431    5.0448   -9.9649 H         1 ANP961      0.0000 
     39 H          23.9512    4.4379  -14.8760 H         1 ANP961      0.0000 
     40 H          22.5272    8.9111   -8.4527 H         1 ANP961      0.0000 
     41 H          24.8136    7.5350   -9.4927 H         1 ANP961      0.0000 
     42 H          18.8353    4.3431  -14.4827 H         1 ANP961      0.0000 
@<TRIPOS>BOND
     1    2    1 ar   
     2    3    1 ar   
     3    4    1 ar   
     4    8    1 1    
     5    6    5 ar   
     6    7    5 ar   
     7    8    5 1    
     8   12    5 1    
     9   10    9 ar   
    10   11    9 ar   
    11   12    9 1    
    12   13    9 1    
    13   14   13 1    
    14   15   14 1    
    15   32   14 1    
    16   33   14 1    
    17   16   15 1    
    18   17   15 1    
    19   34   15 1    
    20   21   16 1    
    21   18   17 1    
    22   19   17 1    
    23   35   17 1    
    24   40   18 1    
    25   20   19 1    
    26   21   19 1    
    27   36   19 1    
    28   41   20 1    
    29   22   21 1    
    30   37   21 1    
    31   23   22 1    
    32   31   22 1    
    33   24   23 2    
    34   38   23 1    
    35   25   24 1    
    36   26   25 ar   
    37   31   25 ar   
    38   27   26 1    
    39   28   26 ar   
    40   42   27 1    
    41   29   28 ar   
    42   30   29 ar   
    43   39   29 1    
    44   31   30 ar   
@<TRIPOS>SUBSTRUCTURE
     1 ANP961      1 GROUP   
@<TRIPOS>SET

