#    Name: 3vll_SHA_1_INTS_M
#    Modification time : Tue Mar 25 01:09:31 2014

@<TRIPOS>MOLECULE
3vll_SHA_1_INTS_M
   18     0     3     0     0
SMALL
NO_CHARGES


@<TRIPOS>ATOM
      1 CA         92.0525   73.2455   34.1545 C.3       1 GLC5        0.0000 
      2 CA         94.0930   73.6840   33.7690 C.3       3 GLL5        0.0000 
      3 CA         90.0120   72.8070   34.5400 C.3       2 GLP5        0.0000 
      4 CA         96.0245   73.3402   34.1058 C.3       1 GLC5        0.0000 
      5 CA         97.6240   72.5870   33.9400 C.3       2 GLP5        0.0000 
      6 CA         96.5097   74.8243   33.2860 C.3       1 GLC5        0.0000 
      7 CA         95.2140   75.8020   34.3950 C.3       3 GLL5        0.0000 
      8 CA         97.8750   73.6230   32.8400 C.3       2 GLP5        0.0000 
      9 CA         95.1633   77.2635   31.3882 C.3       1 GLC5        0.0000 
     10 CA         95.0750   76.2490   33.0690 C.3       3 GLL5        0.0000 
     11 CA         95.5660   78.6790   30.1920 C.3       2 GLP5        0.0000 
     12 CA         96.0422   74.2145   32.5545 C.3       1 GLC5        0.0000 
     13 CA         94.4460   75.4470   32.1000 C.3       3 GLL5        0.0000 
     14 CA         92.8132   75.7165   31.1360 C.3       1 GLC5        0.0000 
     15 CA         91.4170   76.6270   30.0030 C.3       2 GLP5        0.0000 
     16 CA         94.2935   71.9257   32.8912 C.3       1 GLC5        0.0000 
     17 CA         93.9730   74.1650   32.4380 C.3       3 GLL5        0.0000 
     18 CA         94.5540   69.9270   32.6790 C.3       2 GLP5        0.0000 
@<TRIPOS>BOND
@<TRIPOS>SUBSTRUCTURE
     1 GLC5        1 GROUP        1 X    GLC  0     ROOT GLC X 6
     2 GLP5        3 GROUP        1 Y    GLP  0     ROOT GLP Y 13
     3 GLL5        2 GROUP        1 Z    GLL  0     ROOT GLL Z 20
@<TRIPOS>SET

