#    Name: 3vll_SHA_1_ligand
#    Modification time : Tue Mar 25 01:09:31 2014

@<TRIPOS>MOLECULE
3vll_SHA_1_ligand
   18    18     1     0     0
SMALL
NO_CHARGES


@<TRIPOS>ATOM
      1 C1         94.7570   74.5030   34.7740 C.ar      1 SHA801      0.0000 
      2 C2         95.2140   75.8020   34.3950 C.ar      1 SHA801      0.0000 
      3 C3         95.0750   76.2490   33.0690 C.ar      1 SHA801      0.0000 
      4 C4         94.4460   75.4470   32.1000 C.ar      1 SHA801      0.0000 
      5 C5         93.9730   74.1650   32.4380 C.ar      1 SHA801      0.0000 
      6 C6         94.0930   73.6840   33.7690 C.ar      1 SHA801      0.0000 
      7 O6         93.6360   72.4520   34.0690 O.3       1 SHA801      0.0000 
      8 C7         94.9060   74.0520   36.2050 C.2       1 SHA801      0.0000 
      9 O7         94.5060   72.9440   36.5470 O.2       1 SHA801      0.0000 
     10 N8         95.5130   74.8590   37.1170 N.am      1 SHA801      0.0000 
     11 O9         95.6620   74.4240   38.4600 O.3       1 SHA801      0.0000 
     12 H          95.6445   76.4047   35.1008 H         1 SHA801      0.0000 
     13 H          95.4381   77.1747   32.8042 H         1 SHA801      0.0000 
     14 H          94.3312   75.7968   31.1436 H         1 SHA801      0.0000 
     15 H          93.5398   73.5726   31.7255 H         1 SHA801      0.0000 
     16 H          95.8723   75.7876   36.8598 H         1 SHA801      0.0000 
     17 H          93.8527   72.3243   35.0368 H         1 SHA801      0.0000 
     18 H          96.6148   74.1290   38.5322 H         1 SHA801      0.0000 
@<TRIPOS>BOND
     1    2    1 ar   
     2    6    1 ar   
     3    8    1 1    
     4    3    2 ar   
     5   12    2 1    
     6    4    3 ar   
     7   13    3 1    
     8    5    4 ar   
     9   14    4 1    
    10    6    5 ar   
    11   15    5 1    
    12    7    6 1    
    13   17    7 1    
    14    9    8 2    
    15   10    8 am   
    16   11   10 1    
    17   16   10 1    
    18   18   11 1    
@<TRIPOS>SUBSTRUCTURE
     1 SHA801      1 GROUP   
@<TRIPOS>SET

