#    Name: 3owk_18E_1_INTS_M
#    Modification time : Tue Mar 25 05:28:40 2014

@<TRIPOS>MOLECULE
3owk_18E_1_INTS_M
   66     0     6     0     0
SMALL
NO_CHARGES


@<TRIPOS>ATOM
      1 CA         24.6865   10.8885    9.8525 C.3       2 GLC5        0.0000 
      2 CA         23.1820    9.7780   11.0270 C.3       6 GLL5        0.0000 
      3 CA         26.1910   11.9990    8.6780 C.3       4 GLP5        0.0000 
      4 N          23.3995   10.4970    8.6485 N.am      1 SEC2        0.0000 
      5 N          23.3270   10.6800   10.0260 N.am      5 SEL2        0.0000 
      6 N          23.4720   10.3140    7.2710 N.am      3 SEP2        0.0000 
      7 CA         24.9400    8.6230   10.9525 C.3       2 GLC5        0.0000 
      8 CA         23.2110    8.4260   10.6850 C.3       6 GLL5        0.0000 
      9 CA         26.6690    8.8200   11.2200 C.3       4 GLP5        0.0000 
     10 CA         24.5020    7.1610   15.2880 C.3       2 GLC5        0.0000 
     11 CA         22.7600    6.9370   14.0510 C.3       6 GLL5        0.0000 
     12 CA         26.2440    7.3850   16.5250 C.3       4 GLP5        0.0000 
     13 CA         22.4780    4.3435   10.3400 C.3       2 GLC5        0.0000 
     14 CA         22.9750    5.1320   12.3070 C.3       6 GLL5        0.0000 
     15 CA         21.9810    3.5550    8.3730 C.3       4 GLP5        0.0000 
     16 CA         22.3735    5.5510    9.6460 C.3       2 GLC5        0.0000 
     17 CA         23.1090    6.1280   11.3430 C.3       6 GLL5        0.0000 
     18 CA         21.6380    4.9740    7.9490 C.3       4 GLP5        0.0000 
     19 CA         23.8410    2.6660   17.3875 C.3       2 GLC5        0.0000 
     20 CA         22.2850    3.7420   17.4130 C.3       6 GLL5        0.0000 
     21 CA         25.3970    1.5900   17.3620 C.3       4 GLP5        0.0000 
     22 CA         20.7125    2.8315   16.9685 C.3       2 GLC5        0.0000 
     23 CA         19.1400    1.9210   16.5240 C.3       4 GLP5        0.0000 
     24 N          22.8780    1.5855   16.6405 N.am      1 SEC2        0.0000 
     25 N          22.4150    2.8950   16.3640 N.am      5 SEL2        0.0000 
     26 N          23.3410    0.2760   16.9170 N.am      3 SEP2        0.0000 
     27 CA         20.9385    4.6135   14.6690 C.3       2 GLC5        0.0000 
     28 CA         22.5880    3.3070   15.0810 C.3       6 GLL5        0.0000 
     29 CA         19.2890    5.9200   14.2570 C.3       4 GLP5        0.0000 
     30 CA         23.9585    1.3360   13.0300 C.3       2 GLC5        0.0000 
     31 CA         22.7420    2.1460   13.7600 C.3       6 GLL5        0.0000 
     32 CA         25.1750    0.5260   12.3000 C.3       4 GLP5        0.0000 
     33 CA         20.9270    3.1410   13.0975 C.3       2 GLC5        0.0000 
     34 CA         19.1120    4.1360   12.4350 C.3       4 GLP5        0.0000 
     35 CA         22.0842    9.5775    9.1460 C.3       2 GLC5        0.0000 
     36 CA         20.9720   10.0530    7.4360 C.3       4 GLP5        0.0000 
     37 CA         24.6220   10.5250   13.8253 C.3       2 GLC5        0.0000 
     38 CA         23.0090   10.2040   12.3510 C.3       6 GLL5        0.0000 
     39 CA         26.3060   11.3020   14.7750 C.3       4 GLP5        0.0000 
     40 CA         21.1930    9.6340   13.6568 C.3       2 GLC5        0.0000 
     41 CA         22.8670    9.2920   13.4000 C.3       6 GLL5        0.0000 
     42 CA         19.4480    9.5200   14.4380 C.3       4 GLP5        0.0000 
     43 CA         24.8251    9.2308   11.8822 C.3       2 GLC5        0.0000 
     44 CA         24.8343    7.3525   12.6430 C.3       2 GLC5        0.0000 
     45 CA         23.0730    7.4810   11.6850 C.3       6 GLL5        0.0000 
     46 CA         26.6890    6.9960   12.8940 C.3       4 GLP5        0.0000 
     47 CA         21.1355    8.4785   14.0065 C.3       2 GLC5        0.0000 
     48 CA         22.8860    7.9370   13.0990 C.3       6 GLL5        0.0000 
     49 CA         21.0560    6.6785   13.9160 C.3       2 GLC5        0.0000 
     50 CA         24.7360    6.6155   13.3663 C.3       2 GLC5        0.0000 
     51 CA         21.0045    5.5352   14.2467 C.3       2 GLC5        0.0000 
     52 CA         22.8060    5.5330   13.6260 C.3       6 GLL5        0.0000 
     53 CA         24.8655    6.3130   12.3595 C.3       2 GLC5        0.0000 
     54 CA         24.4675    4.6250   10.6180 C.3       2 GLC5        0.0000 
     55 CA         25.8930    3.6200    9.4110 C.3       4 GLP5        0.0000 
     56 CA         21.1910    5.2725   11.4780 C.3       2 GLC5        0.0000 
     57 CA         19.3400    4.9150   11.1310 C.3       4 GLP5        0.0000 
     58 CA         20.8470    5.6777   15.4395 C.3       2 GLC5        0.0000 
     59 CA         22.3140    5.1370   17.2980 C.3       6 GLL5        0.0000 
     60 CA         24.0548    5.1197   17.7931 C.3       2 GLC5        0.0000 
     61 CA         22.4960    5.7340   15.9460 C.3       6 GLL5        0.0000 
     62 CA         25.8260    5.5090   18.0940 C.3       4 GLP5        0.0000 
     63 CA         23.7380    1.5757   15.5237 C.3       2 GLC5        0.0000 
     64 CA         24.8110    0.4250   16.6270 C.3       4 GLP5        0.0000 
     65 CA         21.0785    1.8973   14.8577 C.3       2 GLC5        0.0000 
     66 CA         19.4920    1.0680   15.2950 C.3       4 GLP5        0.0000 
@<TRIPOS>BOND
@<TRIPOS>SUBSTRUCTURE
     1 SEC2        4 GROUP        1 X    SEC  0     ROOT SEC X 2
     2 GLC5        1 GROUP        1 X    GLC  0     **** GLC X 6
     3 SEP2        6 GROUP        1 Y    SEP  0     ROOT SEP Y 9
     4 GLP5        3 GROUP        1 Y    GLP  0     **** GLP Y 13
     5 SEL2        5 GROUP        1 Z    SEL  0     ROOT SEL Z 16
     6 GLL5        2 GROUP        1 Z    GLL  0     **** GLL Z 20
@<TRIPOS>SET

