#    Name: 3owk_18E_1_ligand
#    Modification time : Tue Mar 25 05:28:40 2014

@<TRIPOS>MOLECULE
3owk_18E_1_ligand
   31    34     1     0     0
SMALL
NO_CHARGES


@<TRIPOS>ATOM
      1 C1         23.1820    9.7780   11.0270 C.ar      1 18E332      0.0000 
      2 O1         23.3270   10.6800   10.0260 O.3       1 18E332      0.0000 
      3 C2         23.0090   10.2040   12.3510 C.ar      1 18E332      0.0000 
      4 C3         22.8670    9.2920   13.4000 C.ar      1 18E332      0.0000 
      5 C4         22.8860    7.9370   13.0990 C.ar      1 18E332      0.0000 
      6 C5         23.0730    7.4810   11.6850 C.ar      1 18E332      0.0000 
      7 C6         23.2110    8.4260   10.6850 C.ar      1 18E332      0.0000 
      8 C7         22.7600    6.9370   14.0510 C.ar      1 18E332      0.0000 
      9 C8         22.8060    5.5330   13.6260 C.ar      1 18E332      0.0000 
     10 C9         22.9750    5.1320   12.3070 C.ar      1 18E332      0.0000 
     11 C10        23.1090    6.1280   11.3430 C.ar      1 18E332      0.0000 
     12 N11        22.5790    6.9900   15.4000 N.pl3     1 18E332      0.0000 
     13 C12        22.4960    5.7340   15.9460 C.ar      1 18E332      0.0000 
     14 C13        22.6340    4.7680   14.8470 C.ar      1 18E332      0.0000 
     15 C14        22.3140    5.1370   17.2980 C.ar      1 18E332      0.0000 
     16 C15        22.1590    6.0020   18.5210 C.3       1 18E332      0.0000 
     17 C16        22.2850    3.7420   17.4130 C.ar      1 18E332      0.0000 
     18 N17        22.4150    2.8950   16.3640 N.ar      1 18E332      0.0000 
     19 C18        22.5880    3.3070   15.0810 C.ar      1 18E332      0.0000 
     20 CL18       22.7420    2.1460   13.7600 Cl        1 18E332      0.0000 
     21 H          22.9861   11.2199   12.5549 H         1 18E332      0.0000 
     22 H          22.7532    9.6159   14.3554 H         1 18E332      0.0000 
     23 H          23.3324    8.1445    9.7110 H         1 18E332      0.0000 
     24 H          23.0001    4.1532   12.0542 H         1 18E332      0.0000 
     25 H          23.2383    5.8604   10.3495 H         1 18E332      0.0000 
     26 H          22.5155    7.8172   15.9195 H         1 18E332      0.0000 
     27 H          22.1526    3.3432   18.3863 H         1 18E332      0.0000 
     28 H          22.9567    6.5876   18.6652 H         1 18E332      0.0000 
     29 H          21.3627    6.6030   18.4523 H         1 18E332      0.0000 
     30 H          22.0429    5.4553   19.3503 H         1 18E332      0.0000 
     31 H          22.4248   11.0986    9.9223 H         1 18E332      0.0000 
@<TRIPOS>BOND
     1    2    1 1    
     2    3    1 ar   
     3    7    1 ar   
     4   31    2 1    
     5    4    3 ar   
     6   21    3 1    
     7    5    4 ar   
     8   22    4 1    
     9    6    5 ar   
    10    8    5 ar   
    11    7    6 ar   
    12   11    6 ar   
    13   23    7 1    
    14    9    8 ar   
    15   12    8 1    
    16   10    9 ar   
    17   14    9 1    
    18   11   10 ar   
    19   24   10 1    
    20   25   11 1    
    21   13   12 1    
    22   26   12 1    
    23   14   13 ar   
    24   15   13 ar   
    25   19   14 ar   
    26   16   15 1    
    27   17   15 ar   
    28   28   16 1    
    29   29   16 1    
    30   30   16 1    
    31   18   17 ar   
    32   27   17 1    
    33   19   18 ar   
    34   20   19 1    
@<TRIPOS>SUBSTRUCTURE
     1 18E332      1 GROUP   
@<TRIPOS>SET

