#    Name: 3k9x_MBM_2_INTS_M
#    Modification time : Mon Mar 24 19:02:58 2014

@<TRIPOS>MOLECULE
3k9x_MBM_2_INTS_M
   83     0     6     0     0
SMALL
NO_CHARGES


@<TRIPOS>ATOM
      1 CA         59.7275   -3.6775    2.4075 C.3       2 GLC5        0.0000 
      2 CA         59.8970   -1.6700    1.5850 C.3       6 GLL5        0.0000 
      3 CA         59.5580   -5.6850    3.2300 C.3       4 GLP5        0.0000 
      4 CA         61.2740   -2.6975   -0.4430 C.3       2 GLC5        0.0000 
      5 CA         59.8630   -1.3010    0.2130 C.3       6 GLL5        0.0000 
      6 CA         62.6850   -4.0940   -1.0990 C.3       4 GLP5        0.0000 
      7 N          58.3580   -1.7880    3.9110 N.am      1 SEC2        0.0000 
      8 N          58.8220   -1.6050    2.4180 N.am      5 SEL2        0.0000 
      9 N          57.8940   -1.9710    5.4040 N.am      3 SEP2        0.0000 
     10 N          50.4115   -2.0540   -0.2465 N.am      1 SEC2        0.0000 
     11 N          50.8960   -2.0780    1.2640 N.am      5 SEL2        0.0000 
     12 N          49.9270   -2.0300   -1.7570 N.am      3 SEP2        0.0000 
     13 CA         48.0910    3.8560   -4.3685 C.3       2 GLC5        0.0000 
     14 CA         47.2580    2.2760   -4.3470 C.3       6 GLL5        0.0000 
     15 CA         48.9240    5.4360   -4.3900 C.3       4 GLP5        0.0000 
     16 CA         47.6145    1.0730   -5.4675 C.3       2 GLC5        0.0000 
     17 CA         47.9710   -0.1300   -6.5880 C.3       4 GLP5        0.0000 
     18 CA         45.9765    2.9285   -5.2225 C.3       2 GLC5        0.0000 
     19 CA         44.6950    3.5810   -6.0980 C.3       4 GLP5        0.0000 
     20 CA         53.6100    2.0000    0.4300 C.3       2 GLC5        0.0000 
     21 CA         52.2760    1.2120   -1.1130 C.3       6 GLL5        0.0000 
     22 CA         54.9440    2.7880    1.9730 C.3       4 GLP5        0.0000 
     23 CA         52.1110    3.2595   -1.2190 C.3       2 GLC5        0.0000 
     24 CA         51.3630    1.5690   -0.1290 C.3       6 GLL5        0.0000 
     25 CA         52.8590    4.9500   -2.3090 C.3       4 GLP5        0.0000 
     26 CA         52.3110    3.1090    0.7035 C.3       2 GLC5        0.0000 
     27 CA         53.2590    4.6490    1.5360 C.3       4 GLP5        0.0000 
     28 CA         50.1555   -8.5930   -0.1025 C.3       2 GLC5        0.0000 
     29 CA         49.4400   -7.5800    1.2830 C.3       6 GLL5        0.0000 
     30 CA         50.8710   -9.6060   -1.4880 C.3       4 GLP5        0.0000 
     31 CA         49.0620   -6.4255   -0.1550 C.3       2 GLC5        0.0000 
     32 CA         48.6840   -5.2710   -1.5930 C.3       4 GLP5        0.0000 
     33 CA         48.8885   -3.6135    3.8685 C.3       2 GLC5        0.0000 
     34 CA         50.6040   -4.2990    3.0120 C.3       6 GLL5        0.0000 
     35 CA         47.1730   -2.9280    4.7250 C.3       4 GLP5        0.0000 
     36 CA         49.2725   -3.5385    1.7395 C.3       2 GLC5        0.0000 
     37 CA         47.9410   -2.7780    0.4670 C.3       4 GLP5        0.0000 
     38 CA         47.6590   -4.9275    1.3455 C.3       2 GLC5        0.0000 
     39 CA         48.2630   -6.0200    2.7860 C.3       6 GLL5        0.0000 
     40 CA         47.0550   -3.8350   -0.0950 C.3       4 GLP5        0.0000 
     41 CA         48.3085   -9.4030   -0.0005 C.3       2 GLC5        0.0000 
     42 CA         48.0140   -8.1120    1.5210 C.3       6 GLL5        0.0000 
     43 CA         48.6030  -10.6940   -1.5220 C.3       4 GLP5        0.0000 
     44 CA         54.2260    0.8900    2.6140 C.3       2 GLC5        0.0000 
     45 CA         53.5080   -1.0080    3.2550 C.3       6 GLL5        0.0000 
     46 CA         53.0760   -2.8105    6.6830 C.3       2 GLC5        0.0000 
     47 CA         53.3430   -3.0690    4.7210 C.3       6 GLL5        0.0000 
     48 CA         52.8090   -2.5520    8.6450 C.3       4 GLP5        0.0000 
     49 CA         59.4210    0.1872   -1.6655 C.3       2 GLC5        0.0000 
     50 CA         58.6690   -0.8180   -0.3390 C.3       6 GLL5        0.0000 
     51 CA         59.5760    1.4340   -3.2680 C.3       4 GLP5        0.0000 
     52 CA         57.2287   -1.1402   -1.8397 C.3       2 GLC5        0.0000 
     53 CA         56.3520   -1.5120   -3.7560 C.3       4 GLP5        0.0000 
     54 CA         49.0282    3.6240   -4.0920 C.3       2 GLC5        0.0000 
     55 CA         49.7760    1.6390   -3.9910 C.3       6 GLL5        0.0000 
     56 CA         47.2327    3.2278   -2.5625 C.3       2 GLC5        0.0000 
     57 CA         48.4890    1.9850   -3.5970 C.3       6 GLL5        0.0000 
     58 CA         46.5920    4.3250   -1.1530 C.3       4 GLP5        0.0000 
     59 CA         48.5517    0.8410   -5.1910 C.3       2 GLC5        0.0000 
     60 CA         51.3353   -0.4930   -2.4112 C.3       2 GLC5        0.0000 
     61 CA         51.8830    1.2040   -2.4720 C.3       6 GLL5        0.0000 
     62 CA         50.5910   -2.1940   -3.0300 C.3       4 GLP5        0.0000 
     63 CA         53.7918    2.1025   -2.4152 C.3       2 GLC5        0.0000 
     64 CA         55.5040    2.9970   -3.0380 C.3       4 GLP5        0.0000 
     65 CA         52.0901    3.1632   -2.2941 C.3       2 GLC5        0.0000 
     66 CA         48.2142    3.0975   -1.0998 C.3       2 GLC5        0.0000 
     67 CA         50.0320    1.8820   -0.3720 C.3       6 GLL5        0.0000 
     68 CA         49.1021    0.1744   -0.6609 C.3       2 GLC5        0.0000 
     69 CA         49.6410    1.8580   -1.7210 C.3       6 GLL5        0.0000 
     70 CA         48.0350   -1.4430   -0.3360 C.3       4 GLP5        0.0000 
     71 CA         50.2481   -0.2345   -2.7899 C.3       2 GLC5        0.0000 
     72 CA         46.6693   -5.6698    3.5657 C.3       2 GLC5        0.0000 
     73 CA         45.5000   -4.6780    4.4220 C.3       4 GLP5        0.0000 
     74 CA         46.1930   -8.7727    2.9850 C.3       2 GLC5        0.0000 
     75 CA         47.4140   -7.3030    2.6330 C.3       6 GLL5        0.0000 
     76 CA         44.6720   -9.8380    3.8930 C.3       4 GLP5        0.0000 
     77 CA         47.0305   -6.7138    0.4310 C.3       2 GLC5        0.0000 
     78 CA         46.3470   -5.7200   -1.2150 C.3       4 GLP5        0.0000 
     79 CA         53.9155   -4.9025    5.2453 C.3       2 GLC5        0.0000 
     80 CA         53.0290   -4.0710    3.5820 C.3       6 GLL5        0.0000 
     81 CA         54.6450   -6.2350    6.3390 C.3       4 GLP5        0.0000 
     82 CA         55.1555   -2.3190    5.9380 C.3       2 GLC5        0.0000 
     83 CA         56.5180   -2.1390    7.4010 C.3       4 GLP5        0.0000 
@<TRIPOS>BOND
@<TRIPOS>SUBSTRUCTURE
     1 SEC2        7 GROUP        1 X    SEC  0     ROOT SEC X 2
     2 GLC5        1 GROUP        1 X    GLC  0     **** GLC X 6
     3 SEP2        9 GROUP        1 Y    SEP  0     ROOT SEP Y 9
     4 GLP5        3 GROUP        1 Y    GLP  0     **** GLP Y 13
     5 SEL2        8 GROUP        1 Z    SEL  0     ROOT SEL Z 16
     6 GLL5        2 GROUP        1 Z    GLL  0     **** GLL Z 20
@<TRIPOS>SET

