#    Name: 3k9x_MBM_2_ligand
#    Modification time : Mon Mar 24 19:02:58 2014

@<TRIPOS>MOLECULE
3k9x_MBM_2_ligand
   71    75     1     0     0
SMALL
NO_CHARGES


@<TRIPOS>ATOM
      1 C          59.8970   -1.6700    1.5850 C.ar      1 MBM2        0.0000 
      2 N          53.6330    0.8220   -0.7760 N.pl3     1 MBM2        0.0000 
      3 O          56.3210    0.6500   -1.0050 O.2       1 MBM2        0.0000 
      4 C1         59.8630   -1.3010    0.2130 C.ar      1 MBM2        0.0000 
      5 N1         58.8220   -1.6050    2.4180 N.ar      1 MBM2        0.0000 
      6 O1         48.3920    2.1390   -2.2130 O.3       1 MBM2        0.0000 
      7 C2         58.6690   -0.8180   -0.3390 C.ar      1 MBM2        0.0000 
      8 N2         55.1540   -0.5990    0.4960 N.am      1 MBM2        0.0000 
      9 O2         51.4840   -5.7960    1.3220 O.2       1 MBM2        0.0000 
     10 C3         53.9560   -0.1820    0.0920 C.cat     1 MBM2        0.0000 
     11 N3         52.9480   -0.7330    0.8810 N.pl3     1 MBM2        0.0000 
     12 O3         50.8960   -2.0780    1.2640 O.2       1 MBM2        0.0000 
     13 C4         56.3050   -0.1670   -0.0980 C.2       1 MBM2        0.0000 
     14 N4         49.4860   -6.3460    2.0680 N.am      1 MBM2        0.0000 
     15 C5         57.6850   -1.1160    1.8560 C.ar      1 MBM2        0.0000 
     16 N5         51.8730   -3.6090    2.7780 N.am      1 MBM2        0.0000 
     17 C6         57.5420   -0.7190    0.4920 C.ar      1 MBM2        0.0000 
     18 C7         48.4890    1.9850   -3.5970 C.2       1 MBM2        0.0000 
     19 C8         49.7760    1.6390   -3.9910 C.2       1 MBM2        0.0000 
     20 C9         47.2580    2.2760   -4.3470 C.3       1 MBM2        0.0000 
     21 C10        52.2760    1.2120   -1.1130 C.ar      1 MBM2        0.0000 
     22 C11        51.8830    1.2040   -2.4720 C.ar      1 MBM2        0.0000 
     23 C12        50.5630    1.5450   -2.7660 C.ar      1 MBM2        0.0000 
     24 C13        51.3630    1.5690   -0.1290 C.ar      1 MBM2        0.0000 
     25 C14        50.0320    1.8820   -0.3720 C.ar      1 MBM2        0.0000 
     26 C15        49.6410    1.8580   -1.7210 C.ar      1 MBM2        0.0000 
     27 C16        49.4400   -7.5800    1.2830 C.3       1 MBM2        0.0000 
     28 C17        50.6040   -4.2990    3.0120 C.3       1 MBM2        0.0000 
     29 C18        50.5780   -5.5310    2.0760 C.2       1 MBM2        0.0000 
     30 C19        48.2630   -6.0200    2.7860 C.3       1 MBM2        0.0000 
     31 C20        48.0140   -8.1120    1.5210 C.3       1 MBM2        0.0000 
     32 C21        47.4140   -7.3030    2.6330 C.3       1 MBM2        0.0000 
     33 C22        53.5080   -1.0080    3.2550 C.3       1 MBM2        0.0000 
     34 C23        51.8650   -2.4570    1.9790 C.2       1 MBM2        0.0000 
     35 C24        53.1920   -1.7200    1.9290 C.3       1 MBM2        0.0000 
     36 C25        53.0290   -4.0710    3.5820 C.3       1 MBM2        0.0000 
     37 C26        54.2430   -1.9290    4.2290 C.3       1 MBM2        0.0000 
     38 C27        53.3430   -3.0690    4.7210 C.3       1 MBM2        0.0000 
     39 H          60.8243   -2.0126    1.9585 H         1 MBM2        0.0000 
     40 H          54.3975    1.3719   -1.2516 H         1 MBM2        0.0000 
     41 H          60.7017   -1.3899   -0.3551 H         1 MBM2        0.0000 
     42 H          58.6192   -0.5467   -1.3136 H         1 MBM2        0.0000 
     43 H          55.2318   -1.2822    1.2961 H         1 MBM2        0.0000 
     44 H          51.9575   -0.4424    0.7362 H         1 MBM2        0.0000 
     45 H          56.8139   -1.0100    2.4610 H         1 MBM2        0.0000 
     46 H          50.1055    1.4905   -4.8389 H         1 MBM2        0.0000 
     47 H          52.5403    0.9593   -3.1947 H         1 MBM2        0.0000 
     48 H          51.7047    1.6049    0.8732 H         1 MBM2        0.0000 
     49 H          49.3919    2.1091    0.3553 H         1 MBM2        0.0000 
     50 H          50.1355   -8.3030    1.6450 H         1 MBM2        0.0000 
     51 H          49.5598   -7.3882    0.2408 H         1 MBM2        0.0000 
     52 H          49.7616   -3.6723    2.7642 H         1 MBM2        0.0000 
     53 H          50.5262   -4.6496    4.0292 H         1 MBM2        0.0000 
     54 H          47.7358   -5.2150    2.3305 H         1 MBM2        0.0000 
     55 H          48.4405   -5.8593    3.8233 H         1 MBM2        0.0000 
     56 H          48.0726   -9.1497    1.8002 H         1 MBM2        0.0000 
     57 H          47.4427   -7.9906    0.6171 H         1 MBM2        0.0000 
     58 H          46.4038   -7.0210    2.3918 H         1 MBM2        0.0000 
     59 H          47.4476   -7.8509    3.5588 H         1 MBM2        0.0000 
     60 H          52.5739   -0.6740    3.7093 H         1 MBM2        0.0000 
     61 H          54.1267   -0.1332    3.0489 H         1 MBM2        0.0000 
     62 H          53.9541   -2.3791    1.6569 H         1 MBM2        0.0000 
     63 H          53.9204   -4.1636    2.9585 H         1 MBM2        0.0000 
     64 H          52.8207   -5.0424    4.0348 H         1 MBM2        0.0000 
     65 H          54.5824   -1.3468    5.0881 H         1 MBM2        0.0000 
     66 H          55.1172   -2.3543    3.7319 H         1 MBM2        0.0000 
     67 H          53.8420   -3.6011    5.5282 H         1 MBM2        0.0000 
     68 H          52.4074   -2.6565    5.0927 H         1 MBM2        0.0000 
     69 H          46.9522    3.2179   -4.2078 H         1 MBM2        0.0000 
     70 H          47.3844    2.1513   -5.3311 H         1 MBM2        0.0000 
     71 H          46.5047    1.6793   -4.0703 H         1 MBM2        0.0000 
@<TRIPOS>BOND
     1    4    1 ar   
     2    5    1 ar   
     3   39    1 1    
     4   10    2 ar   
     5   21    2 1    
     6   40    2 1    
     7   13    3 2    
     8    7    4 ar   
     9   41    4 1    
    10   15    5 ar   
    11   18    6 1    
    12   26    6 1    
    13   17    7 ar   
    14   42    7 1    
    15   10    8 ar   
    16   13    8 am   
    17   43    8 1    
    18   29    9 2    
    19   11   10 ar   
    20   35   11 1    
    21   44   11 1    
    22   34   12 2    
    23   17   13 1    
    24   27   14 1    
    25   29   14 am   
    26   30   14 1    
    27   17   15 ar   
    28   45   15 1    
    29   28   16 1    
    30   34   16 am   
    31   36   16 1    
    32   19   18 2    
    33   20   18 1    
    34   23   19 1    
    35   46   19 1    
    36   69   20 1    
    37   70   20 1    
    38   71   20 1    
    39   22   21 ar   
    40   24   21 ar   
    41   23   22 ar   
    42   47   22 1    
    43   26   23 ar   
    44   25   24 ar   
    45   48   24 1    
    46   26   25 ar   
    47   49   25 1    
    48   31   27 1    
    49   50   27 1    
    50   51   27 1    
    51   29   28 1    
    52   52   28 1    
    53   53   28 1    
    54   32   30 1    
    55   54   30 1    
    56   55   30 1    
    57   32   31 1    
    58   56   31 1    
    59   57   31 1    
    60   58   32 1    
    61   59   32 1    
    62   35   33 1    
    63   37   33 1    
    64   60   33 1    
    65   61   33 1    
    66   35   34 1    
    67   62   35 1    
    68   38   36 1    
    69   63   36 1    
    70   64   36 1    
    71   38   37 1    
    72   65   37 1    
    73   66   37 1    
    74   67   38 1    
    75   68   38 1    
@<TRIPOS>SUBSTRUCTURE
     1 MBM2        1 GROUP   
@<TRIPOS>SET

