#    Name: 2vtj_LZ4_1_INTS_M
#    Modification time : Tue Mar 25 02:54:14 2014

@<TRIPOS>MOLECULE
2vtj_LZ4_1_INTS_M
   43     0     6     0     0
SMALL
NO_CHARGES


@<TRIPOS>ATOM
      1 N          34.4350    8.4840   62.9750 N.am      1 SEC2        0.0000 
      2 N          34.4200    9.5500   63.9490 N.am      5 SEL2        0.0000 
      3 N          34.4500    7.4180   62.0010 N.am      3 SEP2        0.0000 
      4 CA         28.4480    8.0540   65.9180 C.3       2 GLC5        0.0000 
      5 CA         29.4990    8.0950   64.3100 C.3       6 GLL5        0.0000 
      6 CA         27.3970    8.0130   67.5260 C.3       4 GLP5        0.0000 
      7 CA         30.3365    3.6710   65.6020 C.3       2 GLC5        0.0000 
      8 CA         28.7650    5.1590   65.2090 C.3       6 GLL5        0.0000 
      9 CA         31.9080    2.1830   65.9950 C.3       4 GLP5        0.0000 
     10 N          29.4865    2.9455   65.7925 N.am      1 SEC2        0.0000 
     11 N          28.4960    3.8550   65.3060 N.am      5 SEL2        0.0000 
     12 N          30.4770    2.0360   66.2790 N.am      3 SEP2        0.0000 
     13 CA         28.0265    2.2875   66.0865 C.3       2 GLC5        0.0000 
     14 CA         27.4790    3.3990   64.5710 C.3       6 GLL5        0.0000 
     15 CA         28.5740    1.1760   67.6020 C.3       4 GLP5        0.0000 
     16 CA         25.1960    3.7435   64.7420 C.3       2 GLC5        0.0000 
     17 CA         25.4450    3.6360   62.8150 C.3       6 GLL5        0.0000 
     18 CA         24.9470    3.8510   66.6690 C.3       4 GLP5        0.0000 
     19 CA         25.9890    1.6750   62.4830 C.3       2 GLC5        0.0000 
     20 CA         26.5330   -0.2860   62.1510 C.3       4 GLP5        0.0000 
     21 CA         24.5425    2.2140   63.6415 C.3       2 GLC5        0.0000 
     22 CA         23.6400    0.7920   64.4680 C.3       4 GLP5        0.0000 
     23 CA         27.4635    3.4155   62.3320 C.3       2 GLC5        0.0000 
     24 CA         29.4820    3.1950   61.8490 C.3       4 GLP5        0.0000 
     25 CA         26.1085    3.3355   60.8695 C.3       2 GLC5        0.0000 
     26 CA         26.7720    3.0350   58.9240 C.3       4 GLP5        0.0000 
     27 CA         30.7685    6.3205   62.7405 C.3       2 GLC5        0.0000 
     28 CA         30.7110    7.4290   64.4730 C.3       6 GLL5        0.0000 
     29 CA         30.8260    5.2120   61.0080 C.3       4 GLP5        0.0000 
     30 CA         33.6505    7.3585   64.2965 C.3       2 GLC5        0.0000 
     31 CA         31.8910    8.1390   64.5220 C.3       6 GLL5        0.0000 
     32 CA         35.4100    6.5780   64.0710 C.3       4 GLP5        0.0000 
     33 CA         32.4115    8.1630   62.3710 C.3       2 GLC5        0.0000 
     34 CA         32.9320    8.1870   60.2200 C.3       4 GLP5        0.0000 
     35 CA         29.0160   10.1620   65.9770 C.3       2 GLC5        0.0000 
     36 CA         30.6730   10.1960   64.2540 C.3       6 GLL5        0.0000 
     37 CA         27.9490   10.4830   67.7260 C.3       4 GLP5        0.0000 
     38 CA         27.8987    6.7975   66.1612 C.3       2 GLC5        0.0000 
     39 CA         28.0360    6.0050   64.3840 C.3       6 GLL5        0.0000 
     40 CA         26.6738    4.7165   65.7327 C.3       2 GLC5        0.0000 
     41 CA         28.9413    4.3885   63.3227 C.3       2 GLC5        0.0000 
     42 CA         26.0330    3.8388   65.4183 C.3       2 GLC5        0.0000 
     43 CA         28.3005    3.5107   63.0082 C.3       2 GLC5        0.0000 
@<TRIPOS>BOND
@<TRIPOS>SUBSTRUCTURE
     1 SEC2        1 GROUP        1 X    SEC  0     ROOT SEC X 2
     2 GLC5        4 GROUP        1 X    GLC  0     **** GLC X 6
     3 SEP2        3 GROUP        1 Y    SEP  0     ROOT SEP Y 9
     4 GLP5        6 GROUP        1 Y    GLP  0     **** GLP Y 13
     5 SEL2        2 GROUP        1 Z    SEL  0     ROOT SEL Z 16
     6 GLL5        5 GROUP        1 Z    GLL  0     **** GLL Z 20
@<TRIPOS>SET

