#    Name: 2vtj_LZ4_1_ligand
#    Modification time : Tue Mar 25 02:54:14 2014

@<TRIPOS>MOLECULE
2vtj_LZ4_1_ligand
   27    28     1     0     0
SMALL
NO_CHARGES


@<TRIPOS>ATOM
      1 N1         33.7280   10.7150   65.9980 N.pl3     1 LZ41300     0.0000 
      2 S2         33.3900   10.4230   64.4600 S.o2      1 LZ41300     0.0000 
      3 O3         33.1620   11.6880   63.8110 O.2       1 LZ41300     0.0000 
      4 O4         34.4200    9.5500   63.9490 O.2       1 LZ41300     0.0000 
      5 C5         31.8740    9.5190   64.4050 C.ar      1 LZ41300     0.0000 
      6 C6         30.6730   10.1960   64.2540 C.ar      1 LZ41300     0.0000 
      7 C7         29.4930    9.4860   64.2020 C.ar      1 LZ41300     0.0000 
      8 C8         29.4990    8.0950   64.3100 C.ar      1 LZ41300     0.0000 
      9 N9         28.2950    7.3750   64.2670 N.pl3     1 LZ41300     0.0000 
     10 C10        28.0360    6.0050   64.3840 C.ar      1 LZ41300     0.0000 
     11 C11        28.7650    5.1590   65.2090 C.ar      1 LZ41300     0.0000 
     12 N12        28.4960    3.8550   65.3060 N.ar      1 LZ41300     0.0000 
     13 C13        27.4790    3.3990   64.5710 C.ar      1 LZ41300     0.0000 
     14 C14        26.7590    4.2540   63.7640 C.ar      1 LZ41300     0.0000 
     15 CL1        25.4450    3.6360   62.8150 Cl        1 LZ41300     0.0000 
     16 N16        27.0110    5.5580   63.6410 N.ar      1 LZ41300     0.0000 
     17 C17        30.7110    7.4290   64.4730 C.ar      1 LZ41300     0.0000 
     18 C18        31.8910    8.1390   64.5220 C.ar      1 LZ41300     0.0000 
     19 H          33.7259   11.6761   66.2742 H         1 LZ41300     0.0000 
     20 H          33.9158    9.9143   66.5669 H         1 LZ41300     0.0000 
     21 H          30.6672   11.2217   64.1816 H         1 LZ41300     0.0000 
     22 H          28.5939    9.9801   64.0824 H         1 LZ41300     0.0000 
     23 H          27.3959    8.0003   64.1141 H         1 LZ41300     0.0000 
     24 H          29.5515    5.5819   65.7673 H         1 LZ41300     0.0000 
     25 H          27.2117    2.3906   64.5940 H         1 LZ41300     0.0000 
     26 H          30.7187    6.4010   64.5567 H         1 LZ41300     0.0000 
     27 H          32.7882    7.6459   64.6457 H         1 LZ41300     0.0000 
@<TRIPOS>BOND
     1    2    1 1    
     2   19    1 1    
     3   20    1 1    
     4    3    2 2    
     5    4    2 2    
     6    5    2 1    
     7    6    5 ar   
     8   18    5 ar   
     9    7    6 ar   
    10   21    6 1    
    11    8    7 ar   
    12   22    7 1    
    13    9    8 1    
    14   17    8 ar   
    15   10    9 1    
    16   23    9 1    
    17   11   10 ar   
    18   16   10 ar   
    19   12   11 ar   
    20   24   11 1    
    21   13   12 ar   
    22   14   13 ar   
    23   25   13 1    
    24   15   14 1    
    25   16   14 ar   
    26   18   17 ar   
    27   26   17 1    
    28   27   18 1    
@<TRIPOS>SUBSTRUCTURE
     1 LZ41300     1 GROUP   
@<TRIPOS>SET

