#    Name: 2j91_AMP_2_INTS_M
#    Modification time : Tue Mar 25 19:29:43 2014

@<TRIPOS>MOLECULE
2j91_AMP_2_INTS_M
   69     0    12     0     0
SMALL
NO_CHARGES


@<TRIPOS>ATOM
      1 NZ         31.9325   33.4945   43.9990 N.4       3 LYC4        0.0000 
      2 NZ         32.2750   34.8420   43.0650 N.4      11 LYL4        0.0000 
      3 NZ         30.4170   31.9420   44.3520 N.4       7 LYP4        0.0000 
      4 N          31.2520   33.6160   43.0845 N.am      2 SEC2        0.0000 
      5 N          32.2750   34.8420   43.0650 N.am     10 SEL2        0.0000 
      6 N          30.2290   32.3900   43.1040 N.am      6 SEP2        0.0000 
      7 N          31.9325   33.4945   43.9990 N.am      2 SEC2        0.0000 
      8 N          31.5900   32.1470   44.9330 N.am      6 SEP2        0.0000 
      9 NZ         35.6565   34.3305   41.4185 N.4       3 LYC4        0.0000 
     10 NZ         34.2530   35.0290   41.5000 N.4      11 LYL4        0.0000 
     11 NZ         36.9720   33.6570   40.0210 N.4       7 LYP4        0.0000 
     12 N          34.7840   36.1680   41.8635 N.am      2 SEC2        0.0000 
     13 N          34.2530   35.0290   41.5000 N.am     10 SEL2        0.0000 
     14 N          35.3150   37.3070   42.2270 N.am      6 SEP2        0.0000 
     15 N          35.0795   34.6160   40.4705 N.am      2 SEC2        0.0000 
     16 N          35.9060   34.2030   39.4410 N.am      6 SEP2        0.0000 
     17 N          35.6565   34.3305   41.4185 N.am      2 SEC2        0.0000 
     18 N          37.0600   33.6320   41.3370 N.am      6 SEP2        0.0000 
     19 NZ         34.3155   31.8480   42.1050 N.4       3 LYC4        0.0000 
     20 NZ         33.0980   32.8080   41.7030 N.4      11 LYL4        0.0000 
     21 NZ         35.7040   30.5190   41.2630 N.4       7 LYP4        0.0000 
     22 NZ         31.6635   32.5990   42.4035 N.4       3 LYC4        0.0000 
     23 N          32.8835   33.1095   40.4320 N.am      2 SEC2        0.0000 
     24 N          33.0980   32.8080   41.7030 N.am     10 SEL2        0.0000 
     25 N          32.6690   33.4110   39.1610 N.am      6 SEP2        0.0000 
     26 N          34.0080   31.9015   41.0020 N.am      2 SEC2        0.0000 
     27 N          34.9180   30.9950   40.3010 N.am      6 SEP2        0.0000 
     28 N          34.3155   31.8480   42.1050 N.am      2 SEC2        0.0000 
     29 N          35.5330   30.8880   42.5070 N.am      6 SEP2        0.0000 
     30 N          31.6635   32.5990   42.4035 N.am      2 SEC2        0.0000 
     31 N          34.9325   32.2330   43.0325 N.am      2 SEC2        0.0000 
     32 N          34.3320   33.5780   43.5580 N.am     10 SEL2        0.0000 
     33 N          32.9610   32.8625   44.2455 N.am      2 SEC2        0.0000 
     34 CA         33.9960   35.6195   45.9175 C.3       4 GLC5        0.0000 
     35 CA         34.8630   34.4620   44.5430 C.3      12 GLL5        0.0000 
     36 CA         33.1290   36.7770   47.2920 C.3       8 GLP5        0.0000 
     37 CA         34.5775   36.3590   43.5215 C.3       4 GLC5        0.0000 
     38 CA         34.2920   38.2560   42.5000 C.3       8 GLP5        0.0000 
     39 N          38.0650   31.1850   46.3180 N.am      2 SEC2        0.0000 
     40 N          36.6220   31.6440   46.1200 N.am     10 SEL2        0.0000 
     41 N          39.5080   30.7260   46.5160 N.am      6 SEP2        0.0000 
     42 O          35.6785   31.1050   48.8570 O.2       1 ALC1        0.0000 
     43 O          35.7070   32.4380   48.6710 O.2       9 ALL1        0.0000 
     44 O          35.6500   29.7720   49.0430 O.2       5 ALP1        0.0000 
     45 CA         37.6775   33.7360   49.0690 C.3       4 GLC5        0.0000 
     46 CA         36.7290   34.3570   47.4680 C.3      12 GLL5        0.0000 
     47 CA         38.6260   33.1150   50.6700 C.3       8 GLP5        0.0000 
     48 N          34.5295   37.5740   50.4820 N.am      2 SEC2        0.0000 
     49 N          35.8870   36.7130   50.1070 N.am     10 SEL2        0.0000 
     50 N          33.1720   38.4350   50.8570 N.am      6 SEP2        0.0000 
     51 O          37.4285   40.8160   50.3740 O.2       1 ALC1        0.0000 
     52 O          37.1270   39.4400   50.6570 O.2       9 ALL1        0.0000 
     53 O          37.7300   42.1920   50.0910 O.2       5 ALP1        0.0000 
     54 CA         40.4995   37.8380   48.3975 C.3       4 GLC5        0.0000 
     55 CA         38.9320   38.1680   47.8180 C.3      12 GLL5        0.0000 
     56 CA         42.0670   37.5080   48.9770 C.3       8 GLP5        0.0000 
     57 CA         39.7060   40.1750   47.3030 C.3       4 GLC5        0.0000 
     58 CA         40.4800   42.1820   46.7880 C.3       8 GLP5        0.0000 
     59 CA         38.0060   34.8200   49.5300 C.3       4 GLC5        0.0000 
     60 CA         37.3860   36.5250   48.3900 C.3      12 GLL5        0.0000 
     61 CA         34.2800   33.0403   48.2265 C.3       4 GLC5        0.0000 
     62 CA         35.5980   33.3480   47.5330 C.3      12 GLL5        0.0000 
     63 CA         32.9280   33.0650   49.5980 C.3       8 GLP5        0.0000 
     64 CA         36.9920   31.5938   47.7120 C.3       4 GLC5        0.0000 
     65 CA         38.3520   30.1720   48.5690 C.3       8 GLP5        0.0000 
     66 CA         34.6463   35.3148   47.3963 C.3       4 GLC5        0.0000 
     67 CA         35.9343   37.9230   47.7377 C.3       4 GLC5        0.0000 
     68 CA         36.8960   37.3730   49.4630 C.3      12 GLL5        0.0000 
     69 CA         34.5620   38.5800   46.5000 C.3       8 GLP5        0.0000 
@<TRIPOS>BOND
@<TRIPOS>SUBSTRUCTURE
     1 ALC1       42 GROUP        1 X    ALC  0     ROOT ALC X 1
     2 SEC2        4 GROUP        1 X    SEC  0     **** SEC X 2
     3 LYC4        1 GROUP        1 X    LYC  0     **** LYC X 4
     4 GLC5       34 GROUP        1 X    GLC  0     **** GLC X 6
     5 ALP1       44 GROUP        1 Y    ALP  0     ROOT ALP Y 8
     6 SEP2        6 GROUP        1 Y    SEP  0     **** SEP Y 9
     7 LYP4        3 GROUP        1 Y    LYP  0     **** LYP Y 11
     8 GLP5       36 GROUP        1 Y    GLP  0     **** GLP Y 13
     9 ALL1       43 GROUP        1 Z    ALL  0     ROOT ALL Z 15
    10 SEL2        5 GROUP        1 Z    SEL  0     **** SEL Z 16
    11 LYL4        2 GROUP        1 Z    LYL  0     **** LYL Z 18
    12 GLL5       35 GROUP        1 Z    GLL  0     **** GLL Z 20
@<TRIPOS>SET

