#    Name: 2j91_AMP_2_ligand
#    Modification time : Tue Mar 25 19:29:43 2014

@<TRIPOS>MOLECULE
2j91_AMP_2_ligand
   35    37     1     0     0
SMALL
NO_CHARGES


@<TRIPOS>ATOM
      1 P          33.4120   34.1530   42.3630 P.3       1 AMP1000     0.0000 
      2 O1P        32.2750   34.8420   43.0650 O.co2     1 AMP1000     0.0000 
      3 O2P        34.2530   35.0290   41.5000 O.co2     1 AMP1000     0.0000 
      4 O3P        33.0980   32.8080   41.7030 O.co2     1 AMP1000     0.0000 
      5 O5'        34.3320   33.5780   43.5580 O.3       1 AMP1000     0.0000 
      6 C5'        34.8630   34.4620   44.5430 C.3       1 AMP1000     0.0000 
      7 C4'        36.0650   33.8500   45.2660 C.3       1 AMP1000     0.0000 
      8 O4'        36.5920   34.8970   46.1360 O.3       1 AMP1000     0.0000 
      9 C3'        35.6660   32.6830   46.1770 C.3       1 AMP1000     0.0000 
     10 O3'        36.6220   31.6440   46.1200 O.3       1 AMP1000     0.0000 
     11 C2'        35.5980   33.3480   47.5330 C.3       1 AMP1000     0.0000 
     12 O2'        35.7070   32.4380   48.6710 O.3       1 AMP1000     0.0000 
     13 C1'        36.7290   34.3570   47.4680 C.3       1 AMP1000     0.0000 
     14 N9         36.6040   35.4620   48.4270 N.pl3     1 AMP1000     0.0000 
     15 C8         35.7240   35.5650   49.4540 C.2       1 AMP1000     0.0000 
     16 N7         35.8870   36.7130   50.1070 N.2       1 AMP1000     0.0000 
     17 C5         36.8960   37.3730   49.4630 C.ar      1 AMP1000     0.0000 
     18 C6         37.5580   38.6410   49.6590 C.ar      1 AMP1000     0.0000 
     19 N6         37.1270   39.4400   50.6570 N.pl3     1 AMP1000     0.0000 
     20 N1         38.5680   38.9940   48.8300 N.ar      1 AMP1000     0.0000 
     21 C2         38.9320   38.1680   47.8180 C.ar      1 AMP1000     0.0000 
     22 N3         38.3720   36.9720   47.5850 N.ar      1 AMP1000     0.0000 
     23 C4         37.3860   36.5250   48.3900 C.ar      1 AMP1000     0.0000 
     24 H          34.1097   34.7166   45.3098 H         1 AMP1000     0.0000 
     25 H          35.1956   35.4161   44.0967 H         1 AMP1000     0.0000 
     26 H          36.7882   33.5392   44.5711 H         1 AMP1000     0.0000 
     27 H          34.6803   32.3896   45.8986 H         1 AMP1000     0.0000 
     28 H          34.6719   33.9218   47.5632 H         1 AMP1000     0.0000 
     29 H          37.6529   33.8481   47.5573 H         1 AMP1000     0.0000 
     30 H          35.0586   34.8744   49.6753 H         1 AMP1000     0.0000 
     31 H          36.7680   38.9770   51.4674 H         1 AMP1000     0.0000 
     32 H          37.2048   40.4242   50.4976 H         1 AMP1000     0.0000 
     33 H          39.7162   38.4969   47.1677 H         1 AMP1000     0.0000 
     34 H          36.3072   31.0429   45.3855 H         1 AMP1000     0.0000 
     35 H          35.6463   31.5213   48.2760 H         1 AMP1000     0.0000 
@<TRIPOS>BOND
     1    2    1 ar   
     2    3    1 ar   
     3    4    1 ar   
     4    5    1 1    
     5    6    5 1    
     6    7    6 1    
     7   24    6 1    
     8   25    6 1    
     9    8    7 1    
    10    9    7 1    
    11   26    7 1    
    12   13    8 1    
    13   10    9 1    
    14   11    9 1    
    15   27    9 1    
    16   34   10 1    
    17   12   11 1    
    18   13   11 1    
    19   28   11 1    
    20   35   12 1    
    21   14   13 1    
    22   29   13 1    
    23   15   14 1    
    24   23   14 1    
    25   16   15 2    
    26   30   15 1    
    27   17   16 1    
    28   18   17 ar   
    29   23   17 ar   
    30   19   18 1    
    31   20   18 ar   
    32   31   19 1    
    33   32   19 1    
    34   21   20 ar   
    35   22   21 ar   
    36   33   21 1    
    37   23   22 ar   
@<TRIPOS>SUBSTRUCTURE
     1 AMP1000     1 GROUP   
@<TRIPOS>SET

