#    Name: 2r6h_FAD_3_INTS_M
#    Modification time : Mon Mar 24 23:16:15 2014

@<TRIPOS>MOLECULE
2r6h_FAD_3_INTS_M
   95     0    12     0     0
SMALL
NO_CHARGES


@<TRIPOS>ATOM
      1 N         113.9605   21.4590  151.3765 N.am      2 SEC2        0.0000 
      2 N         113.7920   22.6260  150.5220 N.am     10 SEL2        0.0000 
      3 N         114.1290   20.2920  152.2310 N.am      6 SEP2        0.0000 
      4 CA        109.6405   20.0430  148.7345 C.3       4 GLC5        0.0000 
      5 CA        110.7760   20.6160  147.2650 C.3      12 GLL5        0.0000 
      6 CA        108.5050   19.4700  150.2040 C.3       8 GLP5        0.0000 
      7 O         109.4285   18.4990  146.3695 O.2       1 ALC1        0.0000 
      8 O         109.7680   19.8150  146.6860 O.2       9 ALL1        0.0000 
      9 O         109.0890   17.1830  146.0530 O.2       5 ALP1        0.0000 
     10 CA        112.8895   18.4555  147.5645 C.3       4 GLC5        0.0000 
     11 CA        112.1190   20.2950  146.6440 C.3      12 GLL5        0.0000 
     12 CA        113.6600   16.6160  148.4850 C.3       8 GLP5        0.0000 
     13 O         113.5240   18.5365  146.4200 O.2       1 ALC1        0.0000 
     14 O         112.2610   18.9320  146.3390 O.2       9 ALL1        0.0000 
     15 O         114.7870   18.1410  146.5010 O.2       5 ALP1        0.0000 
     16 CA        111.5060   19.6230  143.7810 C.3       4 GLC5        0.0000 
     17 CA        112.0270   21.1050  145.3690 C.3      12 GLL5        0.0000 
     18 CA        110.9850   18.1410  142.1930 C.3       8 GLP5        0.0000 
     19 CA        113.4815   19.8800  144.2575 C.3       4 GLC5        0.0000 
     20 CA        114.9360   18.6550  143.1460 C.3       8 GLP5        0.0000 
     21 CA        111.8665   20.4370  141.0590 C.3       4 GLC5        0.0000 
     22 CA        113.2170   22.0590  141.1780 C.3      12 GLL5        0.0000 
     23 CA        110.5160   18.8150  140.9400 C.3       8 GLP5        0.0000 
     24 CA        114.0025   20.3905  140.6525 C.3       4 GLC5        0.0000 
     25 CA        114.7880   18.7220  140.1270 C.3       8 GLP5        0.0000 
     26 N         103.5300   20.0115  155.1830 N.am      2 SEC2        0.0000 
     27 N         103.5890   21.5270  155.0610 N.am     10 SEL2        0.0000 
     28 N         103.4710   18.4960  155.3050 N.am      6 SEP2        0.0000 
     29 O         102.0105   21.7085  157.2770 O.2       1 ALC1        0.0000 
     30 O         102.4560   22.8020  156.5730 O.2       9 ALL1        0.0000 
     31 O         101.5650   20.6150  157.9810 O.2       5 ALP1        0.0000 
     32 N         101.7920   25.1190  159.2895 N.am      2 SEC2        0.0000 
     33 N         101.4180   24.2120  158.0370 N.am     10 SEL2        0.0000 
     34 N         102.1660   26.0260  160.5420 N.am      6 SEP2        0.0000 
     35 N         101.5165   27.0465  158.0130 N.am      2 SEC2        0.0000 
     36 N         102.6170   26.4430  156.9570 N.am     10 SEL2        0.0000 
     37 N         100.4160   27.6500  159.0690 N.am      6 SEP2        0.0000 
     38 CA        103.8885   26.6750  158.1625 C.3       4 GLC5        0.0000 
     39 CA        103.2600   27.5120  156.3660 C.3      12 GLL5        0.0000 
     40 CA        104.5170   25.8380  159.9590 C.3       8 GLP5        0.0000 
     41 CA        102.9775   29.3950  158.9635 C.3       4 GLC5        0.0000 
     42 CA        103.0180   28.7950  156.8510 C.3      12 GLL5        0.0000 
     43 CA        102.9370   29.9950  161.0760 C.3       8 GLP5        0.0000 
     44 CA        103.3015   31.7585  158.3815 C.3       4 GLC5        0.0000 
     45 CA        103.4050   31.2720  156.7720 C.3      12 GLL5        0.0000 
     46 CA        103.1980   32.2450  159.9910 C.3       8 GLP5        0.0000 
     47 CA        102.9915   27.3320  153.6960 C.3       4 GLC5        0.0000 
     48 CA        104.1450   27.3130  155.3060 C.3      12 GLL5        0.0000 
     49 CA        101.8380   27.3510  152.0860 C.3       8 GLP5        0.0000 
     50 CA        103.6630   26.5435  152.9870 C.3       4 GLC5        0.0000 
     51 CA        105.4880   25.7360  153.8880 C.3      12 GLL5        0.0000 
     52 CA        106.5565   23.9750  156.0120 C.3       4 GLC5        0.0000 
     53 CA        106.7410   25.3330  154.6530 C.3      12 GLL5        0.0000 
     54 CA        106.3720   22.6170  157.3710 C.3       8 GLP5        0.0000 
     55 O         106.7570   26.4265  156.5440 O.2       1 ALC1        0.0000 
     56 O         107.2520   26.4810  155.2820 O.2       9 ALL1        0.0000 
     57 O         106.2620   26.3720  157.8060 O.2       5 ALP1        0.0000 
     58 CA        107.7740   23.7630  155.6435 C.3       4 GLC5        0.0000 
     59 CA        107.8150   24.7410  153.7320 C.3      12 GLL5        0.0000 
     60 CA        107.7330   22.7850  157.5550 C.3       8 GLP5        0.0000 
     61 CA        106.9100   22.9885  155.2720 C.3       4 GLC5        0.0000 
     62 CA        107.4480   23.3600  153.1730 C.3      12 GLL5        0.0000 
     63 O         108.0050   22.3500  155.4520 O.2       1 ALC1        0.0000 
     64 O         107.3670   22.4390  154.2450 O.2       9 ALL1        0.0000 
     65 O         108.6430   22.2610  156.6590 O.2       5 ALP1        0.0000 
     66 CA        108.4910   21.1745  151.1755 C.3       4 GLC5        0.0000 
     67 CA        108.4770   22.8790  152.1470 C.3      12 GLL5        0.0000 
     68 NZ        113.1415   24.0100  153.5920 N.4       3 LYC4        0.0000 
     69 NZ        112.2110   22.8510  153.2710 N.4      11 LYL4        0.0000 
     70 NZ        113.1770   25.8740  154.5980 N.4       7 LYP4        0.0000 
     71 N         112.0405   24.2605  153.8480 N.am      2 SEC2        0.0000 
     72 N         112.2110   22.8510  153.2710 N.am     10 SEL2        0.0000 
     73 N         111.8700   25.6700  154.4250 N.am      6 SEP2        0.0000 
     74 N         113.1415   24.0100  153.5920 N.am      2 SEC2        0.0000 
     75 N         114.0720   25.1690  153.9130 N.am      6 SEP2        0.0000 
     76 N         112.7975   21.9560  154.0850 N.am      2 SEC2        0.0000 
     77 N         113.3840   21.0610  154.8990 N.am      6 SEP2        0.0000 
     78 N         110.7975   20.2905  154.3080 N.am      2 SEC2        0.0000 
     79 N         110.7010   20.8980  153.1310 N.am     10 SEL2        0.0000 
     80 N         110.8940   19.6830  155.4850 N.am      6 SEP2        0.0000 
     81 N         110.2135   19.7215  153.1485 N.am      2 SEC2        0.0000 
     82 N         109.7260   18.5450  153.1660 N.am      6 SEP2        0.0000 
     83 CA        111.9597   19.9703  148.8102 C.3       4 GLC5        0.0000 
     84 CA        112.4720   19.4850  150.6660 C.3       8 GLP5        0.0000 
     85 CA        114.6551   20.3164  143.1397 C.3       4 GLC5        0.0000 
     86 CA        114.9280   22.0570  143.3900 C.3      12 GLL5        0.0000 
     87 CA        105.1499   29.8436  157.5530 C.3       4 GLC5        0.0000 
     88 CA        103.6670   29.8820  156.2650 C.3      12 GLL5        0.0000 
     89 CA        106.9260   29.3820  158.4410 C.3       8 GLP5        0.0000 
     90 CA        105.8864   29.3508  156.6215 C.3       4 GLC5        0.0000 
     91 CA        104.5560   29.6670  155.2040 C.3      12 GLL5        0.0000 
     92 CA        103.5799   29.0553  153.4235 C.3       4 GLC5        0.0000 
     93 CA        102.3130   28.7910  152.0450 C.3       8 GLP5        0.0000 
     94 CA        108.7325   25.3535  155.2437 C.3       4 GLC5        0.0000 
     95 CA        110.1870   25.6700  156.2950 C.3       8 GLP5        0.0000 
@<TRIPOS>BOND
@<TRIPOS>SUBSTRUCTURE
     1 ALC1        7 GROUP        1 X    ALC  0     ROOT ALC X 1
     2 SEC2        1 GROUP        1 X    SEC  0     **** SEC X 2
     3 LYC4       68 GROUP        1 X    LYC  0     **** LYC X 4
     4 GLC5        4 GROUP        1 X    GLC  0     **** GLC X 6
     5 ALP1        9 GROUP        1 Y    ALP  0     ROOT ALP Y 8
     6 SEP2        3 GROUP        1 Y    SEP  0     **** SEP Y 9
     7 LYP4       70 GROUP        1 Y    LYP  0     **** LYP Y 11
     8 GLP5        6 GROUP        1 Y    GLP  0     **** GLP Y 13
     9 ALL1        8 GROUP        1 Z    ALL  0     ROOT ALL Z 15
    10 SEL2        2 GROUP        1 Z    SEL  0     **** SEL Z 16
    11 LYL4       69 GROUP        1 Z    LYL  0     **** LYL Z 18
    12 GLL5        5 GROUP        1 Z    GLL  0     **** GLL Z 20
@<TRIPOS>SET

