#    Name: 2r6h_FAD_3_ligand
#    Modification time : Mon Mar 24 23:16:16 2014

@<TRIPOS>MOLECULE
2r6h_FAD_3_ligand
   84    89     1     0     0
SMALL
NO_CHARGES


@<TRIPOS>ATOM
      1 PA        112.3650   23.0300  150.1610 P.3       1 FAD413      0.0000 
      2 O1A       112.0870   24.5140  150.3400 O.co2     1 FAD413      0.0000 
      3 O2A       113.7920   22.6260  150.5220 O.co2     1 FAD413      0.0000 
      4 O5B       112.0630   22.6160  148.6220 O.3       1 FAD413      0.0000 
      5 C5B       110.8810   23.0400  147.9760 C.3       1 FAD413      0.0000 
      6 C4B       110.5170   22.0630  146.8600 C.3       1 FAD413      0.0000 
      7 O4B       111.3110   22.2890  145.7080 O.3       1 FAD413      0.0000 
      8 C3B       110.7760   20.6160  147.2650 C.3       1 FAD413      0.0000 
      9 O3B       109.7680   19.8150  146.6860 O.3       1 FAD413      0.0000 
     10 C2B       112.1190   20.2950  146.6440 C.3       1 FAD413      0.0000 
     11 O2B       112.2610   18.9320  146.3390 O.3       1 FAD413      0.0000 
     12 C1B       112.0270   21.1050  145.3690 C.3       1 FAD413      0.0000 
     13 N9A       113.3510   21.4630  144.8450 N.pl3     1 FAD413      0.0000 
     14 C8A       114.5350   21.6080  145.5350 C.2       1 FAD413      0.0000 
     15 N7A       115.4920   21.9680  144.6350 N.2       1 FAD413      0.0000 
     16 C5A       114.9280   22.0570  143.3900 C.ar      1 FAD413      0.0000 
     17 C6A       115.4310   22.3780  142.1160 C.ar      1 FAD413      0.0000 
     18 N6A       116.7560   22.4580  141.9090 N.pl3     1 FAD413      0.0000 
     19 N1A       114.5580   22.3750  141.0250 N.ar      1 FAD413      0.0000 
     20 C2A       113.2170   22.0590  141.1780 C.ar      1 FAD413      0.0000 
     21 N3A       112.7260   21.7350  142.4310 N.ar      1 FAD413      0.0000 
     22 C4A       113.5690   21.7380  143.5140 C.ar      1 FAD413      0.0000 
     23 N1        103.9710   23.7100  154.9570 N.2       1 FAD413      0.0000 
     24 C2        103.3390   22.6330  155.5200 C.2       1 FAD413      0.0000 
     25 O2        103.5890   21.5270  155.0610 O.2       1 FAD413      0.0000 
     26 N3        102.4560   22.8020  156.5730 N.am      1 FAD413      0.0000 
     27 C4        102.1930   24.0650  157.0810 C.2       1 FAD413      0.0000 
     28 O4        101.4180   24.2120  158.0370 O.2       1 FAD413      0.0000 
     29 C4X       102.8400   25.1600  156.4980 C.2       1 FAD413      0.0000 
     30 N5        102.6170   26.4430  156.9570 N.2       1 FAD413      0.0000 
     31 C5X       103.2600   27.5120  156.3660 C.ar      1 FAD413      0.0000 
     32 C6        103.0180   28.7950  156.8510 C.ar      1 FAD413      0.0000 
     33 C7        103.6670   29.8820  156.2650 C.ar      1 FAD413      0.0000 
     34 C7M       103.4050   31.2720  156.7720 C.3       1 FAD413      0.0000 
     35 C8        104.5560   29.6670  155.2040 C.ar      1 FAD413      0.0000 
     36 C8M       105.2370   30.8350  154.5720 C.3       1 FAD413      0.0000 
     37 C9        104.7970   28.3880  154.7160 C.ar      1 FAD413      0.0000 
     38 C9A       104.1450   27.3130  155.3060 C.ar      1 FAD413      0.0000 
     39 N10       104.3740   26.0320  154.8520 N.pl3     1 FAD413      0.0000 
     40 C10       103.7260   24.9700  155.4400 C.2       1 FAD413      0.0000 
     41 C1'       105.4880   25.7360  153.8880 C.3       1 FAD413      0.0000 
     42 C2'       106.7410   25.3330  154.6530 C.3       1 FAD413      0.0000 
     43 O2'       107.2520   26.4810  155.2820 O.3       1 FAD413      0.0000 
     44 C3'       107.8150   24.7410  153.7320 C.3       1 FAD413      0.0000 
     45 O3'       108.0830   25.6240  152.6610 O.3       1 FAD413      0.0000 
     46 C4'       107.4480   23.3600  153.1730 C.3       1 FAD413      0.0000 
     47 O4'       107.3670   22.4390  154.2450 O.3       1 FAD413      0.0000 
     48 C5'       108.4770   22.8790  152.1470 C.3       1 FAD413      0.0000 
     49 O5'       109.7510   23.2430  152.6350 O.3       1 FAD413      0.0000 
     50 P         111.0180   22.2580  152.5650 P.3       1 FAD413      0.0000 
     51 O1P       112.2110   22.8510  153.2710 O.co2     1 FAD413      0.0000 
     52 O2P       110.7010   20.8980  153.1310 O.co2     1 FAD413      0.0000 
     53 O3P       111.2280   22.1990  150.9730 O.3       1 FAD413      0.0000 
     54 H         110.9917   24.0346  147.5211 H         1 FAD413      0.0000 
     55 H         110.0263   23.0869  148.6657 H         1 FAD413      0.0000 
     56 H         109.4694   22.1602  146.6329 H         1 FAD413      0.0000 
     57 H         110.8400   20.5590  148.3028 H         1 FAD413      0.0000 
     58 H         112.8761   20.7099  147.2417 H         1 FAD413      0.0000 
     59 H         111.4767   20.5300  144.6458 H         1 FAD413      0.0000 
     60 H         114.6529   21.4781  146.4704 H         1 FAD413      0.0000 
     61 H         117.3379   22.2250  142.6881 H         1 FAD413      0.0000 
     62 H         117.0420   22.7434  140.9943 H         1 FAD413      0.0000 
     63 H         112.5899   22.0655  140.3630 H         1 FAD413      0.0000 
     64 H         101.9867   21.9771  156.9860 H         1 FAD413      0.0000 
     65 H         102.3706   28.9400  157.6295 H         1 FAD413      0.0000 
     66 H         105.4413   28.2421  153.9385 H         1 FAD413      0.0000 
     67 H         105.7047   26.6192  153.2905 H         1 FAD413      0.0000 
     68 H         105.1982   24.9224  153.2262 H         1 FAD413      0.0000 
     69 H         106.4664   24.5803  155.3783 H         1 FAD413      0.0000 
     70 H         108.7264   24.6081  154.3399 H         1 FAD413      0.0000 
     71 H         106.4909   23.4538  152.6693 H         1 FAD413      0.0000 
     72 H         108.2436   23.3546  151.1976 H         1 FAD413      0.0000 
     73 H         108.3626   21.8027  152.0445 H         1 FAD413      0.0000 
     74 H         103.6451   31.3663  157.7381 H         1 FAD413      0.0000 
     75 H         103.9342   31.9562  156.2703 H         1 FAD413      0.0000 
     76 H         102.4414   31.5241  156.6835 H         1 FAD413      0.0000 
     77 H         105.7953   31.3402  155.2301 H         1 FAD413      0.0000 
     78 H         105.8434   30.5536  153.8283 H         1 FAD413      0.0000 
     79 H         104.5807   31.4832  154.1858 H         1 FAD413      0.0000 
     80 H         110.2108   18.9386  146.4968 H         1 FAD413      0.0000 
     81 H         113.0506   18.6284  146.8723 H         1 FAD413      0.0000 
     82 H         106.9280   26.4244  156.2264 H         1 FAD413      0.0000 
     83 H         108.9534   25.3121  152.2802 H         1 FAD413      0.0000 
     84 H         108.0974   22.7079  154.8728 H         1 FAD413      0.0000 
@<TRIPOS>BOND
     1    2    1 ar   
     2    3    1 ar   
     3    4    1 1    
     4   53    1 1    
     5    5    4 1    
     6    6    5 1    
     7   54    5 1    
     8   55    5 1    
     9    7    6 1    
    10    8    6 1    
    11   56    6 1    
    12   12    7 1    
    13    9    8 1    
    14   10    8 1    
    15   57    8 1    
    16   80    9 1    
    17   11   10 1    
    18   12   10 1    
    19   58   10 1    
    20   81   11 1    
    21   13   12 1    
    22   59   12 1    
    23   14   13 1    
    24   22   13 1    
    25   15   14 2    
    26   60   14 1    
    27   16   15 1    
    28   17   16 ar   
    29   22   16 ar   
    30   18   17 1    
    31   19   17 ar   
    32   61   18 1    
    33   62   18 1    
    34   20   19 ar   
    35   21   20 ar   
    36   63   20 1    
    37   22   21 ar   
    38   24   23 1    
    39   40   23 2    
    40   25   24 2    
    41   26   24 am   
    42   27   26 am   
    43   64   26 1    
    44   28   27 2    
    45   29   27 1    
    46   30   29 2    
    47   40   29 1    
    48   31   30 1    
    49   32   31 ar   
    50   38   31 ar   
    51   33   32 ar   
    52   65   32 1    
    53   34   33 1    
    54   35   33 ar   
    55   74   34 1    
    56   75   34 1    
    57   76   34 1    
    58   36   35 1    
    59   37   35 ar   
    60   77   36 1    
    61   78   36 1    
    62   79   36 1    
    63   38   37 ar   
    64   66   37 1    
    65   39   38 1    
    66   40   39 1    
    67   41   39 1    
    68   42   41 1    
    69   67   41 1    
    70   68   41 1    
    71   43   42 1    
    72   44   42 1    
    73   69   42 1    
    74   82   43 1    
    75   45   44 1    
    76   46   44 1    
    77   70   44 1    
    78   83   45 1    
    79   47   46 1    
    80   48   46 1    
    81   71   46 1    
    82   84   47 1    
    83   49   48 1    
    84   72   48 1    
    85   73   48 1    
    86   50   49 1    
    87   51   50 ar   
    88   52   50 ar   
    89   53   50 1    
@<TRIPOS>SUBSTRUCTURE
     1 FAD413      1 GROUP   
@<TRIPOS>SET

