#    Name: 4ho8_UPG_7_INTS_M
#    Modification time : Tue Mar 25 01:32:53 2014

@<TRIPOS>MOLECULE
4ho8_UPG_7_INTS_M
   89     0    12     0     0
SMALL
NO_CHARGES


@<TRIPOS>ATOM
      1 O          -7.5465   -7.0075   41.2130 O.2       1 ALC1        0.0000 
      2 O          -6.2000   -6.7610   41.3220 O.2       9 ALL1        0.0000 
      3 O          -8.8930   -7.2540   41.1040 O.2       5 ALP1        0.0000 
      4 CA         -5.9795   -3.9490   41.7885 C.3       4 GLC5        0.0000 
      5 CA         -4.6500   -5.5160   42.6580 C.3      12 GLL5        0.0000 
      6 CA         -7.3090   -2.3820   40.9190 C.3       8 GLP5        0.0000 
      7 CA         -5.1640   -5.2770   44.5585 C.3       4 GLC5        0.0000 
      8 CA         -5.6780   -5.0380   46.4590 C.3       8 GLP5        0.0000 
      9 N          -5.7825   -8.3610   38.3210 N.am      2 SEC2        0.0000 
     10 N          -5.4530   -7.7700   39.4620 N.am     10 SEL2        0.0000 
     11 N          -6.1120   -8.9520   37.1800 N.am      6 SEP2        0.0000 
     12 N          -8.0475   -6.2295   43.2290 N.am      2 SEC2        0.0000 
     13 N          -6.8870   -5.7530   43.2050 N.am     10 SEL2        0.0000 
     14 N          -9.2080   -6.7060   43.2530 N.am      6 SEP2        0.0000 
     15 N          -6.8250   -5.0310   44.4855 N.am      2 SEC2        0.0000 
     16 N          -6.7630   -4.3090   45.7660 N.am      6 SEP2        0.0000 
     17 CA         -3.8100   -4.9750   38.1635 C.3       4 GLC5        0.0000 
     18 CA         -2.0610   -5.8180   39.1270 C.3      12 GLL5        0.0000 
     19 CA         -5.5590   -4.1320   37.2000 C.3       8 GLP5        0.0000 
     20 CA          0.5545   -8.8775   41.3460 C.3       4 GLC5        0.0000 
     21 CA         -0.6460   -7.3490   40.2250 C.3      12 GLL5        0.0000 
     22 CA          1.7550  -10.4060   42.4670 C.3       8 GLP5        0.0000 
     23 N          -1.8535   -8.6885   38.8080 N.am      2 SEC2        0.0000 
     24 N          -1.9470   -7.9200   40.2400 N.am     10 SEL2        0.0000 
     25 N          -1.7600   -9.4570   37.3760 N.am      6 SEP2        0.0000 
     26 N           0.2900   -6.7060   36.5765 N.am      2 SEC2        0.0000 
     27 N          -0.5750   -7.2380   37.8510 N.am     10 SEL2        0.0000 
     28 N           1.1550   -6.1740   35.3020 N.am      6 SEP2        0.0000 
     29 O           0.6850   -7.4910   37.4490 O.2       1 ALC1        0.0000 
     30 O          -0.5750   -7.2380   37.8510 O.2       9 ALL1        0.0000 
     31 O           1.9450   -7.7440   37.0470 O.2       5 ALP1        0.0000 
     32 NZ          0.6725   -3.2325   44.8545 N.4       3 LYC4        0.0000 
     33 NZ          0.8320   -4.6840   44.3190 N.4      11 LYL4        0.0000 
     34 NZ          0.1580   -1.5990   46.6410 N.4       7 LYP4        0.0000 
     35 N           0.6725   -3.2325   44.8545 N.am      2 SEC2        0.0000 
     36 N           0.8320   -4.6840   44.3190 N.am     10 SEL2        0.0000 
     37 N           0.5130   -1.7810   45.3900 N.am      6 SEP2        0.0000 
     38 NZ          3.5505   -2.4555   44.9325 N.4       3 LYC4        0.0000 
     39 NZ          2.7620   -3.1860   44.4710 N.4      11 LYL4        0.0000 
     40 NZ          4.3390   -1.7250   45.3940 N.4       7 LYP4        0.0000 
     41 NZ          1.6375   -2.4835   44.9305 N.4       3 LYC4        0.0000 
     42 N           1.6375   -2.4835   44.9305 N.am      2 SEC2        0.0000 
     43 N           2.7620   -3.1860   44.4710 N.am     10 SEL2        0.0000 
     44 CA          2.2440   -8.7035   43.6185 C.3       4 GLC5        0.0000 
     45 CA          2.7330   -7.0010   44.7700 C.3      12 GLL5        0.0000 
     46 CA          1.8875   -8.5340   47.6610 C.3       4 GLC5        0.0000 
     47 CA          2.9880   -7.3310   46.2220 C.3      12 GLL5        0.0000 
     48 CA          0.7870   -9.7370   49.1000 C.3       8 GLP5        0.0000 
     49 CA          5.9080   -7.1590   48.1385 C.3       4 GLC5        0.0000 
     50 CA          4.4810   -7.3470   46.5790 C.3      12 GLL5        0.0000 
     51 CA          7.3350   -6.9710   49.6980 C.3       8 GLP5        0.0000 
     52 CA          7.3275   -7.2745   45.8835 C.3       4 GLC5        0.0000 
     53 CA          5.2900   -8.1770   45.6150 C.3      12 GLL5        0.0000 
     54 CA          9.3650   -6.3720   46.1520 C.3       8 GLP5        0.0000 
     55 CA          4.5820  -11.0650   43.5360 C.3       4 GLC5        0.0000 
     56 CA          5.4740   -9.0360   43.3200 C.3      12 GLL5        0.0000 
     57 CA          3.6900  -13.0940   43.7520 C.3       8 GLP5        0.0000 
     58 CA          6.7100  -10.1160   42.5550 C.3       4 GLC5        0.0000 
     59 CA          7.9460  -11.1960   41.7900 C.3       8 GLP5        0.0000 
     60 O           3.1175   -5.2315   47.7260 O.2       1 ALC1        0.0000 
     61 O           2.3380   -6.3530   47.0030 O.2       9 ALL1        0.0000 
     62 O           3.8970   -4.1100   48.4490 O.2       5 ALP1        0.0000 
     63 N           6.0395   -7.1100   48.1375 N.am      2 SEC2        0.0000 
     64 N           4.7300   -7.8890   47.8900 N.am     10 SEL2        0.0000 
     65 N           7.3490   -6.3310   48.3850 N.am      6 SEP2        0.0000 
     66 O           4.4035   -6.7785   48.9375 O.2       1 ALC1        0.0000 
     67 O           4.7300   -7.8890   47.8900 O.2       9 ALL1        0.0000 
     68 O           4.0770   -5.6680   49.9850 O.2       5 ALP1        0.0000 
     69 N           7.0170   -7.0950   47.1025 N.am      2 SEC2        0.0000 
     70 N           6.6850   -7.8590   45.8200 N.am     10 SEL2        0.0000 
     71 O           6.9095   -9.2350   46.2880 O.2       1 ALC1        0.0000 
     72 O           6.6850   -7.8590   45.8200 O.2       9 ALL1        0.0000 
     73 O           7.1340  -10.6110   46.7560 O.2       5 ALP1        0.0000 
     74 N           4.5110  -10.1700   40.7915 N.am      2 SEC2        0.0000 
     75 N           4.7020   -9.1090   42.1310 N.am     10 SEL2        0.0000 
     76 N           4.3200  -11.2310   39.4520 N.am      6 SEP2        0.0000 
     77 CA         -4.5393   -7.6787   42.4855 C.3       4 GLC5        0.0000 
     78 CA         -3.6330   -5.8270   41.7540 C.3      12 GLL5        0.0000 
     79 CA         -4.9370   -9.6860   42.7650 C.3       8 GLP5        0.0000 
     80 CA         -3.1162   -6.6772   43.3235 C.3       4 GLC5        0.0000 
     81 CA         -2.0910   -7.6830   44.4410 C.3       8 GLP5        0.0000 
     82 CA         -1.3563   -7.3040   42.6455 C.3       4 GLC5        0.0000 
     83 CA         -0.5970   -6.5010   41.4750 C.3      12 GLL5        0.0000 
     84 CA          1.1638   -8.1940   45.5620 C.3       4 GLC5        0.0000 
     85 CA         -0.5330   -9.2220   45.6280 C.3       8 GLP5        0.0000 
     86 CA          3.4675   -9.4458   43.1048 C.3       4 GLC5        0.0000 
     87 CA          4.8860   -7.9350   44.1650 C.3      12 GLL5        0.0000 
     88 CA          7.1260   -7.4292   43.6987 C.3       4 GLC5        0.0000 
     89 CA          9.0720   -6.3730   43.6550 C.3       8 GLP5        0.0000 
@<TRIPOS>BOND
@<TRIPOS>SUBSTRUCTURE
     1 ALC1        1 GROUP        1 X    ALC  0     ROOT ALC X 1
     2 SEC2        9 GROUP        1 X    SEC  0     **** SEC X 2
     3 LYC4       32 GROUP        1 X    LYC  0     **** LYC X 4
     4 GLC5        4 GROUP        1 X    GLC  0     **** GLC X 6
     5 ALP1        3 GROUP        1 Y    ALP  0     ROOT ALP Y 8
     6 SEP2       11 GROUP        1 Y    SEP  0     **** SEP Y 9
     7 LYP4       34 GROUP        1 Y    LYP  0     **** LYP Y 11
     8 GLP5        6 GROUP        1 Y    GLP  0     **** GLP Y 13
     9 ALL1        2 GROUP        1 Z    ALL  0     ROOT ALL Z 15
    10 SEL2       10 GROUP        1 Z    SEL  0     **** SEL Z 16
    11 LYL4       33 GROUP        1 Z    LYL  0     **** LYL Z 18
    12 GLL5        5 GROUP        1 Z    GLL  0     **** GLL Z 20
@<TRIPOS>SET

