#    Name: 4ho8_UPG_7_ligand
#    Modification time : Tue Mar 25 01:32:53 2014

@<TRIPOS>MOLECULE
4ho8_UPG_7_ligand
   58    60     1     0     0
SMALL
NO_CHARGES


@<TRIPOS>ATOM
      1 N1         -3.9170   -6.5860   40.6590 N.am      1 UPG300      0.0000 
      2 C2         -5.2200   -7.0540   40.4530 C.2       1 UPG300      0.0000 
      3 N3         -6.2000   -6.7610   41.3220 N.am      1 UPG300      0.0000 
      4 C4         -5.9500   -6.0050   42.4100 C.2       1 UPG300      0.0000 
      5 C5         -4.6500   -5.5160   42.6580 C.2       1 UPG300      0.0000 
      6 C6         -3.6330   -5.8270   41.7540 C.2       1 UPG300      0.0000 
      7 O2         -5.4530   -7.7700   39.4620 O.2       1 UPG300      0.0000 
      8 O4         -6.8870   -5.7530   43.2050 O.2       1 UPG300      0.0000 
      9 C1C        -2.8910   -6.9820   39.6690 C.3       1 UPG300      0.0000 
     10 C2C        -2.0610   -5.8180   39.1270 C.3       1 UPG300      0.0000 
     11 O2C        -2.5450   -5.3710   37.8440 O.3       1 UPG300      0.0000 
     12 C3C        -0.6810   -6.4310   39.0380 C.3       1 UPG300      0.0000 
     13 C4C        -0.6460   -7.3490   40.2250 C.3       1 UPG300      0.0000 
     14 O4C        -1.9470   -7.9200   40.2400 O.3       1 UPG300      0.0000 
     15 O3C        -0.5750   -7.2380   37.8510 O.3       1 UPG300      0.0000 
     16 C5C        -0.5970   -6.5010   41.4750 C.3       1 UPG300      0.0000 
     17 O5C         0.6930   -6.0830   41.8080 O.3       1 UPG300      0.0000 
     18 PA          1.2110   -4.6480   41.3470 P.3       1 UPG300      0.0000 
     19 O1A         1.6850   -4.7980   39.9300 O.co2     1 UPG300      0.0000 
     20 O2A         0.2270   -3.5330   41.5460 O.co2     1 UPG300      0.0000 
     21 O3A         2.4410   -4.4120   42.3390 O.3       1 UPG300      0.0000 
     22 PB          2.2420   -4.4730   43.9220 P.3       1 UPG300      0.0000 
     23 O1B         0.8320   -4.6840   44.3190 O.co2     1 UPG300      0.0000 
     24 O2B         2.7620   -3.1860   44.4710 O.co2     1 UPG300      0.0000 
     25 O3B         3.1830   -5.6790   44.4810 O.3       1 UPG300      0.0000 
     26 C1'         2.7330   -7.0010   44.7700 C.3       1 UPG300      0.0000 
     27 C2'         2.9880   -7.3310   46.2220 C.3       1 UPG300      0.0000 
     28 C3'         4.4810   -7.3470   46.5790 C.3       1 UPG300      0.0000 
     29 C4'         5.2900   -8.1770   45.6150 C.3       1 UPG300      0.0000 
     30 C5'         4.8860   -7.9350   44.1650 C.3       1 UPG300      0.0000 
     31 C6'         5.4740   -9.0360   43.3200 C.3       1 UPG300      0.0000 
     32 O2'         2.3380   -6.3530   47.0030 O.3       1 UPG300      0.0000 
     33 O3'         4.7300   -7.8890   47.8900 O.3       1 UPG300      0.0000 
     34 O4'         6.6850   -7.8590   45.8200 O.3       1 UPG300      0.0000 
     35 O5'         3.4510   -7.9410   43.9770 O.3       1 UPG300      0.0000 
     36 O6'         4.7020   -9.1090   42.1310 O.3       1 UPG300      0.0000 
     37 H          -7.1694   -7.1219   41.1557 H         1 UPG300      0.0000 
     38 H          -4.4650   -4.9497   43.4797 H         1 UPG300      0.0000 
     39 H          -2.6805   -5.4782   41.9270 H         1 UPG300      0.0000 
     40 H          -3.3735   -7.4562   38.8069 H         1 UPG300      0.0000 
     41 H          -2.0448   -5.0579   39.8673 H         1 UPG300      0.0000 
     42 H           0.0444   -5.7011   39.1291 H         1 UPG300      0.0000 
     43 H           0.1058   -8.0174   40.1797 H         1 UPG300      0.0000 
     44 H          -1.0654   -7.0951   42.2963 H         1 UPG300      0.0000 
     45 H          -1.2849   -5.6360   41.3151 H         1 UPG300      0.0000 
     46 H           1.6714   -7.0944   44.5944 H         1 UPG300      0.0000 
     47 H           2.5825   -8.3143   46.4272 H         1 UPG300      0.0000 
     48 H           4.8565   -6.3240   46.5272 H         1 UPG300      0.0000 
     49 H           5.1173   -9.2270   45.8472 H         1 UPG300      0.0000 
     50 H           5.3157   -7.0013   43.8397 H         1 UPG300      0.0000 
     51 H           5.4339   -9.9636   43.8887 H         1 UPG300      0.0000 
     52 H           6.5151   -8.7922   43.1148 H         1 UPG300      0.0000 
     53 H          -2.0370   -5.9115   37.1732 H         1 UPG300      0.0000 
     54 H           0.3987   -7.4508   37.7689 H         1 UPG300      0.0000 
     55 H           3.0689   -5.7510   47.3245 H         1 UPG300      0.0000 
     56 H           4.5316   -7.1396   48.5217 H         1 UPG300      0.0000 
     57 H           7.0976   -8.7072   46.1522 H         1 UPG300      0.0000 
     58 H           3.7534   -9.0113   42.4321 H         1 UPG300      0.0000 
@<TRIPOS>BOND
     1    2    1 1    
     2    6    1 1    
     3    9    1 1    
     4    3    2 1    
     5    7    2 2    
     6    4    3 1    
     7   37    3 1    
     8    5    4 1    
     9    8    4 2    
    10    6    5 2    
    11   38    5 1    
    12   39    6 1    
    13   10    9 1    
    14   14    9 1    
    15   40    9 1    
    16   11   10 1    
    17   12   10 1    
    18   41   10 1    
    19   53   11 1    
    20   13   12 1    
    21   15   12 1    
    22   42   12 1    
    23   14   13 1    
    24   16   13 1    
    25   43   13 1    
    26   54   15 1    
    27   17   16 1    
    28   44   16 1    
    29   45   16 1    
    30   18   17 1    
    31   19   18 ar   
    32   20   18 ar   
    33   21   18 1    
    34   22   21 1    
    35   23   22 ar   
    36   24   22 ar   
    37   25   22 1    
    38   26   25 1    
    39   27   26 1    
    40   35   26 1    
    41   46   26 1    
    42   28   27 1    
    43   32   27 1    
    44   47   27 1    
    45   29   28 1    
    46   33   28 1    
    47   48   28 1    
    48   30   29 1    
    49   34   29 1    
    50   49   29 1    
    51   31   30 1    
    52   35   30 1    
    53   50   30 1    
    54   36   31 1    
    55   51   31 1    
    56   52   31 1    
    57   55   32 1    
    58   56   33 1    
    59   57   34 1    
    60   58   36 1    
@<TRIPOS>SUBSTRUCTURE
     1 UPG300      1 GROUP   
@<TRIPOS>SET

