#    Name: 4foc_0UU_1_INTS_M
#    Modification time : Mon Mar 24 20:25:15 2014

@<TRIPOS>MOLECULE
4foc_0UU_1_INTS_M
   73     0     6     0     0
SMALL
NO_CHARGES


@<TRIPOS>ATOM
      1 CA         18.3300   11.0195   10.4915 C.3       2 GLC5        0.0000 
      2 CA         16.8190   12.0180    9.6340 C.3       6 GLL5        0.0000 
      3 CA         19.8410   10.0210   11.3490 C.3       4 GLP5        0.0000 
      4 CA         15.2710   13.0840   10.8385 C.3       2 GLC5        0.0000 
      5 CA         13.7230   14.1500   12.0430 C.3       4 GLP5        0.0000 
      6 CA         16.2230   11.6595    5.5435 C.3       2 GLC5        0.0000 
      7 CA         17.8310   10.3520    6.3690 C.3       6 GLL5        0.0000 
      8 CA         14.6150   12.9670    4.7180 C.3       4 GLP5        0.0000 
      9 CA         19.8195    9.6145    9.4330 C.3       2 GLC5        0.0000 
     10 CA         19.7980    9.2080    7.5170 C.3       6 GLL5        0.0000 
     11 CA         19.3380   10.3965    3.2445 C.3       2 GLC5        0.0000 
     12 CA         18.8310   10.8690    5.3210 C.3       6 GLL5        0.0000 
     13 CA         19.8450    9.9240    1.1680 C.3       4 GLP5        0.0000 
     14 CA         17.7970   11.4605    3.5310 C.3       2 GLC5        0.0000 
     15 CA         16.7630   12.0520    1.7410 C.3       4 GLP5        0.0000 
     16 CA         19.0445   12.8280    5.0615 C.3       2 GLC5        0.0000 
     17 CA         19.2580   14.7870    4.8020 C.3       4 GLP5        0.0000 
     18 CA         20.4475   12.7215    5.0735 C.3       2 GLC5        0.0000 
     19 CA         20.2490   11.0010    5.8700 C.3       6 GLL5        0.0000 
     20 CA         20.6460   14.4420    4.2770 C.3       4 GLP5        0.0000 
     21 CA         26.5860    8.2390    8.9360 C.3       2 GLC5        0.0000 
     22 CA         25.2240    8.0980    7.2730 C.3       6 GLL5        0.0000 
     23 CA         27.9480    8.3800   10.5990 C.3       4 GLP5        0.0000 
     24 CA         24.6980   10.5400    6.3010 C.3       2 GLC5        0.0000 
     25 CA         24.1240    8.9480    7.3530 C.3       6 GLL5        0.0000 
     26 CA         25.2720   12.1320    5.2490 C.3       4 GLP5        0.0000 
     27 N          24.9935   12.2305   10.5300 N.am      1 SEC2        0.0000 
     28 N          23.9220   12.2560    9.5220 N.am      5 SEL2        0.0000 
     29 N          26.0650   12.2050   11.5380 N.am      3 SEP2        0.0000 
     30 CA         23.0730   12.2480   11.2550 C.3       2 GLC5        0.0000 
     31 CA         21.8790   13.4670    9.7910 C.3       6 GLL5        0.0000 
     32 CA         24.2670   11.0290   12.7190 C.3       4 GLP5        0.0000 
     33 CA         21.1255   14.1710    7.3740 C.3       2 GLC5        0.0000 
     34 CA         20.5450   13.6390    9.4170 C.3       6 GLL5        0.0000 
     35 CA         21.7060   14.7030    5.3310 C.3       4 GLP5        0.0000 
     36 CA         20.3175   16.1280   12.9965 C.3       2 GLC5        0.0000 
     37 CA         20.3180   15.4340   11.0000 C.3       6 GLL5        0.0000 
     38 CA         20.3170   16.8220   14.9930 C.3       4 GLP5        0.0000 
     39 CA         21.5230   14.8950   13.3770 C.3       2 GLC5        0.0000 
     40 CA         21.6460   15.2380   11.3840 C.3       6 GLL5        0.0000 
     41 CA         21.4000   14.5520   15.3700 C.3       4 GLP5        0.0000 
     42 CA         22.2510   17.0115   11.3290 C.3       2 GLC5        0.0000 
     43 CA         22.8560   18.7850   11.2740 C.3       4 GLP5        0.0000 
     44 CA         18.4618    7.8937    8.7760 C.3       2 GLC5        0.0000 
     45 CA         17.8430    6.6510   10.2860 C.3       4 GLP5        0.0000 
     46 CA         22.1245   10.6705    4.8773 C.3       2 GLC5        0.0000 
     47 CA         20.7310    9.6470    6.3830 C.3       6 GLL5        0.0000 
     48 CA         23.7590   11.0170    3.6280 C.3       4 GLP5        0.0000 
     49 CA         23.3453    9.5455    4.9380 C.3       2 GLC5        0.0000 
     50 CA         22.9680    8.6500    6.6480 C.3       6 GLL5        0.0000 
     51 CA         22.8227    7.3880    8.0925 C.3       2 GLC5        0.0000 
     52 CA         22.7140    6.7020    9.9370 C.3       4 GLP5        0.0000 
     53 CA         23.6487    6.7550    8.0213 C.3       2 GLC5        0.0000 
     54 CA         25.1620    6.9600    6.4590 C.3       6 GLL5        0.0000 
     55 CA         23.9810    8.5277    2.2210 C.3       2 GLC5        0.0000 
     56 CA         24.0380    6.5960    2.7660 C.3       6 GLL5        0.0000 
     57 CA         23.4700   10.3410    2.2850 C.3       4 GLP5        0.0000 
     58 CA         25.5144    8.8150    5.3256 C.3       2 GLC5        0.0000 
     59 CA         24.0050    6.6560    5.7520 C.3       6 GLL5        0.0000 
     60 CA         26.1250   10.1770    3.9620 C.3       4 GLP5        0.0000 
     61 CA         23.6940    7.6125    8.6250 C.3       2 GLC5        0.0000 
     62 CA         20.6330   12.8730   11.0715 C.3       2 GLC5        0.0000 
     63 CA         20.0540   12.1930   12.5390 C.3       4 GLP5        0.0000 
     64 CA         20.2287   16.9025   10.5598 C.3       2 GLC5        0.0000 
     65 CA         19.7510   14.6380   10.0050 C.3       6 GLL5        0.0000 
     66 CA         20.4230   18.7690   10.6170 C.3       4 GLP5        0.0000 
     67 CA         20.0442   13.6145   11.5207 C.3       2 GLC5        0.0000 
     68 CA         23.1605   15.1486    9.5494 C.3       2 GLC5        0.0000 
     69 CA         24.4210   15.7450    8.2610 C.3       4 GLP5        0.0000 
     70 CA         22.9992   13.4855   12.3585 C.3       2 GLC5        0.0000 
     71 CA         22.4290   14.2660   10.7920 C.3       6 GLL5        0.0000 
     72 CA         23.9610   12.2190   13.6290 C.3       4 GLP5        0.0000 
     73 CA         21.0457   13.4725   11.8135 C.3       2 GLC5        0.0000 
@<TRIPOS>BOND
@<TRIPOS>SUBSTRUCTURE
     1 SEC2       27 GROUP        1 X    SEC  0     ROOT SEC X 2
     2 GLC5        1 GROUP        1 X    GLC  0     **** GLC X 6
     3 SEP2       29 GROUP        1 Y    SEP  0     ROOT SEP Y 9
     4 GLP5        3 GROUP        1 Y    GLP  0     **** GLP Y 13
     5 SEL2       28 GROUP        1 Z    SEL  0     ROOT SEL Z 16
     6 GLL5        2 GROUP        1 Z    GLL  0     **** GLL Z 20
@<TRIPOS>SET

