#    Name: 4foc_0UU_1_ligand
#    Modification time : Mon Mar 24 20:25:15 2014

@<TRIPOS>MOLECULE
4foc_0UU_1_ligand
   70    74     1     0     0
SMALL
NO_CHARGES


@<TRIPOS>ATOM
      1 C28        16.8190   12.0180    9.6340 C.3       1 0UU1501     0.0000 
      2 O2         17.2510   10.9690    8.7260 O.3       1 0UU1501     0.0000 
      3 C27        17.6060   11.3970    7.4700 C.2       1 0UU1501     0.0000 
      4 O3         17.7600   12.5930    7.2240 O.2       1 0UU1501     0.0000 
      5 C15        17.8310   10.3520    6.3690 C.3       1 0UU1501     0.0000 
      6 C16        18.3630    9.0650    7.0150 C.3       1 0UU1501     0.0000 
      7 C17        19.7980    9.2080    7.5170 C.3       1 0UU1501     0.0000 
      8 C14        18.8310   10.8690    5.3210 C.3       1 0UU1501     0.0000 
      9 C13        20.2490   11.0010    5.8700 C.3       1 0UU1501     0.0000 
     10 C12        20.7310    9.6470    6.3830 C.3       1 0UU1501     0.0000 
     11 N2         22.1010    9.6300    6.9200 N.pl3     1 0UU1501     0.0000 
     12 C3         22.9680    8.6500    6.6480 C.ar      1 0UU1501     0.0000 
     13 C5         22.8950    7.4980    5.8480 C.ar      1 0UU1501     0.0000 
     14 C6         24.0050    6.6560    5.7520 C.ar      1 0UU1501     0.0000 
     15 C18        23.9400    5.3820    4.8780 C.3       1 0UU1501     0.0000 
     16 N3         24.6400    5.5450    3.5930 N.4       1 0UU1501     0.0000 
     17 C7         24.0380    6.5960    2.7660 C.3       1 0UU1501     0.0000 
     18 C8         24.9460    6.8330    1.5480 C.3       1 0UU1501     0.0000 
     19 C9         25.1460    5.5440    0.7330 C.3       1 0UU1501     0.0000 
     20 C10        25.4420    4.3240    1.6140 C.3       1 0UU1501     0.0000 
     21 C11        24.5250    4.2770    2.8440 C.3       1 0UU1501     0.0000 
     22 C4         25.1620    6.9600    6.4590 C.ar      1 0UU1501     0.0000 
     23 C2         25.2240    8.0980    7.2730 C.ar      1 0UU1501     0.0000 
     24 C1         24.1240    8.9480    7.3530 C.ar      1 0UU1501     0.0000 
     25 N1         23.9200   10.0900    8.0330 N.2       1 0UU1501     0.0000 
     26 C19        22.6820   10.4940    7.7570 C.2       1 0UU1501     0.0000 
     27 N4         22.1060   11.5800    8.2920 N.am      1 0UU1501     0.0000 
     28 C20        22.7520   12.3760    9.1550 C.2       1 0UU1501     0.0000 
     29 O1         23.9220   12.2560    9.5220 O.2       1 0UU1501     0.0000 
     30 C21        21.8790   13.4670    9.7910 C.ar      1 0UU1501     0.0000 
     31 C22        20.5450   13.6390    9.4170 C.ar      1 0UU1501     0.0000 
     32 C23        19.7510   14.6380   10.0050 C.ar      1 0UU1501     0.0000 
     33 C24        20.3180   15.4340   11.0000 C.ar      1 0UU1501     0.0000 
     34 C25        21.6460   15.2380   11.3840 C.ar      1 0UU1501     0.0000 
     35 C26        22.4290   14.2660   10.7920 C.ar      1 0UU1501     0.0000 
     36 H          16.8970   10.1391    5.8932 H         1 0UU1501     0.0000 
     37 H          18.3176    8.2539    6.2793 H         1 0UU1501     0.0000 
     38 H          17.7126    8.7945    7.8547 H         1 0UU1501     0.0000 
     39 H          20.1396    8.2524    7.9102 H         1 0UU1501     0.0000 
     40 H          19.8297    9.9501    8.3124 H         1 0UU1501     0.0000 
     41 H          18.4905   11.8468    4.9603 H         1 0UU1501     0.0000 
     42 H          18.8363   10.1801    4.4680 H         1 0UU1501     0.0000 
     43 H          20.2544   11.7172    6.6844 H         1 0UU1501     0.0000 
     44 H          20.9099   11.3431    5.0811 H         1 0UU1501     0.0000 
     45 H          20.6250    8.9132    5.5933 H         1 0UU1501     0.0000 
     46 H          22.0349    7.2808    5.3416 H         1 0UU1501     0.0000 
     47 H          22.8790    5.1408    4.7149 H         1 0UU1501     0.0000 
     48 H          24.3777    4.5552    5.4571 H         1 0UU1501     0.0000 
     49 H          25.6792    5.7546    3.7603 H         1 0UU1501     0.0000 
     50 H          23.9561    7.5274    3.3155 H         1 0UU1501     0.0000 
     51 H          23.0586    6.2987    2.4073 H         1 0UU1501     0.0000 
     52 H          25.9160    7.1924    1.8904 H         1 0UU1501     0.0000 
     53 H          24.4956    7.5924    0.9094 H         1 0UU1501     0.0000 
     54 H          25.9767    5.6911    0.0342 H         1 0UU1501     0.0000 
     55 H          24.2413    5.3510    0.1463 H         1 0UU1501     0.0000 
     56 H          26.4809    4.3649    1.9446 H         1 0UU1501     0.0000 
     57 H          25.2989    3.4156    1.0271 H         1 0UU1501     0.0000 
     58 H          23.5028    4.1213    2.5048 H         1 0UU1501     0.0000 
     59 H          24.8249    3.4347    3.4642 H         1 0UU1501     0.0000 
     60 H          25.9864    6.3441    6.3868 H         1 0UU1501     0.0000 
     61 H          26.0750    8.3006    7.8048 H         1 0UU1501     0.0000 
     62 H          21.1089   11.8160    8.0239 H         1 0UU1501     0.0000 
     63 H          20.1319   13.0247    8.6977 H         1 0UU1501     0.0000 
     64 H          18.7908   14.7730    9.7101 H         1 0UU1501     0.0000 
     65 H          19.7572   16.1672   11.4523 H         1 0UU1501     0.0000 
     66 H          22.0472   15.8382   12.1301 H         1 0UU1501     0.0000 
     67 H          23.4014   14.1298   11.0808 H         1 0UU1501     0.0000 
     68 H          17.5353   12.7000    9.7812 H         1 0UU1501     0.0000 
     69 H          16.0182   12.5047    9.2850 H         1 0UU1501     0.0000 
     70 H          16.5723   11.6536   10.5320 H         1 0UU1501     0.0000 
@<TRIPOS>BOND
     1    2    1 1    
     2   68    1 1    
     3   69    1 1    
     4   70    1 1    
     5    3    2 1    
     6    4    3 2    
     7    5    3 1    
     8    6    5 1    
     9    8    5 1    
    10   36    5 1    
    11    7    6 1    
    12   37    6 1    
    13   38    6 1    
    14   10    7 1    
    15   39    7 1    
    16   40    7 1    
    17    9    8 1    
    18   41    8 1    
    19   42    8 1    
    20   10    9 1    
    21   43    9 1    
    22   44    9 1    
    23   11   10 1    
    24   45   10 1    
    25   12   11 1    
    26   26   11 1    
    27   13   12 ar   
    28   24   12 ar   
    29   14   13 ar   
    30   46   13 1    
    31   15   14 1    
    32   22   14 ar   
    33   16   15 1    
    34   47   15 1    
    35   48   15 1    
    36   17   16 1    
    37   21   16 1    
    38   49   16 1    
    39   18   17 1    
    40   50   17 1    
    41   51   17 1    
    42   19   18 1    
    43   52   18 1    
    44   53   18 1    
    45   20   19 1    
    46   54   19 1    
    47   55   19 1    
    48   21   20 1    
    49   56   20 1    
    50   57   20 1    
    51   58   21 1    
    52   59   21 1    
    53   23   22 ar   
    54   60   22 1    
    55   24   23 ar   
    56   61   23 1    
    57   25   24 1    
    58   26   25 2    
    59   27   26 1    
    60   28   27 am   
    61   62   27 1    
    62   29   28 2    
    63   30   28 1    
    64   31   30 ar   
    65   35   30 ar   
    66   32   31 ar   
    67   63   31 1    
    68   33   32 ar   
    69   64   32 1    
    70   34   33 ar   
    71   65   33 1    
    72   35   34 ar   
    73   66   34 1    
    74   67   35 1    
@<TRIPOS>SUBSTRUCTURE
     1 0UU1501     1 GROUP   
@<TRIPOS>SET

