#    Name: 1uuo_BRF_1_INTS_M
#    Modification time : Tue Mar 25 07:07:12 2014

@<TRIPOS>MOLECULE
1uuo_BRF_1_INTS_M
   82     0     9     0     0
SMALL
NO_CHARGES


@<TRIPOS>ATOM
      1 CA          6.9275   20.1675  117.3740 C.3       3 GLC5        0.0000 
      2 CA          8.2640   20.9990  118.7190 C.3       9 GLL5        0.0000 
      3 CA          5.5910   19.3360  116.0290 C.3       6 GLP5        0.0000 
      4 CA          8.1420   18.9445  119.2150 C.3       3 GLC5        0.0000 
      5 CA          8.0200   16.8900  119.7110 C.3       6 GLP5        0.0000 
      6 CA          8.4145   24.1575  121.6770 C.3       3 GLC5        0.0000 
      7 CA          7.7120   25.1680  119.8060 C.3       9 GLL5        0.0000 
      8 CA          9.1170   23.1470  123.5480 C.3       6 GLP5        0.0000 
      9 NZ         11.0580   17.7630  120.1370 N.4       2 LYC4        0.0000 
     10 NZ         10.5900   19.1450  120.1820 N.4       8 LYL4        0.0000 
     11 NZ         11.7990   15.7450  118.9530 N.4       5 LYP4        0.0000 
     12 N          11.0580   17.7630  120.1370 N.am      1 SEC2        0.0000 
     13 N          10.5900   19.1450  120.1820 N.am      7 SEL2        0.0000 
     14 N          11.5260   16.3810  120.0920 N.am      4 SEP2        0.0000 
     15 NZ         11.7535   17.8935  118.0235 N.4       2 LYC4        0.0000 
     16 NZ         11.6250   19.3630  118.2400 N.4       8 LYL4        0.0000 
     17 N          11.7535   17.8935  118.0235 N.am      1 SEC2        0.0000 
     18 N          11.6250   19.3630  118.2400 N.am      7 SEL2        0.0000 
     19 N          11.8820   16.4240  117.8070 N.am      4 SEP2        0.0000 
     20 CA         14.2630   20.2765  119.0430 C.3       3 GLC5        0.0000 
     21 CA         13.2550   21.7990  119.8760 C.3       9 GLL5        0.0000 
     22 CA         15.2710   18.7540  118.2100 C.3       6 GLP5        0.0000 
     23 CA         15.3575   20.5080  119.3085 C.3       3 GLC5        0.0000 
     24 CA         15.4440   22.2620  120.4070 C.3       9 GLL5        0.0000 
     25 CA         16.2125   21.2780  122.0605 C.3       3 GLC5        0.0000 
     26 CA         16.9810   20.2940  123.7140 C.3       6 GLP5        0.0000 
     27 CA         16.7685   23.4565  121.2880 C.3       3 GLC5        0.0000 
     28 CA         18.0930   24.6510  122.1690 C.3       6 GLP5        0.0000 
     29 CA          1.5730   25.0685  119.0235 C.3       3 GLC5        0.0000 
     30 CA          3.0190   25.1420  117.7580 C.3       9 GLL5        0.0000 
     31 CA          0.1270   24.9950  120.2890 C.3       6 GLP5        0.0000 
     32 CA          2.3135   23.5625  117.7335 C.3       3 GLC5        0.0000 
     33 CA          1.6080   21.9830  117.7090 C.3       6 GLP5        0.0000 
     34 CA          3.4175   23.7295  119.2370 C.3       3 GLC5        0.0000 
     35 CA          3.8160   22.3170  120.7160 C.3       6 GLP5        0.0000 
     36 CA          3.8775   23.4010  117.0020 C.3       3 GLC5        0.0000 
     37 CA          4.7360   21.6600  116.2460 C.3       6 GLP5        0.0000 
     38 CA          7.2140   22.0320  119.9215 C.3       3 GLC5        0.0000 
     39 CA          5.5710   22.6020  120.9790 C.3       6 GLP5        0.0000 
     40 CA          7.1400   23.2043  119.9335 C.3       3 GLC5        0.0000 
     41 CA          9.3210   23.3790  119.0070 C.3       9 GLL5        0.0000 
     42 CA          9.9605   21.7963  117.3313 C.3       3 GLC5        0.0000 
     43 CA         10.8320   21.1720  115.7270 C.3       6 GLP5        0.0000 
     44 CA          9.0565   25.3888  117.9125 C.3       3 GLC5        0.0000 
     45 CA          9.4040   26.9710  116.9370 C.3       6 GLP5        0.0000 
     46 CA         11.0892   21.4902  117.5803 C.3       3 GLC5        0.0000 
     47 CA         11.9180   22.2450  119.5780 C.3       9 GLL5        0.0000 
     48 CA         12.4452   23.9823  117.8915 C.3       3 GLC5        0.0000 
     49 CA         13.0890   24.9990  116.2200 C.3       6 GLP5        0.0000 
     50 CA         10.8751   21.6284  121.1492 C.3       3 GLC5        0.0000 
     51 CA         10.7350   21.3100  122.9350 C.3       6 GLP5        0.0000 
     52 CA         11.8818   23.9220  121.4220 C.3       3 GLC5        0.0000 
     53 CA         11.6850   23.6860  119.5480 C.3       9 GLL5        0.0000 
     54 CA         11.5390   23.6900  123.1600 C.3       6 GLP5        0.0000 
     55 CA          5.7428   23.1088  116.8580 C.3       3 GLC5        0.0000 
     56 CA          7.3190   24.1310  117.5310 C.3       9 GLL5        0.0000 
     57 CA          6.3550   24.0960  120.3558 C.3       3 GLC5        0.0000 
     58 CA          8.2715   26.2805  118.3347 C.3       3 GLC5        0.0000 
     59 CA         14.2135   24.2295  118.3689 C.3       3 GLC5        0.0000 
     60 CA         14.0860   24.1440  120.1190 C.3       9 GLL5        0.0000 
     61 CA         14.5550   24.9150  116.6800 C.3       6 GLP5        0.0000 
     62 CA         16.4073   21.5467  119.9547 C.3       3 GLC5        0.0000 
     63 CA         14.3190   22.7050  120.1460 C.3       9 GLL5        0.0000 
     64 CA         17.9330   20.6100  119.6330 C.3       6 GLP5        0.0000 
     65 CA          5.9164   23.9214  119.4650 C.3       3 GLC5        0.0000 
     66 CA          7.8329   26.1059  117.4440 C.3       3 GLC5        0.0000 
     67 CA          5.7740   25.9240  118.4320 C.3       9 GLL5        0.0000 
     68 CA         13.8506   23.0395  121.8165 C.3       3 GLC5        0.0000 
     69 CA         13.0110   23.3490  123.3970 C.3       6 GLP5        0.0000 
     70 CA          3.1530   26.8333  120.0833 C.3       3 GLC5        0.0000 
     71 CA          4.5350   26.8210  118.2480 C.3       9 GLL5        0.0000 
     72 CA          2.4340   27.1030  122.0880 C.3       6 GLP5        0.0000 
     73 CA          3.1685   28.6037  119.9685 C.3       3 GLC5        0.0000 
     74 CA          4.7150   28.2640  118.4240 C.3       9 GLL5        0.0000 
     75 CA          2.1750   28.4930  121.5900 C.3       6 GLP5        0.0000 
     76 CA          2.1945   28.2155  119.7193 C.3       3 GLC5        0.0000 
     77 CA          2.3080   28.6450  117.9360 C.3       9 GLL5        0.0000 
     78 CA          2.6752   30.7615  117.7305 C.3       3 GLC5        0.0000 
     79 CA          2.3920   32.6180  117.3580 C.3       6 GLP5        0.0000 
     80 CA          3.1833   28.9327  116.0631 C.3       3 GLC5        0.0000 
     81 CA          3.6090   29.1650  118.2700 C.3       9 GLL5        0.0000 
     82 CA          3.4550   29.3140  114.0670 C.3       6 GLP5        0.0000 
@<TRIPOS>BOND
@<TRIPOS>SUBSTRUCTURE
     1 SEC2       12 GROUP        1 X    SEC  0     ROOT SEC X 2
     2 LYC4        9 GROUP        1 X    LYC  0     **** LYC X 4
     3 GLC5        1 GROUP        1 X    GLC  0     **** GLC X 6
     4 SEP2       14 GROUP        1 Y    SEP  0     ROOT SEP Y 9
     5 LYP4       11 GROUP        1 Y    LYP  0     **** LYP Y 11
     6 GLP5        3 GROUP        1 Y    GLP  0     **** GLP Y 13
     7 SEL2       13 GROUP        1 Z    SEL  0     ROOT SEL Z 16
     8 LYL4       10 GROUP        1 Z    LYL  0     **** LYL Z 18
     9 GLL5        2 GROUP        1 Z    GLL  0     **** GLL Z 20
@<TRIPOS>SET

