#    Name: 1uuo_BRF_1_ligand
#    Modification time : Tue Mar 25 07:07:12 2014

@<TRIPOS>MOLECULE
1uuo_BRF_1_ligand
   42    45     1     0     0
SMALL
NO_CHARGES


@<TRIPOS>ATOM
      1 C1          8.2640   20.9990  118.7190 C.3       1 BRF1397     0.0000 
      2 C2          9.4500   21.9250  119.0090 C.ar      1 BRF1397     0.0000 
      3 C3          9.3210   23.3790  119.0070 C.ar      1 BRF1397     0.0000 
      4 C4         10.7750   21.3720  119.2890 C.ar      1 BRF1397     0.0000 
      5 N1         10.4450   24.1850  119.2830 N.ar      1 BRF1397     0.0000 
      6 C5         10.9690   19.8650  119.3080 C.2       1 BRF1397     0.0000 
      7 C23         8.0970   24.2340  118.7690 C.ar      1 BRF1397     0.0000 
      8 C6         11.9180   22.2450  119.5780 C.ar      1 BRF1397     0.0000 
      9 C7         11.6850   23.6860  119.5480 C.ar      1 BRF1397     0.0000 
     10 C8          7.3190   24.1310  117.5310 C.ar      1 BRF1397     0.0000 
     11 C9          7.7120   25.1680  119.8060 C.ar      1 BRF1397     0.0000 
     12 O1         10.5900   19.1450  120.1820 O.co2     1 BRF1397     0.0000 
     13 O2         11.6250   19.3630  118.2400 O.co2     1 BRF1397     0.0000 
     14 C10        13.2550   21.7990  119.8760 C.ar      1 BRF1397     0.0000 
     15 C11        12.7640   24.6220  119.8200 C.ar      1 BRF1397     0.0000 
     16 C12         6.1800   24.9840  117.4090 C.ar      1 BRF1397     0.0000 
     17 C13         6.5660   26.0120  119.6590 C.ar      1 BRF1397     0.0000 
     18 C14        14.3190   22.7050  120.1460 C.ar      1 BRF1397     0.0000 
     19 C15        14.0860   24.1440  120.1190 C.ar      1 BRF1397     0.0000 
     20 C16         5.7740   25.9240  118.4320 C.ar      1 BRF1397     0.0000 
     21 F1         15.4440   22.2620  120.4070 F         1 BRF1397     0.0000 
     22 C17         4.5350   26.8210  118.2480 C.ar      1 BRF1397     0.0000 
     23 C18         3.2090   26.3060  117.9090 C.ar      1 BRF1397     0.0000 
     24 C19         4.7150   28.2640  118.4240 C.ar      1 BRF1397     0.0000 
     25 C20         2.1200   27.2310  117.7610 C.ar      1 BRF1397     0.0000 
     26 C21         2.3080   28.6450  117.9360 C.ar      1 BRF1397     0.0000 
     27 C22         3.6090   29.1650  118.2700 C.ar      1 BRF1397     0.0000 
     28 F2          3.0190   25.1420  117.7580 F         1 BRF1397     0.0000 
     29 H           7.5849   23.4950  116.8237 H         1 BRF1397     0.0000 
     30 H           8.2746   25.2201  120.6573 H         1 BRF1397     0.0000 
     31 H          13.4408   20.7840  119.8926 H         1 BRF1397     0.0000 
     32 H          12.5750   25.6175  119.7968 H         1 BRF1397     0.0000 
     33 H           5.6084   24.9330  116.5444 H         1 BRF1397     0.0000 
     34 H           6.2980   26.6579  120.3767 H         1 BRF1397     0.0000 
     35 H          14.8363   24.7771  120.3058 H         1 BRF1397     0.0000 
     36 H           5.6364   28.6173  118.6571 H         1 BRF1397     0.0000 
     37 H           1.1896   26.8755  117.5257 H         1 BRF1397     0.0000 
     38 H           1.5252   29.2782  117.8246 H         1 BRF1397     0.0000 
     39 H           3.7395   30.1587  118.3946 H         1 BRF1397     0.0000 
     40 H           8.5270   20.0350  118.7591 H         1 BRF1397     0.0000 
     41 H           7.5224   21.1281  119.3773 H         1 BRF1397     0.0000 
     42 H           7.8803   21.1605  117.8098 H         1 BRF1397     0.0000 
@<TRIPOS>BOND
     1    2    1 1    
     2   40    1 1    
     3   41    1 1    
     4   42    1 1    
     5    3    2 ar   
     6    4    2 ar   
     7    5    3 ar   
     8    7    3 1    
     9    6    4 1    
    10    8    4 ar   
    11    9    5 ar   
    12   12    6 ar   
    13   13    6 ar   
    14   10    7 ar   
    15   11    7 ar   
    16    9    8 ar   
    17   14    8 ar   
    18   15    9 ar   
    19   16   10 ar   
    20   29   10 1    
    21   17   11 ar   
    22   30   11 1    
    23   18   14 ar   
    24   31   14 1    
    25   19   15 ar   
    26   32   15 1    
    27   20   16 ar   
    28   33   16 1    
    29   20   17 ar   
    30   34   17 1    
    31   19   18 ar   
    32   21   18 1    
    33   35   19 1    
    34   22   20 1    
    35   23   22 ar   
    36   24   22 ar   
    37   25   23 ar   
    38   28   23 1    
    39   27   24 ar   
    40   36   24 1    
    41   26   25 ar   
    42   37   25 1    
    43   27   26 ar   
    44   38   26 1    
    45   39   27 1    
@<TRIPOS>SUBSTRUCTURE
     1 BRF1397     1 GROUP   
@<TRIPOS>SET

