#    Name: 2c5s_AMP_1_INTS_M
#    Modification time : Mon Mar 24 22:40:22 2014

@<TRIPOS>MOLECULE
2c5s_AMP_1_INTS_M
   53     0    12     0     0
SMALL
NO_CHARGES


@<TRIPOS>ATOM
      1 NZ         20.1045   66.9445   68.6310 N.4       3 LYC4        0.0000 
      2 NZ         19.7950   66.0770   69.8790 N.4      11 LYL4        0.0000 
      3 NZ         21.4660   68.6130   67.3110 N.4       7 LYP4        0.0000 
      4 N          20.1045   66.9445   68.6310 N.am      2 SEC2        0.0000 
      5 N          19.7950   66.0770   69.8790 N.am     10 SEL2        0.0000 
      6 N          20.4140   67.8120   67.3830 N.am      6 SEP2        0.0000 
      7 N          22.3215   65.3105   68.2975 N.am      2 SEC2        0.0000 
      8 N          21.1480   64.3620   68.5980 N.am     10 SEL2        0.0000 
      9 N          23.4950   66.2590   67.9970 N.am      6 SEP2        0.0000 
     10 CA         24.8215   62.8055   73.0860 C.3       4 GLC5        0.0000 
     11 CA         22.9000   63.5630   72.5580 C.3      12 GLL5        0.0000 
     12 CA         26.7430   62.0480   73.6140 C.3       8 GLP5        0.0000 
     13 N          23.2985   60.6785   73.6130 N.am      2 SEC2        0.0000 
     14 N          21.9960   61.4670   73.3720 N.am     10 SEL2        0.0000 
     15 N          24.6010   59.8900   73.8540 N.am      6 SEP2        0.0000 
     16 CA         20.3565   63.8305   75.6075 C.3       4 GLC5        0.0000 
     17 CA         22.2480   63.3870   74.7910 C.3      12 GLL5        0.0000 
     18 CA         18.4650   64.2740   76.4240 C.3       8 GLP5        0.0000 
     19 N          23.9675   61.2625   74.5920 N.am      2 SEC2        0.0000 
     20 N          23.3340   62.6350   75.3300 N.am     10 SEL2        0.0000 
     21 O          23.3655   62.5955   76.5335 O.2       1 ALC1        0.0000 
     22 O          23.3340   62.6350   75.3300 O.2       9 ALL1        0.0000 
     23 O          23.3970   62.5560   77.7370 O.2       5 ALP1        0.0000 
     24 CA         20.5390   69.7380   77.9580 C.3       4 GLC5        0.0000 
     25 CA         19.9200   67.9400   77.0700 C.3      12 GLL5        0.0000 
     26 CA         21.1580   71.5360   78.8460 C.3       8 GLP5        0.0000 
     27 O          18.5775   69.5900   78.0950 O.2       1 ALC1        0.0000 
     28 O          18.8400   68.7590   77.0220 O.2       9 ALL1        0.0000 
     29 O          18.3150   70.4210   79.1680 O.2       5 ALP1        0.0000 
     30 N          20.7275   68.7190   79.3075 N.am      2 SEC2        0.0000 
     31 N          20.6610   67.7920   78.2060 N.am     10 SEL2        0.0000 
     32 N          20.7940   69.6460   80.4090 N.am      6 SEP2        0.0000 
     33 CA         23.6620   67.0450   78.3330 C.3       4 GLC5        0.0000 
     34 CA         21.7250   66.9720   78.2650 C.3      12 GLL5        0.0000 
     35 CA         25.5990   67.1180   78.4010 C.3       8 GLP5        0.0000 
     36 CA         21.5865   64.9325   79.0015 C.3       4 GLC5        0.0000 
     37 CA         21.4480   62.8930   79.7380 C.3       8 GLP5        0.0000 
     38 CA         21.4380   67.3410   80.0360 C.3       4 GLC5        0.0000 
     39 CA         21.1510   67.7100   81.8070 C.3       8 GLP5        0.0000 
     40 CA         22.4370   68.1470   76.6940 C.3       4 GLC5        0.0000 
     41 CA         23.1490   69.3220   75.1230 C.3       8 GLP5        0.0000 
     42 CA         23.4040   65.5395   76.7555 C.3       4 GLC5        0.0000 
     43 CA         21.4980   66.2980   76.0280 C.3      12 GLL5        0.0000 
     44 CA         25.3100   64.7810   77.4830 C.3       8 GLP5        0.0000 
     45 CA         24.1253   63.0193   70.6513 C.3       4 GLC5        0.0000 
     46 CA         25.5610   62.4040   69.4670 C.3       8 GLP5        0.0000 
     47 CA         21.6175   61.6680   75.4383 C.3       4 GLC5        0.0000 
     48 CA         21.8640   62.8850   73.4240 C.3      12 GLL5        0.0000 
     49 CA         21.1790   60.2000   76.7690 C.3       8 GLP5        0.0000 
     50 CA         23.9102   64.4313   76.0740 C.3       4 GLC5        0.0000 
     51 CA         19.6378   65.5996   76.3379 C.3       4 GLC5        0.0000 
     52 CA         20.3260   67.1650   75.8810 C.3      12 GLL5        0.0000 
     53 CA         21.9798   68.1236   75.6874 C.3       4 GLC5        0.0000 
@<TRIPOS>BOND
@<TRIPOS>SUBSTRUCTURE
     1 ALC1       21 GROUP        1 X    ALC  0     ROOT ALC X 1
     2 SEC2        4 GROUP        1 X    SEC  0     **** SEC X 2
     3 LYC4        1 GROUP        1 X    LYC  0     **** LYC X 4
     4 GLC5       10 GROUP        1 X    GLC  0     **** GLC X 6
     5 ALP1       23 GROUP        1 Y    ALP  0     ROOT ALP Y 8
     6 SEP2        6 GROUP        1 Y    SEP  0     **** SEP Y 9
     7 LYP4        3 GROUP        1 Y    LYP  0     **** LYP Y 11
     8 GLP5       12 GROUP        1 Y    GLP  0     **** GLP Y 13
     9 ALL1       22 GROUP        1 Z    ALL  0     ROOT ALL Z 15
    10 SEL2        5 GROUP        1 Z    SEL  0     **** SEL Z 16
    11 LYL4        2 GROUP        1 Z    LYL  0     **** LYL Z 18
    12 GLL5       11 GROUP        1 Z    GLL  0     **** GLL Z 20
@<TRIPOS>SET

