#    Name: 2c5s_AMP_1_ligand
#    Modification time : Mon Mar 24 22:40:22 2014

@<TRIPOS>MOLECULE
2c5s_AMP_1_ligand
   35    37     1     0     0
SMALL
NO_CHARGES


@<TRIPOS>ATOM
      1 P          20.3990   64.6900   69.8760 P.3       1 AMP1392     0.0000 
      2 O1P        19.7950   66.0770   69.8790 O.co2     1 AMP1392     0.0000 
      3 O2P        21.1480   64.3620   68.5980 O.co2     1 AMP1392     0.0000 
      4 O3P        19.5030   63.5890   70.4120 O.co2     1 AMP1392     0.0000 
      5 O5'        21.5710   64.7920   70.9780 O.3       1 AMP1392     0.0000 
      6 C5'        22.4790   63.7060   71.1130 C.3       1 AMP1392     0.0000 
      7 C4'        22.9000   63.5630   72.5580 C.3       1 AMP1392     0.0000 
      8 O4'        23.1560   64.8370   73.1640 O.3       1 AMP1392     0.0000 
      9 C3'        21.8640   62.8850   73.4240 C.3       1 AMP1392     0.0000 
     10 O3'        21.9960   61.4670   73.3720 O.3       1 AMP1392     0.0000 
     11 C2'        22.2480   63.3870   74.7910 C.3       1 AMP1392     0.0000 
     12 O2'        23.3340   62.6350   75.3300 O.3       1 AMP1392     0.0000 
     13 C1'        22.7730   64.7760   74.5390 C.3       1 AMP1392     0.0000 
     14 N9         21.6800   65.7300   74.8390 N.pl3     1 AMP1392     0.0000 
     15 C8         20.7260   66.1620   73.9970 C.2       1 AMP1392     0.0000 
     16 N7         19.9030   67.0310   74.6200 N.2       1 AMP1392     0.0000 
     17 C5         20.3260   67.1650   75.8810 C.ar      1 AMP1392     0.0000 
     18 C6         19.9200   67.9400   77.0700 C.ar      1 AMP1392     0.0000 
     19 N6         18.8400   68.7590   77.0220 N.pl3     1 AMP1392     0.0000 
     20 N1         20.6610   67.7920   78.2060 N.ar      1 AMP1392     0.0000 
     21 C2         21.7250   66.9720   78.2650 C.ar      1 AMP1392     0.0000 
     22 N3         22.1490   66.2400   77.2200 N.ar      1 AMP1392     0.0000 
     23 C4         21.4980   66.2980   76.0280 C.ar      1 AMP1392     0.0000 
     24 H          23.3844   63.8569   70.5083 H         1 AMP1392     0.0000 
     25 H          22.0256   62.7564   70.7953 H         1 AMP1392     0.0000 
     26 H          23.8091   62.9552   72.6008 H         1 AMP1392     0.0000 
     27 H          20.9162   63.2497   73.1788 H         1 AMP1392     0.0000 
     28 H          21.4145   63.4395   75.4107 H         1 AMP1392     0.0000 
     29 H          23.5995   64.9450   75.1902 H         1 AMP1392     0.0000 
     30 H          20.6376   65.8862   73.0604 H         1 AMP1392     0.0000 
     31 H          18.6240   69.2522   77.8647 H         1 AMP1392     0.0000 
     32 H          18.3552   68.7972   76.1482 H         1 AMP1392     0.0000 
     33 H          22.2580   66.8988   79.1846 H         1 AMP1392     0.0000 
     34 H          22.7061   61.2486   74.0413 H         1 AMP1392     0.0000 
     35 H          22.9778   62.2353   76.1746 H         1 AMP1392     0.0000 
@<TRIPOS>BOND
     1    2    1 ar   
     2    3    1 ar   
     3    4    1 ar   
     4    5    1 1    
     5    6    5 1    
     6    7    6 1    
     7   24    6 1    
     8   25    6 1    
     9    8    7 1    
    10    9    7 1    
    11   26    7 1    
    12   13    8 1    
    13   10    9 1    
    14   11    9 1    
    15   27    9 1    
    16   34   10 1    
    17   12   11 1    
    18   13   11 1    
    19   28   11 1    
    20   35   12 1    
    21   14   13 1    
    22   29   13 1    
    23   15   14 1    
    24   23   14 1    
    25   16   15 2    
    26   30   15 1    
    27   17   16 1    
    28   18   17 ar   
    29   23   17 ar   
    30   19   18 1    
    31   20   18 ar   
    32   31   19 1    
    33   32   19 1    
    34   21   20 ar   
    35   22   21 ar   
    36   33   21 1    
    37   23   22 ar   
@<TRIPOS>SUBSTRUCTURE
     1 AMP1392     1 GROUP   
@<TRIPOS>SET

