#    Name: 3n9z_HC9_2_INTS_M
#    Modification time : Tue Mar 25 01:06:37 2014

@<TRIPOS>MOLECULE
3n9z_HC9_2_INTS_M
   73     0     3     0     0
SMALL
NO_CHARGES


@<TRIPOS>ATOM
      1 CA         59.4105    9.9980  -25.6980 C.3       1 GLC5        0.0000 
      2 CA         61.3390    9.1370  -25.9650 C.3       3 GLL5        0.0000 
      3 CA         57.4820   10.8590  -25.4310 C.3       2 GLP5        0.0000 
      4 CA         60.9390    9.2720  -23.8450 C.3       1 GLC5        0.0000 
      5 CA         60.5390    9.4070  -21.7250 C.3       2 GLP5        0.0000 
      6 CA         59.7030   11.1390  -25.8865 C.3       1 GLC5        0.0000 
      7 CA         61.2080   10.3570  -26.8960 C.3       3 GLL5        0.0000 
      8 CA         58.1980   11.9210  -24.8770 C.3       2 GLP5        0.0000 
      9 CA         64.3480    9.1405  -29.7965 C.3       1 GLC5        0.0000 
     10 CA         63.3640    9.8570  -28.0150 C.3       3 GLL5        0.0000 
     11 CA         65.3320    8.4240  -31.5780 C.3       2 GLP5        0.0000 
     12 CA         66.2535    5.5040  -26.9615 C.3       1 GLC5        0.0000 
     13 CA         64.8440    6.7950  -26.1340 C.3       3 GLL5        0.0000 
     14 CA         67.6630    4.2130  -27.7890 C.3       2 GLP5        0.0000 
     15 CA         59.6160    4.7660  -22.8955 C.3       1 GLC5        0.0000 
     16 CA         61.3780    5.0860  -24.1010 C.3       3 GLL5        0.0000 
     17 CA         57.8540    4.4460  -21.6900 C.3       2 GLP5        0.0000 
     18 CA         66.2355    4.0330  -26.4155 C.3       1 GLC5        0.0000 
     19 CA         64.8080    3.8530  -25.0420 C.3       3 GLL5        0.0000 
     20 CA         60.6060    3.3850  -27.1445 C.3       1 GLC5        0.0000 
     21 CA         61.9400    3.2700  -25.7800 C.3       3 GLL5        0.0000 
     22 CA         59.2720    3.5000  -28.5090 C.3       2 GLP5        0.0000 
     23 CA         59.6925    5.8665  -27.9170 C.3       1 GLC5        0.0000 
     24 CA         61.3030    7.3770  -27.7870 C.3       3 GLL5        0.0000 
     25 CA         58.0820    4.3560  -28.0470 C.3       2 GLP5        0.0000 
     26 CA         59.6190    8.3840  -28.2170 C.3       1 GLC5        0.0000 
     27 CA         57.9350    9.3910  -28.6470 C.3       2 GLP5        0.0000 
     28 CA         60.6880    3.0445  -20.4420 C.3       1 GLC5        0.0000 
     29 CA         60.8410    2.2090  -22.5170 C.3       3 GLL5        0.0000 
     30 CA         60.5350    3.8800  -18.3670 C.3       2 GLP5        0.0000 
     31 CA         59.3515    1.1305  -21.9480 C.3       1 GLC5        0.0000 
     32 CA         57.8620    0.0520  -21.3790 C.3       2 GLP5        0.0000 
     33 CA         59.0190    2.0265  -23.5220 C.3       1 GLC5        0.0000 
     34 CA         57.1970    1.8440  -24.5270 C.3       2 GLP5        0.0000 
     35 CA         59.3475    3.3275  -22.1035 C.3       1 GLC5        0.0000 
     36 CA         61.8230    2.6320  -19.5980 C.3       1 GLC5        0.0000 
     37 CA         63.1110    1.3840  -20.8290 C.3       3 GLL5        0.0000 
     38 CA         65.2435    3.8695  -19.7445 C.3       1 GLC5        0.0000 
     39 CA         65.0350    1.7100  -19.1860 C.3       3 GLL5        0.0000 
     40 CA         65.4520    6.0290  -20.3030 C.3       2 GLP5        0.0000 
     41 CA         67.5095   -0.0580  -17.7200 C.3       1 GLC5        0.0000 
     42 CA         66.1770    0.9670  -18.5020 C.3       3 GLL5        0.0000 
     43 CA         68.8420   -1.0830  -16.9380 C.3       2 GLP5        0.0000 
     44 CA         64.1285    4.3470  -19.0905 C.3       1 GLC5        0.0000 
     45 CA         64.1680    2.3940  -18.1320 C.3       3 GLL5        0.0000 
     46 CA         64.0890    6.3000  -20.0490 C.3       2 GLP5        0.0000 
     47 CA         63.6390    4.0135  -16.9260 C.3       1 GLC5        0.0000 
     48 CA         63.1100    5.6330  -15.7200 C.3       2 GLP5        0.0000 
     49 CA         62.3515    3.1370  -18.2495 C.3       1 GLC5        0.0000 
     50 CA         64.0615    1.4840  -16.2550 C.3       1 GLC5        0.0000 
     51 CA         63.9550    0.5740  -14.3780 C.3       2 GLP5        0.0000 
     52 CA         59.6043    9.5690  -27.5388 C.3       1 GLC5        0.0000 
     53 CA         64.8370   10.9825  -27.4992 C.3       1 GLC5        0.0000 
     54 CA         62.5980   10.9190  -27.2260 C.3       3 GLL5        0.0000 
     55 CA         66.6930   11.5770  -27.3780 C.3       2 GLP5        0.0000 
     56 CA         63.9450   10.1285  -25.7312 C.3       1 GLC5        0.0000 
     57 CA         64.9090    9.8690  -23.8420 C.3       2 GLP5        0.0000 
     58 CA         65.3503    9.9335  -27.2410 C.3       1 GLC5        0.0000 
     59 CA         63.4050    8.5740  -27.2030 C.3       3 GLL5        0.0000 
     60 CA         64.6674    8.7058  -25.2305 C.3       1 GLC5        0.0000 
     61 CA         64.6100    8.0060  -27.0050 C.3       3 GLL5        0.0000 
     62 CA         63.4866    8.8081  -24.8851 C.3       1 GLC5        0.0000 
     63 CA         62.4010    6.9310  -25.5560 C.3       3 GLL5        0.0000 
     64 CA         61.3177    6.9253  -22.9900 C.3       1 GLC5        0.0000 
     65 CA         61.1170    6.1750  -25.1410 C.3       3 GLL5        0.0000 
     66 CA         61.3880    8.2200  -21.3590 C.3       2 GLP5        0.0000 
     67 CA         66.3340    2.9627  -23.6247 C.3       1 GLC5        0.0000 
     68 CA         68.0500    2.5960  -22.7310 C.3       2 GLP5        0.0000 
     69 CA         62.9968   -0.2763  -19.2037 C.3       1 GLC5        0.0000 
     70 CA         62.3020   -1.6120  -17.9530 C.3       2 GLP5        0.0000 
     71 CA         66.8675    2.4308  -19.6380 C.3       1 GLC5        0.0000 
     72 CA         68.1290    3.5230  -20.4320 C.3       2 GLP5        0.0000 
     73 CA         63.4517    0.2200  -18.3060 C.3       1 GLC5        0.0000 
@<TRIPOS>BOND
@<TRIPOS>SUBSTRUCTURE
     1 GLC5        1 GROUP        1 X    GLC  0     ROOT GLC X 6
     2 GLP5        3 GROUP        1 Y    GLP  0     ROOT GLP Y 13
     3 GLL5        2 GROUP        1 Z    GLL  0     ROOT GLL Z 20
@<TRIPOS>SET

