#    Name: 3n9z_HC9_2_ligand
#    Modification time : Tue Mar 25 01:06:37 2014

@<TRIPOS>MOLECULE
3n9z_HC9_2_ligand
   75    78     1     0     0
SMALL
NO_CHARGES


@<TRIPOS>ATOM
      1 C1         61.3390    9.1370  -25.9650 C.3       1 HC9602      0.0000 
      2 O1         62.4960   12.1240  -28.0040 O.3       1 HC9602      0.0000 
      3 C2         61.2080   10.3570  -26.8960 C.3       1 HC9602      0.0000 
      4 O2         62.4130   -0.3910  -22.3470 O.3       1 HC9602      0.0000 
      5 C3         62.5980   10.9190  -27.2260 C.3       1 HC9602      0.0000 
      6 C4         63.3640    9.8570  -28.0150 C.3       1 HC9602      0.0000 
      7 C5         63.4050    8.5740  -27.2030 C.2       1 HC9602      0.0000 
      8 C6         64.6100    8.0060  -27.0050 C.2       1 HC9602      0.0000 
      9 C7         64.8440    6.7950  -26.1340 C.3       1 HC9602      0.0000 
     10 C8         63.5580    5.9880  -25.9420 C.3       1 HC9602      0.0000 
     11 C9         62.4010    6.9310  -25.5560 C.3       1 HC9602      0.0000 
     12 C10        62.1160    7.9900  -26.6360 C.3       1 HC9602      0.0000 
     13 C11        61.1170    6.1750  -25.1410 C.3       1 HC9602      0.0000 
     14 C12        61.3780    5.0860  -24.1010 C.3       1 HC9602      0.0000 
     15 C13        62.4470    4.0950  -24.5750 C.3       1 HC9602      0.0000 
     16 C14        63.7150    4.9000  -24.8730 C.3       1 HC9602      0.0000 
     17 C15        64.8080    3.8530  -25.0420 C.3       1 HC9602      0.0000 
     18 C16        64.4280    2.8060  -23.9950 C.3       1 HC9602      0.0000 
     19 C17        63.0140    3.1560  -23.5000 C.3       1 HC9602      0.0000 
     20 C18        61.9400    3.2700  -25.7800 C.3       1 HC9602      0.0000 
     21 C19        61.3030    7.3770  -27.7870 C.3       1 HC9602      0.0000 
     22 C20        62.2040    1.8910  -23.1560 C.3       1 HC9602      0.0000 
     23 C21        60.8410    2.2090  -22.5170 C.3       1 HC9602      0.0000 
     24 C22        63.0100    0.9140  -22.2800 C.3       1 HC9602      0.0000 
     25 C23        63.1110    1.3840  -20.8290 C.3       1 HC9602      0.0000 
     26 C24        64.2720    0.7350  -20.0800 C.3       1 HC9602      0.0000 
     27 C25        65.0350    1.7100  -19.1860 C.3       1 HC9602      0.0000 
     28 C26        66.1770    0.9670  -18.5020 C.3       1 HC9602      0.0000 
     29 C27        64.1680    2.3940  -18.1320 C.3       1 HC9602      0.0000 
     30 H          60.3430    8.7845  -25.6978 H         1 HC9602      0.0000 
     31 H          61.8603    9.4371  -25.0562 H         1 HC9602      0.0000 
     32 H          60.6203   11.1205  -26.4009 H         1 HC9602      0.0000 
     33 H          60.7165   10.0537  -27.8125 H         1 HC9602      0.0000 
     34 H          63.1194   11.0850  -26.3005 H         1 HC9602      0.0000 
     35 H          64.3718   10.2051  -28.1970 H         1 HC9602      0.0000 
     36 H          62.8595    9.6772  -28.9547 H         1 HC9602      0.0000 
     37 H          65.4803    8.3794  -27.4547 H         1 HC9602      0.0000 
     38 H          65.2118    7.1117  -25.1547 H         1 HC9602      0.0000 
     39 H          65.5992    6.1520  -26.5931 H         1 HC9602      0.0000 
     40 H          63.2995    5.5152  -26.8815 H         1 HC9602      0.0000 
     41 H          62.7390    7.4941  -24.6463 H         1 HC9602      0.0000 
     42 H          60.6726    5.7238  -26.0350 H         1 HC9602      0.0000 
     43 H          60.4006    6.8986  -24.7366 H         1 HC9602      0.0000 
     44 H          60.4503    4.5440  -23.9069 H         1 HC9602      0.0000 
     45 H          61.7094    5.5497  -23.1698 H         1 HC9602      0.0000 
     46 H          63.9497    5.4175  -23.8877 H         1 HC9602      0.0000 
     47 H          65.7483    4.2706  -24.8049 H         1 HC9602      0.0000 
     48 H          64.7557    3.4285  -26.0073 H         1 HC9602      0.0000 
     49 H          65.1135    2.8512  -23.1723 H         1 HC9602      0.0000 
     50 H          64.4163    1.8328  -24.4438 H         1 HC9602      0.0000 
     51 H          63.1577    3.7523  -22.5865 H         1 HC9602      0.0000 
     52 H          61.9982    1.3648  -24.1124 H         1 HC9602      0.0000 
     53 H          64.0257    0.8778  -22.6899 H         1 HC9602      0.0000 
     54 H          62.1734    1.1491  -20.3109 H         1 HC9602      0.0000 
     55 H          63.2381    2.4732  -20.8139 H         1 HC9602      0.0000 
     56 H          64.9692    0.2977  -20.8094 H         1 HC9602      0.0000 
     57 H          63.8845   -0.0884  -19.4625 H         1 HC9602      0.0000 
     58 H          65.4826    2.4788  -19.8190 H         1 HC9602      0.0000 
     59 H          62.6263    2.6155  -26.0971 H         1 HC9602      0.0000 
     60 H          61.1189    2.7465  -25.5526 H         1 HC9602      0.0000 
     61 H          61.7094    3.8533  -26.5588 H         1 HC9602      0.0000 
     62 H          61.7945    6.6278  -28.2310 H         1 HC9602      0.0000 
     63 H          60.4299    7.0072  -27.4692 H         1 HC9602      0.0000 
     64 H          61.0952    8.0516  -28.4953 H         1 HC9602      0.0000 
     65 H          60.9410    2.7248  -21.6662 H         1 HC9602      0.0000 
     66 H          60.2643    2.7550  -23.1247 H         1 HC9602      0.0000 
     67 H          60.3307    1.3775  -22.2974 H         1 HC9602      0.0000 
     68 H          66.8176    0.5793  -19.1649 H         1 HC9602      0.0000 
     69 H          66.7044    1.5682  -17.9017 H         1 HC9602      0.0000 
     70 H          65.8436    0.2104  -17.9395 H         1 HC9602      0.0000 
     71 H          64.6995    3.0238  -17.5656 H         1 HC9602      0.0000 
     72 H          63.4290    2.9251  -18.5466 H         1 HC9602      0.0000 
     73 H          63.7427    1.7323  -17.5146 H         1 HC9602      0.0000 
     74 H          63.4160   12.2778  -28.3645 H         1 HC9602      0.0000 
     75 H          61.7012   -0.3862  -21.6446 H         1 HC9602      0.0000 
@<TRIPOS>BOND
     1    3    1 1    
     2   12    1 1    
     3   30    1 1    
     4   31    1 1    
     5    5    2 1    
     6   74    2 1    
     7    5    3 1    
     8   32    3 1    
     9   33    3 1    
    10   24    4 1    
    11   75    4 1    
    12    6    5 1    
    13   34    5 1    
    14    7    6 1    
    15   35    6 1    
    16   36    6 1    
    17    8    7 2    
    18   12    7 1    
    19    9    8 1    
    20   37    8 1    
    21   10    9 1    
    22   38    9 1    
    23   39    9 1    
    24   11   10 1    
    25   16   10 1    
    26   40   10 1    
    27   12   11 1    
    28   13   11 1    
    29   41   11 1    
    30   21   12 1    
    31   14   13 1    
    32   42   13 1    
    33   43   13 1    
    34   15   14 1    
    35   44   14 1    
    36   45   14 1    
    37   16   15 1    
    38   19   15 1    
    39   20   15 1    
    40   17   16 1    
    41   46   16 1    
    42   18   17 1    
    43   47   17 1    
    44   48   17 1    
    45   19   18 1    
    46   49   18 1    
    47   50   18 1    
    48   22   19 1    
    49   51   19 1    
    50   59   20 1    
    51   60   20 1    
    52   61   20 1    
    53   62   21 1    
    54   63   21 1    
    55   64   21 1    
    56   23   22 1    
    57   24   22 1    
    58   52   22 1    
    59   65   23 1    
    60   66   23 1    
    61   67   23 1    
    62   25   24 1    
    63   53   24 1    
    64   26   25 1    
    65   54   25 1    
    66   55   25 1    
    67   27   26 1    
    68   56   26 1    
    69   57   26 1    
    70   28   27 1    
    71   29   27 1    
    72   58   27 1    
    73   68   28 1    
    74   69   28 1    
    75   70   28 1    
    76   71   29 1    
    77   72   29 1    
    78   73   29 1    
@<TRIPOS>SUBSTRUCTURE
     1 HC9602      1 GROUP   
@<TRIPOS>SET

