#    Name: 4gu6_10N_1_INTS_M
#    Modification time : Mon Mar 24 23:43:43 2014

@<TRIPOS>MOLECULE
4gu6_10N_1_INTS_M
   75     0     9     0     0
SMALL
NO_CHARGES


@<TRIPOS>ATOM
      1 N          24.5535   -7.3035  -38.4420 N.am      2 SEC2        0.0000 
      2 N          23.6300   -6.7070  -39.4170 N.am      8 SEL2        0.0000 
      3 N          25.4770   -7.9000  -37.4670 N.am      5 SEP2        0.0000 
      4 CA         21.8690   -5.6275  -37.4170 C.3       3 GLC5        0.0000 
      5 CA         22.8430   -5.6860  -39.2580 C.3       9 GLL5        0.0000 
      6 CA         20.8950   -5.5690  -35.5760 C.3       6 GLP5        0.0000 
      7 CA         24.7800   -5.7405  -38.5365 C.3       3 GLC5        0.0000 
      8 CA         26.7170   -5.7950  -37.8150 C.3       6 GLP5        0.0000 
      9 CA         20.4275   -8.0240  -41.9900 C.3       3 GLC5        0.0000 
     10 CA         20.6900   -6.4950  -43.5060 C.3       9 GLL5        0.0000 
     11 CA         20.1650   -9.5530  -40.4740 C.3       6 GLP5        0.0000 
     12 CA         21.3090   -3.4685  -46.0265 C.3       3 GLC5        0.0000 
     13 CA         20.1470   -5.0740  -45.4900 C.3       9 GLL5        0.0000 
     14 CA         22.4710   -1.8630  -46.5630 C.3       6 GLP5        0.0000 
     15 CA         19.2940   -3.5535  -48.3795 C.3       3 GLC5        0.0000 
     16 CA         19.2240   -4.4770  -46.3330 C.3       9 GLL5        0.0000 
     17 CA         19.3640   -2.6300  -50.4260 C.3       6 GLP5        0.0000 
     18 CA         20.2045   -2.7460  -46.3920 C.3       3 GLC5        0.0000 
     19 CA         21.1850   -1.0150  -46.4510 C.3       6 GLP5        0.0000 
     20 CA         17.2100   -3.3835  -44.6980 C.3       3 GLC5        0.0000 
     21 CA         17.8820   -4.6630  -46.1010 C.3       9 GLL5        0.0000 
     22 CA         16.5380   -2.1040  -43.2950 C.3       6 GLP5        0.0000 
     23 CA         18.6850   -3.9585  -43.7330 C.3       3 GLC5        0.0000 
     24 CA         18.3130   -5.9760  -44.2610 C.3       9 GLL5        0.0000 
     25 CA         19.0570   -1.9410  -43.2050 C.3       6 GLP5        0.0000 
     26 CA         15.6140   -8.1525  -40.5190 C.3       3 GLC5        0.0000 
     27 CA         17.4290   -7.3530  -40.5820 C.3       9 GLL5        0.0000 
     28 CA         13.7990   -8.9520  -40.4560 C.3       6 GLP5        0.0000 
     29 CA         18.6255   -8.2235  -39.8050 C.3       3 GLC5        0.0000 
     30 CA         19.8220   -9.0940  -39.0280 C.3       6 GLP5        0.0000 
     31 CA         17.3700   -6.5615  -39.1505 C.3       3 GLC5        0.0000 
     32 CA         17.3110   -5.7700  -37.7190 C.3       6 GLP5        0.0000 
     33 CA         18.5335  -10.0350  -43.7535 C.3       3 GLC5        0.0000 
     34 CA         17.5610   -8.1620  -43.4390 C.3       9 GLL5        0.0000 
     35 CA         19.5060  -11.9080  -44.0680 C.3       6 GLP5        0.0000 
     36 CA         18.8630   -8.8575  -41.9565 C.3       3 GLC5        0.0000 
     37 CA         23.7115   -8.4940  -38.7105 C.3       3 GLC5        0.0000 
     38 CA         23.6570   -7.3990  -40.5400 C.3       9 GLL5        0.0000 
     39 CA         23.7660   -9.5890  -36.8810 C.3       6 GLP5        0.0000 
     40 CA         22.0080   -7.5665  -39.6285 C.3       3 GLC5        0.0000 
     41 CA         20.3590   -7.7340  -38.7170 C.3       6 GLP5        0.0000 
     42 O          25.0100   -9.3655  -39.9740 O.2       1 ALC1        0.0000 
     43 O          24.3970   -8.4790  -40.8980 O.2       7 ALL1        0.0000 
     44 O          25.6230  -10.2520  -39.0500 O.2       4 ALP1        0.0000 
     45 CA         25.5740   -7.5925  -41.5970 C.3       3 GLC5        0.0000 
     46 CA         24.0890   -8.8670  -42.1670 C.3       9 GLL5        0.0000 
     47 CA         27.0590   -6.3180  -41.0270 C.3       6 GLP5        0.0000 
     48 CA         20.3940   -3.7820  -37.9525 C.3       3 GLC5        0.0000 
     49 CA         21.1340   -4.1480  -40.0250 C.3       9 GLL5        0.0000 
     50 CA         19.6540   -3.4160  -35.8800 C.3       6 GLP5        0.0000 
     51 CA         19.5420   -2.7365  -39.8030 C.3       3 GLC5        0.0000 
     52 CA         17.9500   -1.3250  -39.5810 C.3       6 GLP5        0.0000 
     53 CA         20.0955   -3.0445  -41.6150 C.3       3 GLC5        0.0000 
     54 N          18.9605   -3.3590  -39.1435 N.am      2 SEC2        0.0000 
     55 N          20.4720   -3.2580  -39.8250 N.am      8 SEL2        0.0000 
     56 N          17.4490   -3.4600  -38.4620 N.am      5 SEP2        0.0000 
     57 CA         20.6587   -5.1363  -47.7017 C.3       3 GLC5        0.0000 
     58 CA         21.6320   -5.4970  -49.4920 C.3       6 GLP5        0.0000 
     59 CA         19.3143   -3.4540  -44.4264 C.3       3 GLC5        0.0000 
     60 CA         25.1495   -6.7750  -41.0545 C.3       3 GLC5        0.0000 
     61 CA         22.8230   -7.0650  -41.6240 C.3       9 GLL5        0.0000 
     62 CA         24.4071   -6.9174  -43.4103 C.3       3 GLC5        0.0000 
     63 CA         25.2810   -5.6240  -44.6640 C.3       6 GLP5        0.0000 
     64 CA         21.8491   -8.8819  -41.3152 C.3       3 GLC5        0.0000 
     65 CA         24.9068  -12.0215  -41.9630 C.3       3 GLC5        0.0000 
     66 CA         25.9100  -10.5450  -42.3020 C.3       9 GLL5        0.0000 
     67 CA         23.5970  -12.9620  -41.3200 C.3       6 GLP5        0.0000 
     68 CA         24.4910  -12.4385  -42.8143 C.3       3 GLC5        0.0000 
     69 CA         25.9680  -12.1730  -44.0430 C.3       9 GLL5        0.0000 
     70 CA         23.9462  -11.4876  -42.2794 C.3       3 GLC5        0.0000 
     71 CA         24.1800  -10.5850  -43.9770 C.3       9 GLL5        0.0000 
     72 CA         23.3516   -3.9196  -40.7042 C.3       3 GLC5        0.0000 
     73 CA         21.9770   -5.2720  -40.2670 C.3       9 GLL5        0.0000 
     74 CA         25.0470   -2.9040  -41.0820 C.3       6 GLP5        0.0000 
     75 CA         21.0076   -6.3346  -39.5217 C.3       3 GLC5        0.0000 
@<TRIPOS>BOND
@<TRIPOS>SUBSTRUCTURE
     1 ALC1       42 GROUP        1 X    ALC  0     ROOT ALC X 1
     2 SEC2        1 GROUP        1 X    SEC  0     **** SEC X 2
     3 GLC5        4 GROUP        1 X    GLC  0     **** GLC X 6
     4 ALP1       44 GROUP        1 Y    ALP  0     ROOT ALP Y 8
     5 SEP2        3 GROUP        1 Y    SEP  0     **** SEP Y 9
     6 GLP5        6 GROUP        1 Y    GLP  0     **** GLP Y 13
     7 ALL1       43 GROUP        1 Z    ALL  0     ROOT ALL Z 15
     8 SEL2        2 GROUP        1 Z    SEL  0     **** SEL Z 16
     9 GLL5        5 GROUP        1 Z    GLL  0     **** GLL Z 20
@<TRIPOS>SET

