#    Name: 4gu6_10N_1_ligand
#    Modification time : Mon Mar 24 23:43:43 2014

@<TRIPOS>MOLECULE
4gu6_10N_1_ligand
   50    53     1     0     0
SMALL
NO_CHARGES


@<TRIPOS>ATOM
      1 N1         23.6300   -6.7070  -39.4170 N.ar      1 10N701      0.0000 
      2 C2         22.8430   -5.6860  -39.2580 C.ar      1 10N701      0.0000 
      3 C3         21.9770   -5.2720  -40.2670 C.ar      1 10N701      0.0000 
      4 C4         21.9470   -5.9660  -41.4930 C.ar      1 10N701      0.0000 
      5 N5         21.0770   -5.5250  -42.4790 N.3       1 10N701      0.0000 
      6 C6         20.6900   -6.4950  -43.5060 C.3       1 10N701      0.0000 
      7 C7         19.6910   -5.8400  -44.4350 C.ar      1 10N701      0.0000 
      8 C8         20.1470   -5.0740  -45.4900 C.ar      1 10N701      0.0000 
      9 C9         19.2240   -4.4770  -46.3330 C.ar      1 10N701      0.0000 
     10 C10        17.8820   -4.6630  -46.1010 C.ar      1 10N701      0.0000 
     11 N11        17.4700   -5.3940  -45.0900 N.ar      1 10N701      0.0000 
     12 C12        18.3130   -5.9760  -44.2610 C.ar      1 10N701      0.0000 
     13 N13        17.7720   -6.7340  -43.2310 N.pl3     1 10N701      0.0000 
     14 S14        17.3180   -6.0310  -41.8050 S.o2      1 10N701      0.0000 
     15 O15        18.2670   -5.0310  -41.5760 O.2       1 10N701      0.0000 
     16 O16        15.9740   -5.6840  -42.0250 O.2       1 10N701      0.0000 
     17 C17        17.4290   -7.3530  -40.5820 C.3       1 10N701      0.0000 
     18 C18        17.5610   -8.1620  -43.4390 C.3       1 10N701      0.0000 
     19 C19        22.8230   -7.0650  -41.6240 C.ar      1 10N701      0.0000 
     20 C20        23.6570   -7.3990  -40.5400 C.ar      1 10N701      0.0000 
     21 N21        24.3970   -8.4790  -40.8980 N.pl3     1 10N701      0.0000 
     22 C22        24.0890   -8.8670  -42.1670 C.2       1 10N701      0.0000 
     23 C23        23.1320   -8.0440  -42.6680 C.2       1 10N701      0.0000 
     24 C24        24.7330  -10.0160  -42.8340 C.ar      1 10N701      0.0000 
     25 C25        25.9100  -10.5450  -42.3020 C.ar      1 10N701      0.0000 
     26 C26        26.5230  -11.6170  -42.9100 C.ar      1 10N701      0.0000 
     27 C27        25.9680  -12.1730  -44.0430 C.ar      1 10N701      0.0000 
     28 C28        24.8020  -11.6570  -44.5740 C.ar      1 10N701      0.0000 
     29 C29        24.1800  -10.5850  -43.9770 C.ar      1 10N701      0.0000 
     30 C30        21.1340   -4.1480  -40.0250 C.1       1 10N701      0.0000 
     31 N31        20.4720   -3.2580  -39.8250 N.1       1 10N701      0.0000 
     32 H          22.8288   -5.1321  -38.3615 H         1 10N701      0.0000 
     33 H          20.2281   -7.3711  -43.0553 H         1 10N701      0.0000 
     34 H          21.5553   -6.8091  -44.0862 H         1 10N701      0.0000 
     35 H          21.1502   -4.9484  -45.6480 H         1 10N701      0.0000 
     36 H          19.5440   -3.9023  -47.1218 H         1 10N701      0.0000 
     37 H          17.2004   -4.2048  -46.7539 H         1 10N701      0.0000 
     38 H          25.0563   -8.9172  -40.3295 H         1 10N701      0.0000 
     39 H          22.7143   -8.0490  -43.5023 H         1 10N701      0.0000 
     40 H          26.3144  -10.1258  -41.4514 H         1 10N701      0.0000 
     41 H          27.3958  -12.0043  -42.5196 H         1 10N701      0.0000 
     42 H          26.4262  -12.9805  -44.4984 H         1 10N701      0.0000 
     43 H          24.3957  -12.0812  -45.4263 H         1 10N701      0.0000 
     44 H          23.3099  -10.2007  -44.3683 H         1 10N701      0.0000 
     45 H          18.3561   -7.7223  -40.5174 H         1 10N701      0.0000 
     46 H          17.1755   -7.0358  -39.6682 H         1 10N701      0.0000 
     47 H          16.8240   -8.1173  -40.8053 H         1 10N701      0.0000 
     48 H          18.4169   -8.6385  -43.6401 H         1 10N701      0.0000 
     49 H          17.1641   -8.6001  -42.6325 H         1 10N701      0.0000 
     50 H          16.9408   -8.3383  -44.2034 H         1 10N701      0.0000 
@<TRIPOS>BOND
     1    2    1 ar   
     2   20    1 ar   
     3    3    2 ar   
     4   32    2 1    
     5    4    3 ar   
     6   30    3 1    
     7    5    4 1    
     8   19    4 ar   
     9    6    5 1    
    10    7    6 1    
    11   33    6 1    
    12   34    6 1    
    13    8    7 ar   
    14   12    7 ar   
    15    9    8 ar   
    16   35    8 1    
    17   10    9 ar   
    18   36    9 1    
    19   11   10 ar   
    20   37   10 1    
    21   12   11 ar   
    22   13   12 1    
    23   14   13 1    
    24   18   13 1    
    25   15   14 2    
    26   16   14 2    
    27   17   14 1    
    28   45   17 1    
    29   46   17 1    
    30   47   17 1    
    31   48   18 1    
    32   49   18 1    
    33   50   18 1    
    34   20   19 ar   
    35   23   19 1    
    36   21   20 1    
    37   22   21 1    
    38   38   21 1    
    39   23   22 2    
    40   24   22 1    
    41   39   23 1    
    42   25   24 ar   
    43   29   24 ar   
    44   26   25 ar   
    45   40   25 1    
    46   27   26 ar   
    47   41   26 1    
    48   28   27 ar   
    49   42   27 1    
    50   29   28 ar   
    51   43   28 1    
    52   44   29 1    
    53   31   30 3    
@<TRIPOS>SUBSTRUCTURE
     1 10N701      1 GROUP   
@<TRIPOS>SET

