#    Name: 3t11_3T1_1_INTS_M
#    Modification time : Mon Mar 24 19:00:17 2014

@<TRIPOS>MOLECULE
3t11_3T1_1_INTS_M
   62     0     6     0     0
SMALL
NO_CHARGES


@<TRIPOS>ATOM
      1 O          -6.2170    4.0815   18.1805 O.2       1 ALC1        0.0000 
      2 O          -4.7880    4.5790   18.5520 O.2       5 ALL1        0.0000 
      3 O          -7.6460    3.5840   17.8090 O.2       3 ALP1        0.0000 
      4 CA         -6.4755    4.4870   16.2900 C.3       2 GLC5        0.0000 
      5 CA         -5.1670    5.6650   17.5710 C.3       6 GLL5        0.0000 
      6 CA         -7.7840    3.3090   15.0090 C.3       4 GLP5        0.0000 
      7 CA          1.7360    9.2080   11.4655 C.3       2 GLC5        0.0000 
      8 CA          0.4500    7.9760   12.3950 C.3       6 GLL5        0.0000 
      9 CA          3.0220   10.4400   10.5360 C.3       4 GLP5        0.0000 
     10 CA          2.6625    7.8665   11.6375 C.3       2 GLC5        0.0000 
     11 CA          0.9220    6.9940   11.5140 C.3       6 GLL5        0.0000 
     12 CA          4.4030    8.7390   11.7610 C.3       4 GLP5        0.0000 
     13 CA         -1.9725    4.0045   12.3140 C.3       2 GLC5        0.0000 
     14 CA         -0.5640    5.3670   12.5370 C.3       6 GLL5        0.0000 
     15 CA         -3.3810    2.6420   12.0910 C.3       4 GLP5        0.0000 
     16 CA         -3.9325    9.0295   21.0765 C.3       2 GLC5        0.0000 
     17 CA         -4.9000    9.1320   19.2980 C.3       6 GLL5        0.0000 
     18 CA         -2.9650    8.9270   22.8550 C.3       4 GLP5        0.0000 
     19 CA         -1.8920    9.8770   18.6370 C.3       2 GLC5        0.0000 
     20 CA         -3.6570   10.3540   19.4880 C.3       6 GLL5        0.0000 
     21 CA         -0.1270    9.4000   17.7860 C.3       4 GLP5        0.0000 
     22 CA         -3.7520   10.2620   21.2975 C.3       2 GLC5        0.0000 
     23 CA         -3.8470   10.1700   23.1070 C.3       4 GLP5        0.0000 
     24 CA         -5.0150    9.7045   21.4830 C.3       2 GLC5        0.0000 
     25 CA         -6.1830    9.2390   19.8590 C.3       6 GLL5        0.0000 
     26 CA        -11.3755    7.0740   19.5055 C.3       2 GLC5        0.0000 
     27 CA         -9.4150    7.4310   20.0540 C.3       6 GLL5        0.0000 
     28 CA        -13.3360    6.7170   18.9570 C.3       4 GLP5        0.0000 
     29 CA         -9.4160    5.5815   20.5325 C.3       2 GLC5        0.0000 
     30 CA         -9.4170    3.7320   21.0110 C.3       4 GLP5        0.0000 
     31 CA         -8.2075    6.7925   21.4590 C.3       2 GLC5        0.0000 
     32 CA         -7.0000    6.1540   22.8640 C.3       4 GLP5        0.0000 
     33 CA         -3.0540    4.4537   13.2152 C.3       2 GLC5        0.0000 
     34 CA         -2.0400    5.9470   14.4770 C.3       6 GLL5        0.0000 
     35 CA         -1.1060    7.7498   17.1067 C.3       2 GLC5        0.0000 
     36 CA         -1.5530    6.2640   15.8920 C.3       6 GLL5        0.0000 
     37 CA         -0.6738    6.7337   21.9278 C.3       2 GLC5        0.0000 
     38 CA         -1.8640    5.6830   20.4480 C.3       6 GLL5        0.0000 
     39 CA          0.7660    7.9240   22.7650 C.3       4 GLP5        0.0000 
     40 CA         -2.9231    7.0686   22.1819 C.3       2 GLC5        0.0000 
     41 CA         -2.3630    5.4040   21.7330 C.3       6 GLL5        0.0000 
     42 CA         -5.5230    5.4425   22.1152 C.3       2 GLC5        0.0000 
     43 CA         -3.6490    4.8770   21.9270 C.3       6 GLL5        0.0000 
     44 CA         -5.0795    3.6740   22.4872 C.3       2 GLC5        0.0000 
     45 CA         -4.4430    4.5850   20.8060 C.3       6 GLL5        0.0000 
     46 CA         -6.1130    2.6170   23.6080 C.3       4 GLP5        0.0000 
     47 CA         -1.3297    7.8212   11.6947 C.3       2 GLC5        0.0000 
     48 CA         -0.9980    6.3350   13.4310 C.3       6 GLL5        0.0000 
     49 CA         -1.9120    8.6550    9.9910 C.3       4 GLP5        0.0000 
     50 CA          1.0647    6.7207   14.1328 C.3       2 GLC5        0.0000 
     51 CA         -0.4970    7.6400   13.3660 C.3       6 GLL5        0.0000 
     52 CA          2.8770    6.4540   14.8670 C.3       4 GLP5        0.0000 
     53 CA         -0.6130    8.0700   10.9727 C.3       2 GLC5        0.0000 
     54 CA          1.7815    6.9695   13.4108 C.3       2 GLC5        0.0000 
     55 CA          1.5637    4.8598   10.5640 C.3       2 GLC5        0.0000 
     56 CA          0.4030    5.6930   11.5920 C.3       6 GLL5        0.0000 
     57 CA          2.4650    3.3760    9.5750 C.3       4 GLP5        0.0000 
     58 CA         -0.9962    7.0925   11.0277 C.3       2 GLC5        0.0000 
     59 CA          1.3982    5.9920   13.4658 C.3       2 GLC5        0.0000 
     60 CA         -0.4004    5.4961   10.1630 C.3       2 GLC5        0.0000 
     61 CA         -0.8500    5.1370    8.2810 C.3       4 GLP5        0.0000 
     62 CA         -6.8590    7.0350   21.1048 C.3       2 GLC5        0.0000 
@<TRIPOS>BOND
@<TRIPOS>SUBSTRUCTURE
     1 ALC1        1 GROUP        1 X    ALC  0     ROOT ALC X 1
     2 GLC5        4 GROUP        1 X    GLC  0     **** GLC X 6
     3 ALP1        3 GROUP        1 Y    ALP  0     ROOT ALP Y 8
     4 GLP5        6 GROUP        1 Y    GLP  0     **** GLP Y 13
     5 ALL1        2 GROUP        1 Z    ALL  0     ROOT ALL Z 15
     6 GLL5        5 GROUP        1 Z    GLL  0     **** GLL Z 20
@<TRIPOS>SET

