#    Name: 3t11_3T1_1_ligand
#    Modification time : Mon Mar 24 19:00:18 2014

@<TRIPOS>MOLECULE
3t11_3T1_1_ligand
   55    59     1     0     0
SMALL
NO_CHARGES


@<TRIPOS>ATOM
      1 C1         -4.4140    6.2000   15.3370 C.2       1 3T1101      0.0000 
      2 O1         -5.6200    6.1590   15.0940 O.2       1 3T1101      0.0000 
      3 C2         -3.4140    6.5840   14.2020 C.3       1 3T1101      0.0000 
      4 C3         -2.0400    5.9470   14.4770 C.3       1 3T1101      0.0000 
      5 C4         -1.5530    6.2640   15.8920 C.3       1 3T1101      0.0000 
      6 N5         -2.0250    5.7090   18.1880 N.pl3     1 3T1101      0.0000 
      7 C6         -1.8640    5.6830   20.4480 C.ar      1 3T1101      0.0000 
      8 C7         -2.3630    5.4040   21.7330 C.ar      1 3T1101      0.0000 
      9 C8         -3.6490    4.8770   21.9270 C.ar      1 3T1101      0.0000 
     10 C9         -4.4430    4.5850   20.8060 C.ar      1 3T1101      0.0000 
     11 N10        -4.7880    4.5790   18.5520 N.pl3     1 3T1101      0.0000 
     12 C11        -5.1670    5.6650   17.5710 C.3       1 3T1101      0.0000 
     13 C12        -0.9980    6.3350   13.4310 C.ar      1 3T1101      0.0000 
     14 C13        -0.4970    7.6400   13.3660 C.ar      1 3T1101      0.0000 
     15 C14         0.4500    7.9760   12.3950 C.ar      1 3T1101      0.0000 
     16 C15         0.9220    6.9940   11.5140 C.ar      1 3T1101      0.0000 
     17 C16         0.4030    5.6930   11.5920 C.ar      1 3T1101      0.0000 
     18 C17        -0.5640    5.3670   12.5370 C.ar      1 3T1101      0.0000 
     19 C18        -5.5250    6.9660   18.3550 C.ar      1 3T1101      0.0000 
     20 C19        -4.5840    7.9770   18.5620 C.ar      1 3T1101      0.0000 
     21 C20        -4.9000    9.1320   19.2980 C.ar      1 3T1101      0.0000 
     22 CL1        -3.6570   10.3540   19.4880 Cl        1 3T1101      0.0000 
     23 C21        -6.1830    9.2390   19.8590 C.ar      1 3T1101      0.0000 
     24 O21        -6.6050   10.3250   20.6020 O.3       1 3T1101      0.0000 
     25 C22        -7.1270    8.2350   19.6670 C.ar      1 3T1101      0.0000 
     26 O22        -8.3760    8.4360   20.2620 O.3       1 3T1101      0.0000 
     27 C23        -6.7810    7.0950   18.9280 C.ar      1 3T1101      0.0000 
     28 C24        -9.4150    7.4310   20.0540 C.3       1 3T1101      0.0000 
     29 C25        -2.6170    5.9350   16.9630 C.2       1 3T1101      0.0000 
     30 C26        -2.6380    5.3950   19.3400 C.ar      1 3T1101      0.0000 
     31 C27        -3.9140    4.8300   19.5260 C.ar      1 3T1101      0.0000 
     32 C28        -3.9930    5.9290   16.6470 C.2       1 3T1101      0.0000 
     33 H          -3.3160    7.6591   14.1750 H         1 3T1101      0.0000 
     34 H          -3.8003    6.2201   13.2614 H         1 3T1101      0.0000 
     35 H          -2.1743    4.8488   14.4191 H         1 3T1101      0.0000 
     36 H          -1.3034    7.3255   15.9597 H         1 3T1101      0.0000 
     37 H          -0.6515    5.6840   16.1031 H         1 3T1101      0.0000 
     38 H          -0.9403    5.7985   18.2084 H         1 3T1101      0.0000 
     39 H          -0.9331    6.0964   20.3459 H         1 3T1101      0.0000 
     40 H          -1.7645    5.5930   22.5570 H         1 3T1101      0.0000 
     41 H          -4.0017    4.7086   22.8662 H         1 3T1101      0.0000 
     42 H          -5.3760    4.2063   20.9158 H         1 3T1101      0.0000 
     43 H          -5.2463    3.6775   18.4012 H         1 3T1101      0.0000 
     44 H          -6.0143    5.3648   17.0052 H         1 3T1101      0.0000 
     45 H          -0.8251    8.3484   14.0307 H         1 3T1101      0.0000 
     46 H           0.7989    8.9361   12.3261 H         1 3T1101      0.0000 
     47 H           1.6361    7.2221   10.8223 H         1 3T1101      0.0000 
     48 H           0.7464    4.9726   10.9377 H         1 3T1101      0.0000 
     49 H          -0.9518    4.4188   12.5713 H         1 3T1101      0.0000 
     50 H          -3.6330    7.8773   18.1668 H         1 3T1101      0.0000 
     51 H          -7.4799    6.3404   18.8120 H         1 3T1101      0.0000 
     52 H          -9.6336    7.3179   19.0848 H         1 3T1101      0.0000 
     53 H          -9.1384    6.5340   20.3987 H         1 3T1101      0.0000 
     54 H         -10.2657    7.6744   20.5199 H         1 3T1101      0.0000 
     55 H          -7.5745   10.1561   20.7792 H         1 3T1101      0.0000 
@<TRIPOS>BOND
     1    2    1 2    
     2    3    1 1    
     3   32    1 1    
     4    4    3 1    
     5   33    3 1    
     6   34    3 1    
     7    5    4 1    
     8   13    4 1    
     9   35    4 1    
    10   29    5 1    
    11   36    5 1    
    12   37    5 1    
    13   29    6 1    
    14   30    6 1    
    15   38    6 1    
    16    8    7 ar   
    17   30    7 ar   
    18   39    7 1    
    19    9    8 ar   
    20   40    8 1    
    21   10    9 ar   
    22   41    9 1    
    23   31   10 ar   
    24   42   10 1    
    25   12   11 1    
    26   31   11 1    
    27   43   11 1    
    28   19   12 1    
    29   32   12 1    
    30   44   12 1    
    31   14   13 ar   
    32   18   13 ar   
    33   15   14 ar   
    34   45   14 1    
    35   16   15 ar   
    36   46   15 1    
    37   17   16 ar   
    38   47   16 1    
    39   18   17 ar   
    40   48   17 1    
    41   49   18 1    
    42   20   19 ar   
    43   27   19 ar   
    44   21   20 ar   
    45   50   20 1    
    46   22   21 1    
    47   23   21 ar   
    48   24   23 1    
    49   25   23 ar   
    50   55   24 1    
    51   26   25 1    
    52   27   25 ar   
    53   28   26 1    
    54   51   27 1    
    55   52   28 1    
    56   53   28 1    
    57   54   28 1    
    58   32   29 2    
    59   31   30 ar   
@<TRIPOS>SUBSTRUCTURE
     1 3T1101      1 GROUP   
@<TRIPOS>SET

