#    Name: 1oiy_N41_1_INTS_M
#    Modification time : Mon Mar 24 20:12:49 2014

@<TRIPOS>MOLECULE
1oiy_N41_1_INTS_M
   63     0     9     0     0
SMALL
NO_CHARGES


@<TRIPOS>ATOM
      1 CA          7.0075   44.5575   48.1325 C.3       3 GLC5        0.0000 
      2 CA          7.8810   43.6980   49.5180 C.3       9 GLL5        0.0000 
      3 CA          6.1340   45.4170   46.7470 C.3       6 GLP5        0.0000 
      4 CA          8.2800   43.2110   51.1040 C.3       3 GLC5        0.0000 
      5 CA          8.6790   42.7240   52.6900 C.3       6 GLP5        0.0000 
      6 CA          4.3000   45.1140   49.8440 C.3       3 GLC5        0.0000 
      7 CA          4.8200   45.4890   51.6160 C.3       9 GLL5        0.0000 
      8 CA          3.7800   44.7390   48.0720 C.3       6 GLP5        0.0000 
      9 CA          4.9310   47.4390   50.5885 C.3       3 GLC5        0.0000 
     10 CA          5.0420   49.3890   49.5610 C.3       6 GLP5        0.0000 
     11 CA          4.5255   47.9920   51.8535 C.3       3 GLC5        0.0000 
     12 CA          3.9450   46.0810   52.7150 C.3       9 GLL5        0.0000 
     13 CA          5.1060   49.9030   50.9920 C.3       6 GLP5        0.0000 
     14 CA          1.3260   46.6035   50.9160 C.3       3 GLC5        0.0000 
     15 CA          2.4610   45.7880   52.4180 C.3       9 GLL5        0.0000 
     16 CA          0.1910   47.4190   49.4140 C.3       6 GLP5        0.0000 
     17 CA          0.5940   47.9240   52.9340 C.3       3 GLC5        0.0000 
     18 CA          1.5010   46.0030   53.6110 C.3       9 GLL5        0.0000 
     19 CA         -0.3130   49.8450   52.2570 C.3       6 GLP5        0.0000 
     20 CA          4.7915   46.7815   56.6295 C.3       3 GLC5        0.0000 
     21 CA          3.5120   46.1240   55.1780 C.3       9 GLL5        0.0000 
     22 CA          6.0710   47.4390   58.0810 C.3       6 GLP5        0.0000 
     23 CA          6.1330   41.7660   51.7100 C.3       3 GLC5        0.0000 
     24 CA          5.4670   42.1260   49.7170 C.3       9 GLL5        0.0000 
     25 CA          6.7990   41.4060   53.7030 C.3       6 GLP5        0.0000 
     26 O           1.8045   39.7025   51.0460 O.2       1 ALC1        0.0000 
     27 O           1.8670   39.6660   49.4840 O.2       7 ALL1        0.0000 
     28 O           1.7420   39.7390   52.6080 O.2       4 ALP1        0.0000 
     29 CA          6.6295   45.4325   48.8565 C.3       3 GLC5        0.0000 
     30 CA          7.1250   45.4480   50.9660 C.3       9 GLL5        0.0000 
     31 O          11.9385   45.3970   50.1805 O.2       1 ALC1        0.0000 
     32 O          10.8140   45.4530   50.8500 O.2       7 ALL1        0.0000 
     33 O          13.0630   45.3410   49.5110 O.2       4 ALP1        0.0000 
     34 N          10.2740   43.0225   49.0100 N.am      2 SEC2        0.0000 
     35 N           9.1970   44.0060   49.7220 N.am      8 SEL2        0.0000 
     36 N          11.3510   42.0390   48.2980 N.am      5 SEP2        0.0000 
     37 O           8.3180   41.8250   48.1550 O.2       1 ALC1        0.0000 
     38 O           7.5800   42.6460   48.6920 O.2       7 ALL1        0.0000 
     39 O           9.0560   41.0040   47.6180 O.2       4 ALP1        0.0000 
     40 CA          7.3585   39.8425   47.2415 C.3       3 GLC5        0.0000 
     41 CA          5.9500   41.3700   47.4870 C.3       9 GLL5        0.0000 
     42 CA          8.7670   38.3150   46.9960 C.3       6 GLP5        0.0000 
     43 CA          1.3013   44.1553   55.0125 C.3       3 GLC5        0.0000 
     44 CA          0.8040   42.5290   55.7400 C.3       6 GLP5        0.0000 
     45 CA          2.0711   47.7804   55.1472 C.3       3 GLC5        0.0000 
     46 CA          1.4870   49.6080   55.5630 C.3       6 GLP5        0.0000 
     47 CA          4.0143   42.7670   48.0010 C.3       3 GLC5        0.0000 
     48 CA          3.8070   40.8290   48.4620 C.3       9 GLL5        0.0000 
     49 CA          5.1152   39.3070   48.6540 C.3       3 GLC5        0.0000 
     50 CA          5.9820   37.8190   49.3780 C.3       6 GLP5        0.0000 
     51 CA          4.3093   43.2810   48.8685 C.3       3 GLC5        0.0000 
     52 CA          4.2100   41.5200   49.6130 C.3       9 GLL5        0.0000 
     53 CA          5.4102   39.8210   49.5215 C.3       3 GLC5        0.0000 
     54 CA          7.1025   47.2475   50.0888 C.3       3 GLC5        0.0000 
     55 CA          6.3750   48.8680   49.0910 C.3       6 GLP5        0.0000 
     56 CA          9.5038   46.4587   49.4985 C.3       3 GLC5        0.0000 
     57 CA          8.5350   45.8060   51.2070 C.3       9 GLL5        0.0000 
     58 CA          9.9720   47.5070   48.1220 C.3       6 GLP5        0.0000 
     59 CA          8.6810   44.0225   51.7524 C.3       3 GLC5        0.0000 
     60 CA          9.5360   45.0150   50.5430 C.3       9 GLL5        0.0000 
     61 CA          4.9645   43.2280   48.0675 C.3       3 GLC5        0.0000 
     62 CA          6.3480   42.0640   48.6390 C.3       9 GLL5        0.0000 
     63 CA          6.0655   39.7680   48.7205 C.3       3 GLC5        0.0000 
@<TRIPOS>BOND
@<TRIPOS>SUBSTRUCTURE
     1 ALC1       26 GROUP        1 X    ALC  0     ROOT ALC X 1
     2 SEC2       34 GROUP        1 X    SEC  0     **** SEC X 2
     3 GLC5        1 GROUP        1 X    GLC  0     **** GLC X 6
     4 ALP1       28 GROUP        1 Y    ALP  0     ROOT ALP Y 8
     5 SEP2       36 GROUP        1 Y    SEP  0     **** SEP Y 9
     6 GLP5        3 GROUP        1 Y    GLP  0     **** GLP Y 13
     7 ALL1       27 GROUP        1 Z    ALL  0     ROOT ALL Z 15
     8 SEL2       35 GROUP        1 Z    SEL  0     **** SEL Z 16
     9 GLL5        2 GROUP        1 Z    GLL  0     **** GLL Z 20
@<TRIPOS>SET

