#    Name: 1oiy_N41_1_ligand
#    Modification time : Mon Mar 24 20:12:49 2014

@<TRIPOS>MOLECULE
1oiy_N41_1_ligand
   49    52     1     0     0
SMALL
NO_CHARGES


@<TRIPOS>ATOM
      1 C2          7.8810   43.6980   49.5180 C.ar      1 N411298     0.0000 
      2 C10         4.8200   45.4890   51.6160 C.3       1 N411298     0.0000 
      3 C11         3.9450   46.0810   52.7150 C.3       1 N411298     0.0000 
      4 C12         2.4610   45.7880   52.4180 C.3       1 N411298     0.0000 
      5 C13         1.5010   46.0030   53.6110 C.3       1 N411298     0.0000 
      6 C14         2.0960   45.5600   54.9590 C.3       1 N411298     0.0000 
      7 C15         3.5120   46.1240   55.1780 C.3       1 N411298     0.0000 
      8 C16         4.4390   45.5910   54.0960 C.3       1 N411298     0.0000 
      9 C19         4.6900   40.7610   47.3980 C.ar      1 N411298     0.0000 
     10 C20         3.8070   40.8290   48.4620 C.ar      1 N411298     0.0000 
     11 C21         4.2100   41.5200   49.6130 C.ar      1 N411298     0.0000 
     12 C22         5.4670   42.1260   49.7170 C.ar      1 N411298     0.0000 
     13 N25         1.8670   39.6660   49.4840 N.am      1 N411298     0.0000 
     14 N1          6.8780   44.4040   50.1330 N.ar      1 N411298     0.0000 
     15 C6          7.1250   45.4480   50.9660 C.ar      1 N411298     0.0000 
     16 O6          6.0940   46.1500   51.5500 O.3       1 N411298     0.0000 
     17 C5          8.5350   45.8060   51.2070 C.ar      1 N411298     0.0000 
     18 N7          9.1820   46.7570   51.9440 N.2       1 N411298     0.0000 
     19 N9         10.8140   45.4530   50.8500 N.pl3     1 N411298     0.0000 
     20 C4          9.5360   45.0150   50.5430 C.ar      1 N411298     0.0000 
     21 N3          9.1970   44.0060   49.7220 N.ar      1 N411298     0.0000 
     22 N2          7.5800   42.6460   48.6920 N.pl3     1 N411298     0.0000 
     23 C17         6.3480   42.0640   48.6390 C.ar      1 N411298     0.0000 
     24 C18         5.9500   41.3700   47.4870 C.ar      1 N411298     0.0000 
     25 C23         2.4220   40.2080   48.3820 C.2       1 N411298     0.0000 
     26 C8         10.5380   46.5190   51.7020 C.2       1 N411298     0.0000 
     27 O24         1.8160   40.2550   47.3140 O.2       1 N411298     0.0000 
     28 H           4.2723   45.5785   50.6641 H         1 N411298     0.0000 
     29 H           4.9371   44.4128   51.8213 H         1 N411298     0.0000 
     30 H           4.0847   47.1735   52.6808 H         1 N411298     0.0000 
     31 H           2.3670   44.7435   52.0747 H         1 N411298     0.0000 
     32 H           2.1326   46.4295   51.5822 H         1 N411298     0.0000 
     33 H           0.5778   45.4415   53.4258 H         1 N411298     0.0000 
     34 H           1.2415   47.0667   53.6669 H         1 N411298     0.0000 
     35 H           2.1386   44.4699   54.9891 H         1 N411298     0.0000 
     36 H           1.4470   45.9046   55.7659 H         1 N411298     0.0000 
     37 H           3.8686   45.8130   56.1509 H         1 N411298     0.0000 
     38 H           3.4730   47.2039   55.1267 H         1 N411298     0.0000 
     39 H           5.4425   45.9581   54.2585 H         1 N411298     0.0000 
     40 H           4.4322   44.5103   54.1061 H         1 N411298     0.0000 
     41 H           4.4285   40.2641   46.5360 H         1 N411298     0.0000 
     42 H           3.5518   41.5839   50.4164 H         1 N411298     0.0000 
     43 H           5.7342   42.6093   50.5772 H         1 N411298     0.0000 
     44 H           2.4299   39.6760   50.3105 H         1 N411298     0.0000 
     45 H           0.9417   39.3021   49.3771 H         1 N411298     0.0000 
     46 H          11.6144   45.1353   50.5739 H         1 N411298     0.0000 
     47 H           8.3451   42.2685   48.0645 H         1 N411298     0.0000 
     48 H           6.6007   41.3060   46.6850 H         1 N411298     0.0000 
     49 H          11.2543   47.0745   52.1116 H         1 N411298     0.0000 
@<TRIPOS>BOND
     1   14    1 ar   
     2   21    1 ar   
     3   22    1 1    
     4    3    2 1    
     5   16    2 1    
     6   28    2 1    
     7   29    2 1    
     8    4    3 1    
     9    8    3 1    
    10   30    3 1    
    11    5    4 1    
    12   31    4 1    
    13   32    4 1    
    14    6    5 1    
    15   33    5 1    
    16   34    5 1    
    17    7    6 1    
    18   35    6 1    
    19   36    6 1    
    20    8    7 1    
    21   37    7 1    
    22   38    7 1    
    23   39    8 1    
    24   40    8 1    
    25   10    9 ar   
    26   24    9 ar   
    27   41    9 1    
    28   11   10 ar   
    29   25   10 1    
    30   12   11 ar   
    31   42   11 1    
    32   23   12 ar   
    33   43   12 1    
    34   25   13 am   
    35   44   13 1    
    36   45   13 1    
    37   15   14 ar   
    38   16   15 1    
    39   17   15 ar   
    40   18   17 1    
    41   20   17 ar   
    42   26   18 2    
    43   20   19 1    
    44   26   19 1    
    45   46   19 1    
    46   21   20 ar   
    47   23   22 1    
    48   47   22 1    
    49   24   23 ar   
    50   48   24 1    
    51   27   25 2    
    52   49   26 1    
@<TRIPOS>SUBSTRUCTURE
     1 N411298     1 GROUP   
@<TRIPOS>SET

