#    Name: 2r4b_GW7_1_INTS_M
#    Modification time : Mon Mar 24 23:07:18 2014

@<TRIPOS>MOLECULE
2r4b_GW7_1_INTS_M
  100     0     6     0     0
SMALL
NO_CHARGES


@<TRIPOS>ATOM
      1 CA        -22.8065   15.7765   -1.0500 C.3       2 GLC5        0.0000 
      2 CA        -21.2290   16.9550   -0.2150 C.3       6 GLL5        0.0000 
      3 CA        -24.3840   14.5980   -1.8850 C.3       4 GLP5        0.0000 
      4 CA        -22.1970   15.9400    0.7475 C.3       2 GLC5        0.0000 
      5 CA        -23.1650   14.9250    1.7100 C.3       4 GLP5        0.0000 
      6 CA        -20.0090   15.3855    0.0270 C.3       2 GLC5        0.0000 
      7 CA        -18.7890   13.8160    0.2690 C.3       4 GLP5        0.0000 
      8 CA        -22.4605   20.8995    0.3770 C.3       2 GLC5        0.0000 
      9 CA        -21.1630   20.4860   -0.9790 C.3       6 GLL5        0.0000 
     10 CA        -23.7580   21.3130    1.7330 C.3       4 GLP5        0.0000 
     11 CA        -15.9505   20.4875    1.4390 C.3       2 GLC5        0.0000 
     12 CA        -17.8790   20.2610    0.8450 C.3       6 GLL5        0.0000 
     13 CA        -14.0220   20.7140    2.0330 C.3       4 GLP5        0.0000 
     14 CA        -17.1605   22.0335    1.4010 C.3       2 GLC5        0.0000 
     15 CA        -16.4420   23.8060    1.9570 C.3       4 GLP5        0.0000 
     16 CA        -17.0530   20.8440   -1.7995 C.3       2 GLC5        0.0000 
     17 CA        -15.9390   19.2400   -0.7650 C.3       6 GLL5        0.0000 
     18 CA        -18.1670   22.4480   -2.8340 C.3       4 GLP5        0.0000 
     19 CA        -15.6835   18.9525   -3.5245 C.3       2 GLC5        0.0000 
     20 CA        -15.0580   18.6330   -1.6400 C.3       6 GLL5        0.0000 
     21 CA        -16.3090   19.2720   -5.4090 C.3       4 GLP5        0.0000 
     22 CA        -14.1770   13.3550   -1.6025 C.3       2 GLC5        0.0000 
     23 CA        -14.8470   13.4680   -3.2520 C.3       6 GLL5        0.0000 
     24 CA        -13.5070   13.2420    0.0470 C.3       4 GLP5        0.0000 
     25 CA        -16.1220   13.7770   -1.7725 C.3       2 GLC5        0.0000 
     26 CA        -17.3970   14.0860   -0.2930 C.3       4 GLP5        0.0000 
     27 CA        -14.8350   11.5255   -2.9860 C.3       2 GLC5        0.0000 
     28 CA        -14.8230    9.5830   -2.7200 C.3       4 GLP5        0.0000 
     29 CA        -15.5855   12.7405   -5.0285 C.3       2 GLC5        0.0000 
     30 CA        -16.3240   12.0130   -6.8050 C.3       4 GLP5        0.0000 
     31 CA        -15.2810   14.5130   -4.5975 C.3       2 GLC5        0.0000 
     32 CA        -15.7150   15.5580   -5.9430 C.3       4 GLP5        0.0000 
     33 N         -14.2555   11.5830   -4.5445 N.am      1 SEC2        0.0000 
     34 N         -13.9320   12.9160   -4.0530 N.am      5 SEL2        0.0000 
     35 N         -14.5790   10.2500   -5.0360 N.am      3 SEP2        0.0000 
     36 CA         -8.4345   13.5175   -4.3225 C.3       2 GLC5        0.0000 
     37 CA         -9.5310   14.4680   -5.8100 C.3       6 GLL5        0.0000 
     38 CA         -7.3380   12.5670   -2.8350 C.3       4 GLP5        0.0000 
     39 CA        -11.1100   16.0300   -2.0230 C.3       2 GLC5        0.0000 
     40 CA        -11.3370   15.7550   -4.1410 C.3       6 GLL5        0.0000 
     41 CA        -10.8830   16.3050    0.0950 C.3       4 GLP5        0.0000 
     42 CA        -10.7715   16.5285   -5.7775 C.3       2 GLC5        0.0000 
     43 CA        -10.2060   17.3020   -7.4140 C.3       4 GLP5        0.0000 
     44 CA        -12.5900   16.2755   -5.5710 C.3       2 GLC5        0.0000 
     45 CA        -13.8430   16.7960   -7.0010 C.3       4 GLP5        0.0000 
     46 CA        -12.9265   16.5025   -0.0875 C.3       2 GLC5        0.0000 
     47 CA        -14.9700   16.7000   -0.2700 C.3       6 GLL5        0.0000 
     48 CA        -14.8305   15.3170    3.2785 C.3       2 GLC5        0.0000 
     49 CA        -16.3200   16.4120    2.0130 C.3       6 GLL5        0.0000 
     50 CA        -13.3410   14.2220    4.5440 C.3       4 GLP5        0.0000 
     51 CA        -17.1200   17.2490    3.5715 C.3       2 GLC5        0.0000 
     52 CA        -17.9200   18.0860    5.1300 C.3       4 GLP5        0.0000 
     53 CA        -17.1285   14.9105    3.3745 C.3       2 GLC5        0.0000 
     54 CA        -17.9370   13.4090    4.7360 C.3       4 GLP5        0.0000 
     55 CA        -22.7980   19.3185    0.5325 C.3       2 GLC5        0.0000 
     56 CA        -20.8290   18.2330   -0.2870 C.3       6 GLL5        0.0000 
     57 CA        -24.3790   19.9310    1.6710 C.3       4 GLP5        0.0000 
     58 CA        -20.6502   17.4333    1.8100 C.3       2 GLC5        0.0000 
     59 CA        -21.0710   16.4610    3.6180 C.3       4 GLP5        0.0000 
     60 CA        -21.0865   18.4343   -2.3630 C.3       2 GLC5        0.0000 
     61 CA        -21.6050   19.1790   -0.9250 C.3       6 GLL5        0.0000 
     62 CA        -20.7890   17.0360   -3.7740 C.3       4 GLP5        0.0000 
     63 CA        -19.3630   21.5530   -1.7625 C.3       2 GLC5        0.0000 
     64 CA        -18.4967   20.2565    2.5202 C.3       2 GLC5        0.0000 
     65 CA        -19.1840   19.8810    0.2340 C.3       6 GLL5        0.0000 
     66 CA        -18.4620   20.4420    4.5010 C.3       4 GLP5        0.0000 
     67 CA        -18.3493   21.2595   -1.1473 C.3       2 GLC5        0.0000 
     68 CA        -13.0202   18.3772   -0.5248 C.3       2 GLC5        0.0000 
     69 CA        -11.2290   18.7580    0.4760 C.3       4 GLP5        0.0000 
     70 CA        -14.8102   19.7406    0.5574 C.3       2 GLC5        0.0000 
     71 CA        -14.1372   15.1360   -0.3968 C.3       2 GLC5        0.0000 
     72 CA        -14.5650   17.3600   -1.4110 C.3       6 GLL5        0.0000 
     73 CA        -16.0822   15.5580   -0.5667 C.3       2 GLC5        0.0000 
     74 CA        -12.0900   15.7670   -1.5882 C.3       2 GLC5        0.0000 
     75 CA        -13.7950   15.4760   -2.8640 C.3       6 GLL5        0.0000 
     76 CA        -13.2982   13.8593   -1.8584 C.3       2 GLC5        0.0000 
     77 CA        -12.8820   13.7240   -4.2560 C.3       6 GLL5        0.0000 
     78 CA        -11.9860   11.9428   -3.5478 C.3       2 GLC5        0.0000 
     79 CA        -11.6530   10.3140   -2.4390 C.3       4 GLP5        0.0000 
     80 CA        -13.6420   12.4878   -5.9153 C.3       2 GLC5        0.0000 
     81 CA        -14.9650   11.4040   -7.1740 C.3       4 GLP5        0.0000 
     82 CA        -14.4023   15.0173   -4.8534 C.3       2 GLC5        0.0000 
     83 CA        -10.9082   13.2462   -6.9403 C.3       2 GLC5        0.0000 
     84 CA        -11.7560   13.4190   -5.0570 C.3       6 GLL5        0.0000 
     85 CA        -10.5280   12.5710   -8.8040 C.3       4 GLP5        0.0000 
     86 CA        -12.5658   15.3588   -6.0388 C.3       2 GLC5        0.0000 
     87 CA         -9.9100   13.8283   -7.3993 C.3       2 GLC5        0.0000 
     88 CA         -9.0530   15.7030   -6.1790 C.3       6 GLL5        0.0000 
     89 CA         -9.9103   16.1882   -6.6150 C.3       2 GLC5        0.0000 
     90 CA        -15.0645   17.8335    2.4770 C.3       2 GLC5        0.0000 
     91 CA        -15.8480   17.2940    0.6090 C.3       6 GLL5        0.0000 
     92 CA        -14.0450   18.8140    3.6430 C.3       4 GLP5        0.0000 
     93 CA        -16.7405   15.4695    0.5090 C.3       2 GLC5        0.0000 
     94 CA        -20.9139   20.3594    1.3956 C.3       2 GLC5        0.0000 
     95 CA        -19.6300   18.5780    0.2910 C.3       6 GLL5        0.0000 
     96 CA        -22.2280   21.2520    2.6880 C.3       4 GLP5        0.0000 
     97 CA        -20.5592   17.5610   -1.8770 C.3       2 GLC5        0.0000 
     98 CA        -10.5915   13.9516   -2.9531 C.3       2 GLC5        0.0000 
     99 CA        -12.7990   14.9820   -3.6790 C.3       6 GLL5        0.0000 
    100 CA         -9.3640   13.2200   -1.5130 C.3       4 GLP5        0.0000 
@<TRIPOS>BOND
@<TRIPOS>SUBSTRUCTURE
     1 SEC2       33 GROUP        1 X    SEC  0     ROOT SEC X 2
     2 GLC5        1 GROUP        1 X    GLC  0     **** GLC X 6
     3 SEP2       35 GROUP        1 Y    SEP  0     ROOT SEP Y 9
     4 GLP5        3 GROUP        1 Y    GLP  0     **** GLP Y 13
     5 SEL2       34 GROUP        1 Z    SEL  0     ROOT SEL Z 16
     6 GLL5        2 GROUP        1 Z    GLL  0     **** GLL Z 20
@<TRIPOS>SET

