#    Name: 2r4b_GW7_1_ligand
#    Modification time : Mon Mar 24 23:07:18 2014

@<TRIPOS>MOLECULE
2r4b_GW7_1_ligand
   45    48     1     0     0
SMALL
NO_CHARGES


@<TRIPOS>ATOM
      1 F1        -21.2290   16.9550   -0.2150 F         1 GW71        0.0000 
      2 C1        -20.8290   18.2330   -0.2870 C.ar      1 GW71        0.0000 
      3 C2        -21.6050   19.1790   -0.9250 C.ar      1 GW71        0.0000 
      4 C3        -21.1630   20.4860   -0.9790 C.ar      1 GW71        0.0000 
      5 C4        -19.9550   20.8300   -0.4030 C.ar      1 GW71        0.0000 
      6 C5        -19.1840   19.8810    0.2340 C.ar      1 GW71        0.0000 
      7 C6        -17.8790   20.2610    0.8450 C.3       1 GW71        0.0000 
      8 O1        -17.2180   19.0910    1.3200 O.3       1 GW71        0.0000 
      9 C7        -16.3390   18.5630    0.3720 C.ar      1 GW71        0.0000 
     10 C8        -15.9390   19.2400   -0.7650 C.ar      1 GW71        0.0000 
     11 C9        -15.0580   18.6330   -1.6400 C.ar      1 GW71        0.0000 
     12 C10       -14.5650   17.3600   -1.4110 C.ar      1 GW71        0.0000 
     13 N1        -13.6590   16.7620   -2.3130 N.pl3     1 GW71        0.0000 
     14 C11       -13.7950   15.4760   -2.8640 C.ar      1 GW71        0.0000 
     15 N2        -14.8450   14.6680   -2.6620 N.ar      1 GW71        0.0000 
     16 C12       -14.8470   13.4680   -3.2520 C.ar      1 GW71        0.0000 
     17 N3        -13.9320   12.9160   -4.0530 N.ar      1 GW71        0.0000 
     18 C13       -12.8820   13.7240   -4.2560 C.ar      1 GW71        0.0000 
     19 C14       -11.7560   13.4190   -5.0570 C.2       1 GW71        0.0000 
     20 C15       -10.8210   14.4240   -5.0960 C.2       1 GW71        0.0000 
     21 C16        -9.5310   14.4680   -5.8100 C.3       1 GW71        0.0000 
     22 C17        -9.0530   15.7030   -6.1790 C.3       1 GW71        0.0000 
     23 S1        -11.3370   15.7550   -4.1410 S.3       1 GW71        0.0000 
     24 C18       -12.7990   14.9820   -3.6790 C.ar      1 GW71        0.0000 
     25 C19       -14.9700   16.7000   -0.2700 C.ar      1 GW71        0.0000 
     26 C20       -15.8480   17.2940    0.6090 C.ar      1 GW71        0.0000 
     27 CL1       -16.3200   16.4120    2.0130 Cl        1 GW71        0.0000 
     28 C21       -19.6300   18.5780    0.2910 C.ar      1 GW71        0.0000 
     29 H         -22.4987   18.9151   -1.3537 H         1 GW71        0.0000 
     30 H         -21.7335   21.2050   -1.4486 H         1 GW71        0.0000 
     31 H         -19.6264   21.8117   -0.4510 H         1 GW71        0.0000 
     32 H         -18.0671   20.9721    1.6617 H         1 GW71        0.0000 
     33 H         -17.2748   20.7810    0.0883 H         1 GW71        0.0000 
     34 H         -16.2929   20.1842   -0.9574 H         1 GW71        0.0000 
     35 H         -14.7561   19.1470   -2.4958 H         1 GW71        0.0000 
     36 H         -12.8099   17.3291   -2.5958 H         1 GW71        0.0000 
     37 H         -15.7395   12.8395   -3.0455 H         1 GW71        0.0000 
     38 H         -11.6714   12.5626   -5.5320 H         1 GW71        0.0000 
     39 H          -9.6239   13.7781   -6.7140 H         1 GW71        0.0000 
     40 H          -8.7716   13.9107   -5.1661 H         1 GW71        0.0000 
     41 H         -14.6098   15.7482   -0.0729 H         1 GW71        0.0000 
     42 H         -19.0608   17.8599    0.7696 H         1 GW71        0.0000 
     43 H          -8.9065   16.2962   -5.3874 H         1 GW71        0.0000 
     44 H          -8.1788   15.6344   -6.6597 H         1 GW71        0.0000 
     45 H          -9.6863   16.1793   -6.7889 H         1 GW71        0.0000 
@<TRIPOS>BOND
     1    2    1 1    
     2    3    2 ar   
     3   28    2 ar   
     4    4    3 ar   
     5   29    3 1    
     6    5    4 ar   
     7   30    4 1    
     8    6    5 ar   
     9   31    5 1    
    10    7    6 1    
    11   28    6 ar   
    12    8    7 1    
    13   32    7 1    
    14   33    7 1    
    15    9    8 1    
    16   10    9 ar   
    17   26    9 ar   
    18   11   10 ar   
    19   34   10 1    
    20   12   11 ar   
    21   35   11 1    
    22   13   12 1    
    23   25   12 ar   
    24   14   13 1    
    25   36   13 1    
    26   15   14 ar   
    27   24   14 ar   
    28   16   15 ar   
    29   17   16 ar   
    30   37   16 1    
    31   18   17 ar   
    32   19   18 1    
    33   24   18 ar   
    34   20   19 2    
    35   38   19 1    
    36   21   20 1    
    37   23   20 1    
    38   22   21 1    
    39   39   21 1    
    40   40   21 1    
    41   43   22 1    
    42   44   22 1    
    43   45   22 1    
    44   24   23 1    
    45   26   25 ar   
    46   41   25 1    
    47   27   26 1    
    48   42   28 1    
@<TRIPOS>SUBSTRUCTURE
     1 GW71        1 GROUP   
@<TRIPOS>SET

