#    Name: 1sri_DMB_2_INTS_M
#    Modification time : Tue Mar 25 02:42:26 2014

@<TRIPOS>MOLECULE
1sri_DMB_2_INTS_M
   48     0     9     0     0
SMALL
NO_CHARGES


@<TRIPOS>ATOM
      1 CA         36.7250    9.9080   -5.3625 C.3       3 GLC5        0.0000 
      2 CA         35.0050   10.5280   -4.0700 C.3       9 GLL5        0.0000 
      3 CA         38.4450    9.2880   -6.6550 C.3       6 GLP5        0.0000 
      4 CA         31.1960   10.9740   -3.4810 C.3       3 GLC5        0.0000 
      5 CA         32.4640   10.5950   -5.2730 C.3       9 GLL5        0.0000 
      6 CA         29.9280   11.3530   -1.6890 C.3       6 GLP5        0.0000 
      7 CA         30.7680   10.4750   -6.3645 C.3       3 GLC5        0.0000 
      8 CA         29.0720   10.3550   -7.4560 C.3       6 GLP5        0.0000 
      9 CA         33.8520   15.7415   -7.1045 C.3       3 GLC5        0.0000 
     10 CA         31.9230   14.8880   -7.7980 C.3       9 GLL5        0.0000 
     11 CA         35.7810   16.5950   -6.4110 C.3       6 GLP5        0.0000 
     12 CA         32.6595   14.4745   -9.8410 C.3       3 GLC5        0.0000 
     13 CA         33.3960   14.0610  -11.8840 C.3       6 GLP5        0.0000 
     14 CA         31.7595   19.4550   -7.8680 C.3       3 GLC5        0.0000 
     15 CA         31.7040   17.3520   -8.3310 C.3       9 GLL5        0.0000 
     16 CA         31.8150   21.5580   -7.4050 C.3       6 GLP5        0.0000 
     17 CA         31.4625   17.6590   -6.9615 C.3       3 GLC5        0.0000 
     18 CA         31.2210   17.9660   -5.5920 C.3       6 GLP5        0.0000 
     19 CA         28.2240   14.9195   -7.7995 C.3       3 GLC5        0.0000 
     20 CA         28.1340   14.0370   -9.7640 C.3       9 GLL5        0.0000 
     21 CA         28.3140   15.8020   -5.8350 C.3       6 GLP5        0.0000 
     22 CA         26.5815   14.2555   -8.8965 C.3       3 GLC5        0.0000 
     23 CA         25.0290   14.4740   -8.0290 C.3       6 GLP5        0.0000 
     24 N          37.8205   11.9250   -3.2075 N.am      2 SEC2        0.0000 
     25 N          36.7370   12.7180   -4.0630 N.am      8 SEL2        0.0000 
     26 N          38.9040   11.1320   -2.3520 N.am      5 SEP2        0.0000 
     27 N          37.8200   13.4490   -4.4740 N.am      2 SEC2        0.0000 
     28 N          38.9030   14.1800   -4.8850 N.am      5 SEP2        0.0000 
     29 N          36.7335   13.1765   -2.8025 N.am      2 SEC2        0.0000 
     30 N          36.7300   13.6350   -1.5420 N.am      5 SEP2        0.0000 
     31 O          29.8540   17.5920  -10.5455 O.2       1 ALC1        0.0000 
     32 O          29.2350   16.7180   -9.6130 O.2       7 ALL1        0.0000 
     33 O          30.4730   18.4660  -11.4780 O.2       4 ALP1        0.0000 
     34 CA         34.9537   11.6562   -6.9093 C.3       3 GLC5        0.0000 
     35 CA         33.3110   11.7110   -5.3280 C.3       9 GLL5        0.0000 
     36 CA         35.9680   11.6200   -8.7690 C.3       6 GLP5        0.0000 
     37 CA         29.9485   11.8978   -7.8083 C.3       3 GLC5        0.0000 
     38 CA         31.4290   13.5800   -7.8460 C.3       9 GLL5        0.0000 
     39 CA         29.1553   16.5783   -7.9356 C.3       3 GLC5        0.0000 
     40 CA         29.4720   14.3350   -9.0620 C.3       9 GLL5        0.0000 
     41 CA         28.2880   18.1000   -6.9880 C.3       6 GLP5        0.0000 
     42 CA         28.0360   12.9640   -7.9750 C.3       3 GLC5        0.0000 
     43 CA         27.2690   11.7420   -6.5370 C.3       6 GLP5        0.0000 
     44 CA         32.5855   17.4459   -8.8076 C.3       3 GLC5        0.0000 
     45 CA         33.5420   18.5150   -9.4020 C.3       6 GLP5        0.0000 
     46 CA         28.0791   16.0547  -10.1357 C.3       3 GLC5        0.0000 
     47 CA         29.9610   15.6410   -9.0160 C.3       9 GLL5        0.0000 
     48 CA         27.2330   17.5970  -10.8700 C.3       6 GLP5        0.0000 
@<TRIPOS>BOND
@<TRIPOS>SUBSTRUCTURE
     1 ALC1       31 GROUP        1 X    ALC  0     ROOT ALC X 1
     2 SEC2       24 GROUP        1 X    SEC  0     **** SEC X 2
     3 GLC5        1 GROUP        1 X    GLC  0     **** GLC X 6
     4 ALP1       33 GROUP        1 Y    ALP  0     ROOT ALP Y 8
     5 SEP2       26 GROUP        1 Y    SEP  0     **** SEP Y 9
     6 GLP5        3 GROUP        1 Y    GLP  0     **** GLP Y 13
     7 ALL1       32 GROUP        1 Z    ALL  0     ROOT ALL Z 15
     8 SEL2       25 GROUP        1 Z    SEL  0     **** SEL Z 16
     9 GLL5        2 GROUP        1 Z    GLL  0     **** GLL Z 20
@<TRIPOS>SET

