#    Name: 1sri_DMB_2_ligand
#    Modification time : Tue Mar 25 02:42:26 2014

@<TRIPOS>MOLECULE
1sri_DMB_2_ligand
   33    34     1     0     0
SMALL
NO_CHARGES


@<TRIPOS>ATOM
      1 C1         33.3110   11.7110   -5.3280 C.ar      1 DMB300      0.0000 
      2 C2         34.5680   11.6740   -4.7710 C.ar      1 DMB300      0.0000 
      3 C3         35.0050   10.5280   -4.0700 C.ar      1 DMB300      0.0000 
      4 C4         34.1680    9.4190   -4.0180 C.ar      1 DMB300      0.0000 
      5 C5         32.9040    9.4640   -4.6100 C.ar      1 DMB300      0.0000 
      6 C6         32.4640   10.5950   -5.2730 C.ar      1 DMB300      0.0000 
      7 C1'        31.4290   13.5800   -7.8460 C.ar      1 DMB300      0.0000 
      8 C2'        31.9230   14.8880   -7.7980 C.ar      1 DMB300      0.0000 
      9 C3'        31.1850   15.9150   -8.3930 C.ar      1 DMB300      0.0000 
     10 C4'        29.9610   15.6410   -9.0160 C.ar      1 DMB300      0.0000 
     11 C5'        29.4720   14.3350   -9.0620 C.ar      1 DMB300      0.0000 
     12 C6'        30.2210   13.3010   -8.4750 C.ar      1 DMB300      0.0000 
     13 C          35.5170   12.8810   -4.7920 C.2       1 DMB300      0.0000 
     14 CM3        31.7040   17.3520   -8.3310 C.3       1 DMB300      0.0000 
     15 CM5        28.1340   14.0370   -9.7640 C.3       1 DMB300      0.0000 
     16 N1         32.8240   12.9070   -6.0880 N.2       1 DMB300      0.0000 
     17 N1'        32.2440   12.5280   -7.1940 N.2       1 DMB300      0.0000 
     18 O          36.7370   12.7180   -4.0630 O.co2     1 DMB300      0.0000 
     19 OXT        35.2180   13.9310   -5.3190 O.co2     1 DMB300      0.0000 
     20 O4'        29.2350   16.7180   -9.6130 O.3       1 DMB300      0.0000 
     21 H          35.9134   10.5244   -3.6169 H         1 DMB300      0.0000 
     22 H          34.4784    8.5611   -3.5424 H         1 DMB300      0.0000 
     23 H          32.2889    8.6316   -4.5481 H         1 DMB300      0.0000 
     24 H          31.5476   10.6255   -5.7139 H         1 DMB300      0.0000 
     25 H          32.8088   15.0886   -7.3355 H         1 DMB300      0.0000 
     26 H          29.8684   12.3362   -8.5144 H         1 DMB300      0.0000 
     27 H          32.6010   17.4419   -8.7638 H         1 DMB300      0.0000 
     28 H          31.0892   17.9893   -8.7956 H         1 DMB300      0.0000 
     29 H          31.8000   17.6718   -7.3884 H         1 DMB300      0.0000 
     30 H          28.1568   14.2924  -10.7306 H         1 DMB300      0.0000 
     31 H          27.9014   13.0653   -9.7230 H         1 DMB300      0.0000 
     32 H          27.3758   14.5377   -9.3463 H         1 DMB300      0.0000 
     33 H          29.8910   17.1675  -10.2192 H         1 DMB300      0.0000 
@<TRIPOS>BOND
     1    2    1 ar   
     2    6    1 ar   
     3   16    1 1    
     4    3    2 ar   
     5   13    2 1    
     6    4    3 ar   
     7   21    3 1    
     8    5    4 ar   
     9   22    4 1    
    10    6    5 ar   
    11   23    5 1    
    12   24    6 1    
    13    8    7 ar   
    14   12    7 ar   
    15   17    7 1    
    16    9    8 ar   
    17   25    8 1    
    18   10    9 ar   
    19   14    9 1    
    20   11   10 ar   
    21   20   10 1    
    22   12   11 ar   
    23   15   11 1    
    24   26   12 1    
    25   18   13 ar   
    26   19   13 ar   
    27   27   14 1    
    28   28   14 1    
    29   29   14 1    
    30   30   15 1    
    31   31   15 1    
    32   32   15 1    
    33   17   16 2    
    34   33   20 1    
@<TRIPOS>SUBSTRUCTURE
     1 DMB300      1 GROUP   
@<TRIPOS>SET

